# generated using pymatgen
data_B3H165Pd2C182S2N12(O2F3)4
_symmetry_space_group_name_H-M   'P 1'
_cell_length_a   19.20200000
_cell_length_b   20.73400000
_cell_length_c   24.32100000
_cell_angle_alpha   93.96000000
_cell_angle_beta   108.19000000
_cell_angle_gamma   96.25000000
_symmetry_Int_Tables_number   1
_chemical_formula_structural   B3H165Pd2C182S2N12(O2F3)4
_chemical_formula_sum   'B6 H330 Pd4 C364 S4 N24 O16 F24'
_cell_volume   9089.85379202
_cell_formula_units_Z   2
loop_
 _symmetry_equiv_pos_site_id
 _symmetry_equiv_pos_as_xyz
  1  'x, y, z'
loop_
 _atom_site_type_symbol
 _atom_site_label
 _atom_site_symmetry_multiplicity
 _atom_site_fract_x
 _atom_site_fract_y
 _atom_site_fract_z
 _atom_site_occupancy
  B  B1  1  0.884000  0.649800  0.786300  1
  B  B2  1  0.116000  0.350200  0.213700  1
  B  B3  1  0.629900  0.867900  0.683900  1
  B  B4  1  0.370100  0.132100  0.316100  1
  B  B5  1  0.656700  0.905700  0.687800  1
  B  B6  1  0.343300  0.094300  0.312200  1
  H  H7  1  0.692100  0.759700  0.633000  1
  H  H8  1  0.307900  0.240300  0.367000  1
  H  H9  1  0.414200  0.619100  0.655200  1
  H  H10  1  0.585800  0.380900  0.344800  1
  H  H11  1  0.435100  0.673100  0.616900  1
  H  H12  1  0.564900  0.326900  0.383100  1
  H  H13  1  0.468600  0.605600  0.618700  1
  H  H14  1  0.531400  0.394400  0.381300  1
  H  H15  1  0.340900  0.633200  0.547400  1
  H  H16  1  0.659100  0.366800  0.452600  1
  H  H17  1  0.323200  0.576700  0.584200  1
  H  H18  1  0.676800  0.423300  0.415800  1
  H  H19  1  0.140000  0.472100  0.474300  1
  H  H20  1  0.860000  0.527900  0.525700  1
  H  H21  1  0.168000  0.468700  0.418300  1
  H  H22  1  0.832000  0.531300  0.581700  1
  H  H23  1  0.240400  0.576600  0.504400  1
  H  H24  1  0.759600  0.423400  0.495600  1
  H  H25  1  0.412000  0.522000  0.547900  1
  H  H26  1  0.588000  0.478000  0.452100  1
  H  H27  1  0.391900  0.570400  0.498400  1
  H  H28  1  0.608100  0.429600  0.501600  1
  H  H29  1  0.303800  0.485100  0.454900  1
  H  H30  1  0.696200  0.514900  0.545100  1
  H  H31  1  0.298500  0.462900  0.515400  1
  H  H32  1  0.701500  0.537100  0.484600  1
  H  H33  1  0.239800  0.912900  0.451300  1
  H  H34  1  0.760200  0.087100  0.548700  1
  H  H35  1  0.261900  0.897500  0.394000  1
  H  H36  1  0.738100  0.102500  0.606000  1
  H  H37  1  0.321900  0.831000  0.465100  1
  H  H38  1  0.678100  0.169000  0.534900  1
  H  H39  1  0.134100  0.903100  0.366000  1
  H  H40  1  0.865900  0.096900  0.634000  1
  H  H41  1  0.279100  0.777100  0.366400  1
  H  H42  1  0.720900  0.222900  0.633600  1
  H  H43  1  0.271400  0.724300  0.410200  1
  H  H44  1  0.728600  0.275700  0.589800  1
  H  H45  1  0.091700  0.798200  0.313200  1
  H  H46  1  0.908300  0.201800  0.686800  1
  H  H47  1  0.172600  0.822900  0.310600  1
  H  H48  1  0.827400  0.177100  0.689400  1
  H  H49  1  0.245100  0.760500  0.503100  1
  H  H50  1  0.754900  0.239500  0.496900  1
  H  H51  1  0.231800  0.834400  0.515100  1
  H  H52  1  0.768200  0.165600  0.484900  1
  H  H53  1  0.128400  0.877200  0.459800  1
  H  H54  1  0.871600  0.122800  0.540200  1
  H  H55  1  0.062700  0.833800  0.408600  1
  H  H56  1  0.937300  0.166200  0.591400  1
  H  H57  1  0.163000  0.714000  0.330800  1
  H  H58  1  0.837000  0.286000  0.669200  1
  H  H59  1  0.117700  0.765500  0.478600  1
  H  H60  1  0.882300  0.234500  0.521400  1
  H  H61  1  0.035600  0.667600  0.277600  1
  H  H62  1  0.964400  0.332400  0.722400  1
  H  H63  1  0.064700  0.482600  0.236500  1
  H  H64  1  0.935300  0.517400  0.763500  1
  H  H65  1  0.100400  0.466200  0.334400  1
  H  H66  1  0.899600  0.533800  0.665600  1
  H  H67  1  0.089900  0.525900  0.522600  1
  H  H68  1  0.910100  0.474100  0.477400  1
  H  H69  1  0.010000  0.572800  0.563200  1
  H  H70  1  0.990000  0.427200  0.436800  1
  H  H71  1  0.985400  0.708500  0.449800  1
  H  H72  1  0.014600  0.291500  0.550200  1
  H  H73  1  0.930500  0.670300  0.069100  1
  H  H74  1  0.069500  0.329700  0.930900  1
  H  H75  1  0.076200  0.546600  0.065300  1
  H  H76  1  0.923800  0.453400  0.934700  1
  H  H77  1  0.052100  0.562800  0.965100  1
  H  H78  1  0.947900  0.437200  0.034900  1
  H  H79  1  0.974500  0.633600  0.926300  1
  H  H80  1  0.025500  0.366400  0.073700  1
  H  H81  1  0.797500  0.771300  0.518900  1
  H  H82  1  0.202500  0.228700  0.481100  1
  H  H83  1  0.846000  0.640000  0.636000  1
  H  H84  1  0.154000  0.360000  0.364000  1
  H  H85  1  0.756800  0.677200  0.673800  1
  H  H86  1  0.243200  0.322800  0.326200  1
  H  H87  1  0.795000  0.898900  0.653900  1
  H  H88  1  0.205000  0.101100  0.346100  1
  H  H89  1  0.779400  0.281500  0.405700  1
  H  H90  1  0.220600  0.718500  0.594300  1
  H  H91  1  0.739500  0.303000  0.342800  1
  H  H92  1  0.260500  0.697000  0.657200  1
  H  H93  1  0.814900  0.344700  0.384500  1
  H  H94  1  0.185100  0.655300  0.615500  1
  H  H95  1  0.881600  0.262200  0.374200  1
  H  H96  1  0.118400  0.737800  0.625800  1
  H  H97  1  0.807900  0.213000  0.341200  1
  H  H98  1  0.192100  0.787000  0.658800  1
  H  H99  1  0.070200  0.239200  0.302200  1
  H  H100  1  0.929800  0.760800  0.697800  1
  H  H101  1  0.851500  0.324200  0.294200  1
  H  H102  1  0.148500  0.675800  0.705800  1
  H  H103  1  0.785900  0.267200  0.261300  1
  H  H104  1  0.214100  0.732800  0.738700  1
  H  H105  1  0.877800  0.195800  0.266800  1
  H  H106  1  0.122200  0.804200  0.733200  1
  H  H107  1  0.877300  0.251700  0.224600  1
  H  H108  1  0.122700  0.748300  0.775400  1
  H  H109  1  0.980600  0.309700  0.318300  1
  H  H110  1  0.019400  0.690300  0.681700  1
  H  H111  1  0.602000  0.988200  0.121200  1
  H  H112  1  0.398000  0.011800  0.878800  1
  H  H113  1  0.587700  0.998900  0.182500  1
  H  H114  1  0.412300  0.001100  0.817500  1
  H  H115  1  0.643600  0.097400  0.161700  1
  H  H116  1  0.356400  0.902600  0.838300  1
  H  H117  1  0.641800  0.901000  0.177300  1
  H  H118  1  0.358200  0.099000  0.822700  1
  H  H119  1  0.711100  0.052500  0.105800  1
  H  H120  1  0.288900  0.947500  0.894200  1
  H  H121  1  0.765500  0.104900  0.157100  1
  H  H122  1  0.234500  0.895100  0.842900  1
  H  H123  1  0.766700  0.909900  0.175900  1
  H  H124  1  0.233300  0.090100  0.824100  1
  H  H125  1  0.713400  0.931000  0.116700  1
  H  H126  1  0.286600  0.069000  0.883300  1
  H  H127  1  0.672200  0.081500  0.260500  1
  H  H128  1  0.327800  0.918500  0.739500  1
  H  H129  1  0.742300  0.121800  0.249900  1
  H  H130  1  0.257700  0.878200  0.750100  1
  H  H131  1  0.673100  0.959100  0.271700  1
  H  H132  1  0.326900  0.040900  0.728300  1
  H  H133  1  0.743400  0.926600  0.266800  1
  H  H134  1  0.256600  0.073400  0.733200  1
  H  H135  1  0.819600  0.008900  0.152800  1
  H  H136  1  0.180400  0.991100  0.847200  1
  H  H137  1  0.779400  0.037000  0.307100  1
  H  H138  1  0.220600  0.963000  0.692900  1
  H  H139  1  0.922900  0.966400  0.181800  1
  H  H140  1  0.077100  0.033600  0.818200  1
  H  H141  1  0.083500  0.090900  0.155600  1
  H  H142  1  0.916500  0.909100  0.844400  1
  H  H143  1  0.079100  0.164800  0.230400  1
  H  H144  1  0.920900  0.835200  0.769600  1
  H  H145  1  0.035400  0.192700  0.408200  1
  H  H146  1  0.964600  0.807300  0.591800  1
  H  H147  1  0.003100  0.141700  0.481500  1
  H  H148  1  0.996900  0.858300  0.518500  1
  H  H149  1  0.880200  0.994200  0.361700  1
  H  H150  1  0.119800  0.005800  0.638300  1
  H  H151  1  0.926300  0.826200  0.040100  1
  H  H152  1  0.073700  0.173800  0.959900  1
  H  H153  1  0.079500  0.943800  0.999000  1
  H  H154  1  0.920500  0.056200  0.001000  1
  H  H155  1  0.066400  0.864500  0.920300  1
  H  H156  1  0.933600  0.135500  0.079700  1
  H  H157  1  0.985400  0.770500  0.905300  1
  H  H158  1  0.014600  0.229500  0.094700  1
  H  H159  1  0.782700  0.922300  0.492500  1
  H  H160  1  0.217300  0.077700  0.507500  1
  H  H161  1  0.951200  0.024200  0.623400  1
  H  H162  1  0.048800  0.975800  0.376600  1
  H  H163  1  0.900900  0.973700  0.688800  1
  H  H164  1  0.099100  0.026300  0.311200  1
  H  H165  1  0.641700  0.971800  0.581900  1
  H  H166  1  0.358300  0.028200  0.418100  1
  H  H167  1  0.314400  0.800000  0.214200  1
  H  H168  1  0.685600  0.200000  0.785800  1
  H  H169  1  0.332000  0.875000  0.205200  1
  H  H170  1  0.668000  0.125000  0.794800  1
  H  H171  1  0.372300  0.821100  0.181400  1
  H  H172  1  0.627700  0.178900  0.818600  1
  H  H173  1  0.236200  0.857200  0.128000  1
  H  H174  1  0.763800  0.142800  0.872000  1
  H  H175  1  0.230800  0.780000  0.130000  1
  H  H176  1  0.769200  0.220000  0.870000  1
  H  H177  1  0.304800  0.971000  0.062800  1
  H  H178  1  0.695200  0.029000  0.937200  1
  H  H179  1  0.331700  0.982900  0.007700  1
  H  H180  1  0.668300  0.017100  0.992300  1
  H  H181  1  0.342900  0.835700  0.089200  1
  H  H182  1  0.657100  0.164300  0.910800  1
  H  H183  1  0.292300  0.766500  0.067500  1
  H  H184  1  0.707700  0.233500  0.932500  1
  H  H185  1  0.226400  0.803000  0.996500  1
  H  H186  1  0.773600  0.197000  0.003500  1
  H  H187  1  0.203600  0.853300  0.037700  1
  H  H188  1  0.796400  0.146700  0.962300  1
  H  H189  1  0.226700  0.910800  0.976600  1
  H  H190  1  0.773300  0.089200  0.023400  1
  H  H191  1  0.293400  0.874200  0.971800  1
  H  H192  1  0.706600  0.125800  0.028200  1
  H  H193  1  0.459700  0.589400  0.179900  1
  H  H194  1  0.540300  0.410600  0.820100  1
  H  H195  1  0.472300  0.572800  0.118600  1
  H  H196  1  0.527700  0.427200  0.881400  1
  H  H197  1  0.355500  0.610200  0.103200  1
  H  H198  1  0.644500  0.389800  0.896800  1
  H  H199  1  0.580400  0.634500  0.185600  1
  H  H200  1  0.419600  0.365500  0.814400  1
  H  H201  1  0.419900  0.632500  0.036100  1
  H  H202  1  0.580100  0.367500  0.963900  1
  H  H203  1  0.370800  0.689200  0.040900  1
  H  H204  1  0.629200  0.310800  0.959100  1
  H  H205  1  0.595300  0.715300  0.122000  1
  H  H206  1  0.404700  0.284700  0.878000  1
  H  H207  1  0.553300  0.648000  0.083400  1
  H  H208  1  0.446700  0.352000  0.916600  1
  H  H209  1  0.385400  0.680600  0.191400  1
  H  H210  1  0.614600  0.319400  0.808600  1
  H  H211  1  0.351700  0.720400  0.136900  1
  H  H212  1  0.648300  0.279600  0.863100  1
  H  H213  1  0.519900  0.694000  0.240500  1
  H  H214  1  0.480100  0.306000  0.759500  1
  H  H215  1  0.575000  0.743400  0.220000  1
  H  H216  1  0.425000  0.256600  0.780000  1
  H  H217  1  0.489700  0.736000  0.046500  1
  H  H218  1  0.510300  0.264000  0.953500  1
  H  H219  1  0.461700  0.780100  0.201400  1
  H  H220  1  0.538300  0.219900  0.798600  1
  H  H221  1  0.581500  0.823400  0.054300  1
  H  H222  1  0.418500  0.176600  0.945700  1
  H  H223  1  0.489500  0.925200  0.920100  1
  H  H224  1  0.510500  0.074800  0.079900  1
  H  H225  1  0.408000  0.957700  0.967300  1
  H  H226  1  0.592000  0.042300  0.032700  1
  H  H227  1  0.376100  0.013300  0.143100  1
  H  H228  1  0.623900  0.986700  0.856900  1
  H  H229  1  0.425500  0.022900  0.243700  1
  H  H230  1  0.574500  0.977100  0.756300  1
  H  H231  1  0.541600  0.873100  0.232400  1
  H  H232  1  0.458400  0.126900  0.767600  1
  H  H233  1  0.744100  0.771900  0.969200  1
  H  H234  1  0.255900  0.228100  0.030800  1
  H  H235  1  0.645400  0.857800  0.826400  1
  H  H236  1  0.354600  0.142200  0.173600  1
  H  H237  1  0.733500  0.824000  0.786600  1
  H  H238  1  0.266500  0.176000  0.213400  1
  H  H239  1  0.825400  0.768100  0.840300  1
  H  H240  1  0.174600  0.231900  0.159700  1
  H  H241  1  0.609600  0.881000  0.427300  1
  H  H242  1  0.390400  0.119000  0.572700  1
  H  H243  1  0.543800  0.058700  0.439300  1
  H  H244  1  0.456200  0.941300  0.560700  1
  H  H245  1  0.589700  0.060300  0.541400  1
  H  H246  1  0.410300  0.939700  0.458600  1
  H  H247  1  0.539800  0.822300  0.564700  1
  H  H248  1  0.460200  0.177700  0.435300  1
  H  H249  1  0.429100  0.345500  0.188600  1
  H  H250  1  0.570900  0.654500  0.811400  1
  H  H251  1  0.463000  0.329000  0.137500  1
  H  H252  1  0.537000  0.671000  0.862500  1
  H  H253  1  0.498700  0.259900  0.211500  1
  H  H254  1  0.501300  0.740100  0.788500  1
  H  H255  1  0.536400  0.322300  0.257900  1
  H  H256  1  0.463600  0.677700  0.742100  1
  H  H257  1  0.615400  0.346100  0.198600  1
  H  H258  1  0.384600  0.653900  0.801400  1
  H  H259  1  0.632600  0.288700  0.239200  1
  H  H260  1  0.367400  0.711300  0.760800  1
  H  H261  1  0.584600  0.211700  0.164000  1
  H  H262  1  0.415400  0.788300  0.836000  1
  H  H263  1  0.546800  0.262300  0.121800  1
  H  H264  1  0.453200  0.737700  0.878200  1
  H  H265  1  0.637600  0.230800  0.092800  1
  H  H266  1  0.362400  0.769200  0.907200  1
  H  H267  1  0.695400  0.243800  0.156900  1
  H  H268  1  0.304600  0.756200  0.843100  1
  H  H269  1  0.730400  0.323400  0.111700  1
  H  H270  1  0.269600  0.676600  0.888300  1
  H  H271  1  0.686200  0.358200  0.148500  1
  H  H272  1  0.313800  0.641800  0.851500  1
  H  H273  1  0.647400  0.336400  0.080300  1
  H  H274  1  0.352600  0.663600  0.919700  1
  H  H275  1  0.767500  0.637100  0.330800  1
  H  H276  1  0.232500  0.362900  0.669200  1
  H  H277  1  0.813700  0.609900  0.389600  1
  H  H278  1  0.186300  0.390100  0.610400  1
  H  H279  1  0.915300  0.546900  0.390000  1
  H  H280  1  0.084700  0.453100  0.610000  1
  H  H281  1  0.937100  0.534000  0.332200  1
  H  H282  1  0.062900  0.466000  0.667800  1
  H  H283  1  0.869200  0.437700  0.346900  1
  H  H284  1  0.130800  0.562300  0.653100  1
  H  H285  1  0.892500  0.636000  0.333600  1
  H  H286  1  0.107500  0.364000  0.666400  1
  H  H287  1  0.852900  0.457900  0.248400  1
  H  H288  1  0.147100  0.542100  0.751600  1
  H  H289  1  0.777300  0.420700  0.252700  1
  H  H290  1  0.222700  0.579300  0.747300  1
  H  H291  1  0.799300  0.617300  0.240800  1
  H  H292  1  0.200700  0.382700  0.759200  1
  H  H293  1  0.865900  0.576900  0.240600  1
  H  H294  1  0.134100  0.423100  0.759400  1
  H  H295  1  0.799500  0.489300  0.397300  1
  H  H296  1  0.200500  0.510700  0.602700  1
  H  H297  1  0.744800  0.440300  0.343600  1
  H  H298  1  0.255200  0.559700  0.656400  1
  H  H299  1  0.751900  0.509700  0.197400  1
  H  H300  1  0.248100  0.490300  0.802600  1
  H  H301  1  0.699600  0.541300  0.346000  1
  H  H302  1  0.300400  0.458700  0.654000  1
  H  H303  1  0.664800  0.563500  0.139300  1
  H  H304  1  0.335200  0.436500  0.860700  1
  H  H305  1  0.526200  0.433200  0.010400  1
  H  H306  1  0.473800  0.566800  0.989600  1
  H  H307  1  0.478600  0.384700  0.076800  1
  H  H308  1  0.521400  0.615300  0.923200  1
  H  H309  1  0.424500  0.414600  0.249000  1
  H  H310  1  0.575500  0.585400  0.751000  1
  H  H311  1  0.422300  0.490100  0.323600  1
  H  H312  1  0.577700  0.509900  0.676400  1
  H  H313  1  0.602400  0.599000  0.309600  1
  H  H314  1  0.397600  0.401000  0.690400  1
  H  H315  1  0.772000  0.630900  0.005400  1
  H  H316  1  0.228000  0.369100  0.994600  1
  H  H317  1  0.624800  0.502500  0.878500  1
  H  H318  1  0.375200  0.497500  0.121500  1
  H  H319  1  0.688800  0.538100  0.816200  1
  H  H320  1  0.311200  0.461900  0.183800  1
  H  H321  1  0.789200  0.618300  0.849800  1
  H  H322  1  0.210800  0.381700  0.150200  1
  H  H323  1  0.615800  0.732300  0.454800  1
  H  H324  1  0.384200  0.267700  0.545200  1
  H  H325  1  0.411700  0.666667  0.457900  1
  H  H326  1  0.588300  0.333333  0.542100  1
  H  H327  1  0.428600  0.751600  0.532900  1
  H  H328  1  0.571400  0.248400  0.467100  1
  H  H329  1  0.695400  0.751900  0.268500  1
  H  H330  1  0.304600  0.248100  0.731500  1
  H  H331  1  0.847400  0.845000  0.415900  1
  H  H332  1  0.152600  0.155000  0.584100  1
  H  H333  1  0.930000  0.814800  0.178000  1
  H  H334  1  0.070000  0.185200  0.822000  1
  H  H335  1  0.727400  0.740800  0.179600  1
  H  H336  1  0.272600  0.259200  0.820400  1
  Pd  Pd337  1  0.866990  0.711470  0.952240  1
  Pd  Pd338  1  0.133010  0.288530  0.047760  1
  Pd  Pd339  1  0.682430  0.844130  0.539900  1
  Pd  Pd340  1  0.317570  0.155870  0.460100  1
  C  C341  1  0.727200  0.744200  0.617000  1
  C  C342  1  0.272800  0.255800  0.383000  1
  C  C343  1  0.425100  0.626200  0.619100  1
  C  C344  1  0.574900  0.373800  0.380900  1
  C  C345  1  0.361600  0.597200  0.569100  1
  C  C346  1  0.638400  0.402800  0.430900  1
  C  C347  1  0.163100  0.498200  0.450300  1
  C  C348  1  0.836900  0.501800  0.549700  1
  C  C349  1  0.236300  0.533600  0.486400  1
  C  C350  1  0.763700  0.466400  0.513600  1
  C  C351  1  0.373500  0.547800  0.526800  1
  C  C352  1  0.626500  0.452200  0.473200  1
  C  C353  1  0.301900  0.501100  0.493700  1
  C  C354  1  0.698100  0.498900  0.506300  1
  C  C355  1  0.234100  0.879100  0.418800  1
  C  C356  1  0.765900  0.120900  0.581200  1
  C  C357  1  0.267700  0.819700  0.443600  1
  C  C358  1  0.732300  0.180300  0.556400  1
  C  C359  1  0.153700  0.863700  0.383300  1
  C  C360  1  0.846300  0.136300  0.616700  1
  C  C361  1  0.252800  0.764000  0.393900  1
  C  C362  1  0.747200  0.236000  0.606100  1
  C  C363  1  0.144600  0.808900  0.336740  1
  C  C364  1  0.855400  0.191100  0.663260  1
  C  C365  1  0.225100  0.798400  0.484220  1
  C  C366  1  0.774900  0.201600  0.515780  1
  C  C367  1  0.117100  0.842000  0.427400  1
  C  C368  1  0.882900  0.158000  0.572600  1
  C  C369  1  0.172000  0.749900  0.362860  1
  C  C370  1  0.828000  0.250100  0.637140  1
  C  C371  1  0.144400  0.780200  0.451340  1
  C  C372  1  0.855600  0.219800  0.548660  1
  C  C373  1  0.130500  0.728100  0.403000  1
  C  C374  1  0.869500  0.271900  0.597000  1
  C  C375  1  0.052800  0.627880  0.289440  1
  C  C376  1  0.947200  0.372120  0.710560  1
  C  C377  1  0.051300  0.578300  0.248330  1
  C  C378  1  0.948700  0.421700  0.751670  1
  C  C379  1  0.068200  0.517530  0.265130  1
  C  C380  1  0.931800  0.482470  0.734870  1
  C  C381  1  0.090000  0.508010  0.323170  1
  C  C382  1  0.910000  0.491990  0.676830  1
  C  C383  1  0.097000  0.559520  0.365710  1
  C  C384  1  0.903000  0.440480  0.634290  1
  C  C385  1  0.079600  0.619960  0.348710  1
  C  C386  1  0.920400  0.380040  0.651290  1
  C  C387  1  0.087500  0.671400  0.395500  1
  C  C388  1  0.912500  0.328600  0.604500  1
  C  C389  1  0.058800  0.645800  0.442830  1
  C  C390  1  0.941200  0.354200  0.557170  1
  C  C391  1  0.080670  0.586210  0.458450  1
  C  C392  1  0.919330  0.413790  0.541550  1
  C  C393  1  0.067200  0.561980  0.506730  1
  C  C394  1  0.932800  0.438020  0.493270  1
  C  C395  1  0.020920  0.590580  0.531380  1
  C  C396  1  0.979080  0.409420  0.468620  1
  C  C397  1  0.990100  0.644850  0.510440  1
  C  C398  1  0.009900  0.355150  0.489560  1
  C  C399  1  0.007690  0.672170  0.465400  1
  C  C400  1  0.992310  0.327830  0.534600  1
  C  C401  1  0.029500  0.588500  0.187500  1
  C  C402  1  0.970500  0.411500  0.812500  1
  C  C403  1  0.016600  0.598100  0.137800  1
  C  C404  1  0.983400  0.401900  0.862200  1
  C  C405  1  0.954400  0.647400  0.046600  1
  C  C406  1  0.045600  0.352600  0.953400  1
  C  C407  1  0.002000  0.606200  0.076650  1
  C  C408  1  0.998000  0.393800  0.923350  1
  C  C409  1  0.041600  0.574200  0.046810  1
  C  C410  1  0.958400  0.425800  0.953190  1
  C  C411  1  0.028100  0.584400  0.988200  1
  C  C412  1  0.971900  0.415600  0.011800  1
  C  C413  1  0.978800  0.626900  0.965400  1
  C  C414  1  0.021200  0.373100  0.034600  1
  C  C415  1  0.934780  0.668400  0.532060  1
  C  C416  1  0.065220  0.331600  0.467940  1
  C  C417  1  0.885410  0.683000  0.548510  1
  C  C418  1  0.114590  0.317000  0.451490  1
  C  C419  1  0.789200  0.750670  0.550460  1
  C  C420  1  0.210800  0.249330  0.449540  1
  C  C421  1  0.830500  0.702400  0.573000  1
  C  C422  1  0.169500  0.297600  0.427000  1
  C  C423  1  0.818900  0.673600  0.619680  1
  C  C424  1  0.181100  0.326400  0.380320  1
  C  C425  1  0.766100  0.695600  0.641680  1
  C  C426  1  0.233900  0.304400  0.358320  1
  C  C427  1  0.813600  0.919100  0.626500  1
  C  C428  1  0.186400  0.080900  0.373500  1
  C  C429  1  0.787400  0.300700  0.372100  1
  C  C430  1  0.212600  0.699300  0.627900  1
  C  C431  1  0.831000  0.259000  0.346300  1
  C  C432  1  0.169000  0.741000  0.653700  1
  C  C433  1  0.020700  0.223600  0.299400  1
  C  C434  1  0.979300  0.776400  0.700600  1
  C  C435  1  0.836100  0.276500  0.290200  1
  C  C436  1  0.163900  0.723500  0.709800  1
  C  C437  1  0.887500  0.243600  0.265800  1
  C  C438  1  0.112500  0.756400  0.734200  1
  C  C439  1  0.966100  0.266900  0.298300  1
  C  C440  1  0.033900  0.733100  0.701700  1
  C  C441  1  0.900800  0.003800  0.508270  1
  C  C442  1  0.099200  0.996200  0.491730  1
  C  C443  1  0.626600  0.997800  0.163700  1
  C  C444  1  0.373400  0.002200  0.836300  1
  C  C445  1  0.674900  0.063000  0.177150  1
  C  C446  1  0.325100  0.937000  0.822850  1
  C  C447  1  0.673600  0.944400  0.186190  1
  C  C448  1  0.326400  0.055600  0.813810  1
  C  C449  1  0.734100  0.061900  0.148530  1
  C  C450  1  0.265900  0.938100  0.851470  1
  C  C451  1  0.734900  0.943000  0.159280  1
  C  C452  1  0.265100  0.057000  0.840720  1
  C  C453  1  0.710500  0.079000  0.241410  1
  C  C454  1  0.289500  0.921000  0.758590  1
  C  C455  1  0.711000  0.959800  0.251890  1
  C  C456  1  0.289000  0.040200  0.748110  1
  C  C457  1  0.780500  0.009800  0.171930  1
  C  C458  1  0.219500  0.990200  0.828070  1
  C  C459  1  0.756300  0.026600  0.263960  1
  C  C460  1  0.243700  0.973400  0.736040  1
  C  C461  1  0.818000  0.024300  0.236920  1
  C  C462  1  0.182000  0.975700  0.763080  1
  C  C463  1  0.954000  0.007200  0.191310  1
  C  C464  1  0.046000  0.992800  0.808690  1
  C  C465  1  0.004100  0.020800  0.161920  1
  C  C466  1  0.995900  0.979200  0.838080  1
  C  C467  1  0.049800  0.080600  0.176200  1
  C  C468  1  0.950200  0.919400  0.823800  1
  C  C469  1  0.046600  0.124810  0.219990  1
  C  C470  1  0.953400  0.875190  0.780010  1
  C  C471  1  0.995300  0.110620  0.249050  1
  C  C472  1  0.004700  0.889380  0.750950  1
  C  C473  1  0.948370  0.051410  0.233930  1
  C  C474  1  0.051630  0.948590  0.766070  1
  C  C475  1  0.890500  0.041300  0.263700  1
  C  C476  1  0.109500  0.958700  0.736300  1
  C  C477  1  0.923400  0.067790  0.326950  1
  C  C478  1  0.076600  0.932210  0.673050  1
  C  C479  1  0.973200  0.125400  0.340830  1
  C  C480  1  0.026800  0.874600  0.659170  1
  C  C481  1  0.002500  0.152900  0.398550  1
  C  C482  1  0.997500  0.847100  0.601450  1
  C  C483  1  0.984000  0.122320  0.442280  1
  C  C484  1  0.016000  0.877680  0.557720  1
  C  C485  1  0.937500  0.063200  0.428130  1
  C  C486  1  0.062500  0.936800  0.571870  1
  C  C487  1  0.909600  0.035850  0.370870  1
  C  C488  1  0.090400  0.964150  0.629130  1
  C  C489  1  0.006200  0.973500  0.115800  1
  C  C490  1  0.993800  0.026500  0.884200  1
  C  C491  1  0.009200  0.935600  0.076500  1
  C  C492  1  0.990800  0.064400  0.923500  1
  C  C493  1  0.954900  0.833500  0.014980  1
  C  C494  1  0.045100  0.166500  0.985020  1
  C  C495  1  0.005400  0.889400  0.028210  1
  C  C496  1  0.994600  0.110600  0.971790  1
  C  C497  1  0.046800  0.904100  0.992280  1
  C  C498  1  0.953200  0.095900  0.007720  1
  C  C499  1  0.038100  0.857700  0.945690  1
  C  C500  1  0.961900  0.142300  0.054310  1
  C  C501  1  0.988800  0.802200  0.936500  1
  C  C502  1  0.011200  0.197800  0.063500  1
  C  C503  1  0.918400  0.030500  0.472760  1
  C  C504  1  0.081600  0.969500  0.527240  1
  C  C505  1  0.807200  0.932000  0.533220  1
  C  C506  1  0.192800  0.068000  0.466780  1
  C  C507  1  0.872600  0.975300  0.550720  1
  C  C508  1  0.127400  0.024700  0.449280  1
  C  C509  1  0.907900  0.993000  0.609690  1
  C  C510  1  0.092100  0.007000  0.390310  1
  C  C511  1  0.877700  0.963500  0.647960  1
  C  C512  1  0.122300  0.036500  0.352040  1
  C  C513  1  0.624900  0.971700  0.540810  1
  C  C514  1  0.375100  0.028300  0.459190  1
  C  C515  1  0.326200  0.829900  0.187900  1
  C  C516  1  0.673800  0.170100  0.812100  1
  C  C517  1  0.264700  0.819900  0.130900  1
  C  C518  1  0.735300  0.180100  0.869100  1
  C  C519  1  0.324800  0.950200  0.034100  1
  C  C520  1  0.675200  0.049800  0.965900  1
  C  C521  1  0.291500  0.813300  0.078100  1
  C  C522  1  0.708500  0.186700  0.921900  1
  C  C523  1  0.246400  0.840200  0.027370  1
  C  C524  1  0.753600  0.159800  0.972630  1
  C  C525  1  0.271400  0.893400  0.999800  1
  C  C526  1  0.728600  0.106600  0.000200  1
  C  C527  1  0.467600  0.608580  0.145800  1
  C  C528  1  0.532400  0.391420  0.854200  1
  C  C529  1  0.401600  0.642500  0.115520  1
  C  C530  1  0.598400  0.357500  0.884480  1
  C  C531  1  0.537400  0.656790  0.165240  1
  C  C532  1  0.462600  0.343210  0.834760  1
  C  C533  1  0.413900  0.668600  0.062370  1
  C  C534  1  0.586100  0.331400  0.937630  1
  C  C535  1  0.549240  0.684000  0.110740  1
  C  C536  1  0.450760  0.316000  0.889260  1
  C  C537  1  0.393820  0.697600  0.156600  1
  C  C538  1  0.606180  0.302400  0.843400  1
  C  C539  1  0.529100  0.711600  0.206210  1
  C  C540  1  0.470900  0.288400  0.793790  1
  C  C541  1  0.482500  0.718060  0.081800  1
  C  C542  1  0.517500  0.281940  0.918200  1
  C  C543  1  0.466020  0.743760  0.173890  1
  C  C544  1  0.533980  0.256240  0.826110  1
  C  C545  1  0.478100  0.774180  0.122860  1
  C  C546  1  0.521900  0.225820  0.877140  1
  C  C547  1  0.544650  0.848900  0.035570  1
  C  C548  1  0.455350  0.151100  0.964430  1
  C  C549  1  0.543770  0.871200  0.982850  1
  C  C550  1  0.456230  0.128800  0.017150  1
  C  C551  1  0.491400  0.910700  0.956730  1
  C  C552  1  0.508600  0.089300  0.043270  1
  C  C553  1  0.442020  0.929000  0.984160  1
  C  C554  1  0.557980  0.071000  0.015840  1
  C  C555  1  0.442400  0.905200  0.035940  1
  C  C556  1  0.557600  0.094800  0.964060  1
  C  C557  1  0.492260  0.863460  0.061110  1
  C  C558  1  0.507740  0.136540  0.938890  1
  C  C559  1  0.484100  0.839900  0.116600  1
  C  C560  1  0.515900  0.160100  0.883400  1
  C  C561  1  0.471600  0.891030  0.154300  1
  C  C562  1  0.528400  0.108970  0.845700  1
  C  C563  1  0.425500  0.934800  0.127670  1
  C  C564  1  0.574500  0.065200  0.872330  1
  C  C565  1  0.408600  0.984000  0.161400  1
  C  C566  1  0.591400  0.016000  0.838600  1
  C  C567  1  0.438600  0.990310  0.220760  1
  C  C568  1  0.561400  0.009690  0.779240  1
  C  C569  1  0.488300  0.948800  0.247610  1
  C  C570  1  0.511700  0.051200  0.752390  1
  C  C571  1  0.506100  0.900130  0.214310  1
  C  C572  1  0.493900  0.099870  0.785690  1
  C  C573  1  0.596200  0.853600  0.955800  1
  C  C574  1  0.403800  0.146400  0.044200  1
  C  C575  1  0.637600  0.840700  0.931100  1
  C  C576  1  0.362400  0.159300  0.068900  1
  C  C577  1  0.741600  0.783400  0.931560  1
  C  C578  1  0.258400  0.216600  0.068440  1
  C  C579  1  0.686800  0.818000  0.902590  1
  C  C580  1  0.313200  0.182000  0.097410  1
  C  C581  1  0.682800  0.834100  0.847530  1
  C  C582  1  0.317200  0.165900  0.152470  1
  C  C583  1  0.734800  0.814400  0.824490  1
  C  C584  1  0.265200  0.185600  0.175510  1
  C  C585  1  0.789000  0.780700  0.856200  1
  C  C586  1  0.211000  0.219300  0.143800  1
  C  C587  1  0.521700  0.956800  0.309510  1
  C  C588  1  0.478300  0.043200  0.690490  1
  C  C589  1  0.545000  0.964700  0.360500  1
  C  C590  1  0.455000  0.035300  0.639500  1
  C  C591  1  0.605800  0.918410  0.450580  1
  C  C592  1  0.394200  0.081590  0.549420  1
  C  C593  1  0.572100  0.968500  0.423060  1
  C  C594  1  0.427900  0.031500  0.576940  1
  C  C595  1  0.565900  0.023100  0.456780  1
  C  C596  1  0.434100  0.976900  0.543220  1
  C  C597  1  0.593000  0.023900  0.516870  1
  C  C598  1  0.407000  0.976100  0.483130  1
  C  C599  1  0.532000  0.788500  0.534100  1
  C  C600  1  0.468000  0.211500  0.465900  1
  C  C601  1  0.475600  0.345900  0.179000  1
  C  C602  1  0.524400  0.654100  0.821000  1
  C  C603  1  0.525200  0.304800  0.216700  1
  C  C604  1  0.474800  0.695200  0.783300  1
  C  C605  1  0.596200  0.301700  0.204500  1
  C  C606  1  0.403800  0.698300  0.795500  1
  C  C607  1  0.592000  0.256600  0.153500  1
  C  C608  1  0.408000  0.743400  0.846500  1
  C  C609  1  0.653500  0.260700  0.129300  1
  C  C610  1  0.346500  0.739300  0.870700  1
  C  C611  1  0.681700  0.325100  0.116300  1
  C  C612  1  0.318300  0.674900  0.883700  1
  C  C613  1  0.794000  0.600600  0.346600  1
  C  C614  1  0.206000  0.399400  0.653400  1
  C  C615  1  0.895100  0.538200  0.347100  1
  C  C616  1  0.104900  0.461800  0.652900  1
  C  C617  1  0.842500  0.474500  0.330550  1
  C  C618  1  0.157500  0.525500  0.669450  1
  C  C619  1  0.856800  0.594700  0.322540  1
  C  C620  1  0.143200  0.405300  0.677460  1
  C  C621  1  0.811900  0.461900  0.264430  1
  C  C622  1  0.188100  0.538100  0.735570  1
  C  C623  1  0.825300  0.580800  0.257110  1
  C  C624  1  0.174700  0.419200  0.742890  1
  C  C625  1  0.780000  0.481200  0.354300  1
  C  C626  1  0.220000  0.518800  0.645700  1
  C  C627  1  0.772000  0.518300  0.240790  1
  C  C628  1  0.228000  0.481700  0.759210  1
  C  C629  1  0.740900  0.537100  0.329750  1
  C  C630  1  0.259100  0.462900  0.670250  1
  C  C631  1  0.708800  0.524000  0.263780  1
  C  C632  1  0.291200  0.476000  0.736220  1
  C  C633  1  0.629900  0.524900  0.127320  1
  C  C634  1  0.370100  0.475100  0.872680  1
  C  C635  1  0.604000  0.499500  0.069160  1
  C  C636  1  0.396000  0.500500  0.930840  1
  C  C637  1  0.546400  0.448500  0.050600  1
  C  C638  1  0.453600  0.551500  0.949400  1
  C  C639  1  0.518100  0.419800  0.089980  1
  C  C640  1  0.481900  0.580200  0.910020  1
  C  C641  1  0.547100  0.442100  0.148900  1
  C  C642  1  0.452900  0.557900  0.851100  1
  C  C643  1  0.605290  0.494300  0.168310  1
  C  C644  1  0.394710  0.505700  0.831690  1
  C  C645  1  0.633600  0.513900  0.232300  1
  C  C646  1  0.366400  0.486100  0.767700  1
  C  C647  1  0.573550  0.512840  0.257840  1
  C  C648  1  0.426450  0.487160  0.742160  1
  C  C649  1  0.516900  0.460300  0.236820  1
  C  C650  1  0.483100  0.539700  0.763180  1
  C  C651  1  0.461500  0.451700  0.261990  1
  C  C652  1  0.538500  0.548300  0.738010  1
  C  C653  1  0.459700  0.496700  0.305790  1
  C  C654  1  0.540300  0.503300  0.694210  1
  C  C655  1  0.512700  0.551540  0.323890  1
  C  C656  1  0.487300  0.448460  0.676110  1
  C  C657  1  0.567870  0.560120  0.298730  1
  C  C658  1  0.432130  0.439880  0.701270  1
  C  C659  1  0.633900  0.525000  0.026300  1
  C  C660  1  0.366100  0.475000  0.973700  1
  C  C661  1  0.657000  0.543200  0.990100  1
  C  C662  1  0.343000  0.456800  0.009900  1
  C  C663  1  0.752900  0.613200  0.965700  1
  C  C664  1  0.247100  0.386800  0.034300  1
  C  C665  1  0.690800  0.565200  0.948240  1
  C  C666  1  0.309200  0.434800  0.051760  1
  C  C667  1  0.666100  0.535900  0.891740  1
  C  C668  1  0.333900  0.464100  0.108260  1
  C  C669  1  0.703800  0.557000  0.855540  1
  C  C670  1  0.296200  0.443000  0.144460  1
  C  C671  1  0.763500  0.605700  0.875800  1
  C  C672  1  0.236500  0.394300  0.124200  1
  C  C673  1  0.506800  0.600700  0.366560  1
  C  C674  1  0.493200  0.399300  0.633440  1
  C  C675  1  0.504200  0.641100  0.402150  1
  C  C676  1  0.495800  0.358900  0.597850  1
  C  C677  1  0.576500  0.736500  0.470140  1
  C  C678  1  0.423500  0.263500  0.529860  1
  C  C679  1  0.512700  0.691800  0.447980  1
  C  C680  1  0.487300  0.308200  0.552020  1
  C  C681  1  0.456100  0.696600  0.471550  1
  C  C682  1  0.543900  0.303400  0.528450  1
  C  C683  1  0.466100  0.746500  0.515800  1
  C  C684  1  0.533900  0.253500  0.484200  1
  C  C685  1  0.743900  0.773730  0.288540  1
  C  C686  1  0.256100  0.226270  0.711460  1
  C  C687  1  0.764210  0.796270  0.347360  1
  C  C688  1  0.235790  0.203730  0.652640  1
  C  C689  1  0.914100  0.832200  0.256160  1
  C  C690  1  0.085900  0.167800  0.743840  1
  C  C691  1  0.834100  0.829200  0.375900  1
  C  C692  1  0.165900  0.170800  0.624100  1
  C  C693  1  0.865440  0.817000  0.287610  1
  C  C694  1  0.134560  0.183000  0.712390  1
  C  C695  1  0.884700  0.839300  0.346540  1
  C  C696  1  0.115300  0.160700  0.653460  1
  C  C697  1  0.795910  0.783600  0.259210  1
  C  C698  1  0.204090  0.216400  0.740790  1
  C  C699  1  0.895600  0.807300  0.198530  1
  C  C700  1  0.104400  0.192700  0.801470  1
  C  C701  1  0.776100  0.761900  0.199850  1
  C  C702  1  0.223900  0.238100  0.800150  1
  C  C703  1  0.826400  0.771000  0.170690  1
  C  C704  1  0.173600  0.229000  0.829310  1
  S  S705  1  0.694180  0.784920  0.381700  1
  S  S706  1  0.305820  0.215080  0.618300  1
  S  S707  1  0.795570  0.745250  0.097080  1
  S  S708  1  0.204430  0.254750  0.902920  1
  N  N709  1  0.737500  0.768900  0.572570  1
  N  N710  1  0.262500  0.231100  0.427430  1
  N  N711  1  0.935800  0.660600  0.987200  1
  N  N712  1  0.064200  0.339400  0.012800  1
  N  N713  1  0.117200  0.551700  0.426200  1
  N  N714  1  0.882800  0.448300  0.573800  1
  N  N715  1  0.775400  0.902500  0.568920  1
  N  N716  1  0.224600  0.097500  0.431080  1
  N  N717  1  0.943100  0.789800  0.970510  1
  N  N718  1  0.056900  0.210200  0.029490  1
  N  N719  1  0.993500  0.153100  0.295730  1
  N  N720  1  0.006500  0.846900  0.704270  1
  N  N721  1  0.632600  0.920400  0.506910  1
  N  N722  1  0.367400  0.079600  0.493090  1
  N  N723  1  0.790800  0.766100  0.907970  1
  N  N724  1  0.209200  0.233900  0.092030  1
  N  N725  1  0.397700  0.929700  0.065200  1
  N  N726  1  0.602300  0.070300  0.934800  1
  N  N727  1  0.585300  0.782800  0.509840  1
  N  N728  1  0.414700  0.217200  0.490160  1
  N  N729  1  0.786700  0.635400  0.928460  1
  N  N730  1  0.213300  0.364600  0.071540  1
  N  N731  1  0.517400  0.416000  0.190290  1
  N  N732  1  0.482600  0.584000  0.809710  1
  O  O733  1  0.679800  0.716600  0.383500  1
  O  O734  1  0.320200  0.283400  0.616500  1
  O  O735  1  0.721900  0.820100  0.436660  1
  O  O736  1  0.278100  0.179900  0.563340  1
  O  O737  1  0.628600  0.807700  0.345460  1
  O  O738  1  0.371400  0.192300  0.654540  1
  O  O739  1  0.733300  0.773700  0.068600  1
  O  O740  1  0.266700  0.226300  0.931400  1
  O  O741  1  0.852600  0.752300  0.075020  1
  O  O742  1  0.147400  0.247700  0.924980  1
  O  O743  1  0.768900  0.676400  0.093100  1
  O  O744  1  0.231100  0.323600  0.906900  1
  O  O745  1  0.954800  0.874000  0.378400  1
  O  O746  1  0.045200  0.126000  0.621600  1
  O  O747  1  0.979900  0.875600  0.281000  1
  O  O748  1  0.020100  0.124400  0.719000  1
  F  F749  1  0.911300  0.711700  0.810290  1
  F  F750  1  0.088700  0.288300  0.189710  1
  F  F751  1  0.809400  0.642800  0.766980  1
  F  F752  1  0.190600  0.357200  0.233020  1
  F  F753  1  0.909700  0.636800  0.742160  1
  F  F754  1  0.090300  0.363200  0.257840  1
  F  F755  1  0.906100  0.610600  0.827120  1
  F  F756  1  0.093900  0.389400  0.172880  1
  F  F757  1  0.604600  0.801300  0.671800  1
  F  F758  1  0.395400  0.198700  0.328200  1
  F  F759  1  0.611100  0.892400  0.731640  1
  F  F760  1  0.388900  0.107600  0.268360  1
  F  F761  1  0.597000  0.900000  0.635400  1
  F  F762  1  0.403000  0.100000  0.364600  1
  F  F763  1  0.706600  0.877500  0.697600  1
  F  F764  1  0.293400  0.122500  0.302400  1
  F  F765  1  0.691800  0.959300  0.681900  1
  F  F766  1  0.308200  0.040700  0.318100  1
  F  F767  1  0.656800  0.906600  0.740300  1
  F  F768  1  0.343200  0.093400  0.259700  1
  F  F769  1  0.589900  0.899900  0.653300  1
  F  F770  1  0.410100  0.100100  0.346700  1
  F  F771  1  0.687000  0.857500  0.675900  1
  F  F772  1  0.313000  0.142500  0.324100  1
