# generated using pymatgen
data_B2H82PdC86(N3F4)2
_symmetry_space_group_name_H-M   'P 1'
_cell_length_a   16.19600000
_cell_length_b   16.37500000
_cell_length_c   17.06500000
_cell_angle_alpha   74.20000000
_cell_angle_beta   62.65000000
_cell_angle_gamma   71.79000000
_symmetry_Int_Tables_number   1
_chemical_formula_structural   B2H82PdC86(N3F4)2
_chemical_formula_sum   'B4 H164 Pd2 C172 N12 F16'
_cell_volume   3773.87271006
_cell_formula_units_Z   2
loop_
 _symmetry_equiv_pos_site_id
 _symmetry_equiv_pos_as_xyz
  1  'x, y, z'
loop_
 _atom_site_type_symbol
 _atom_site_label
 _atom_site_symmetry_multiplicity
 _atom_site_fract_x
 _atom_site_fract_y
 _atom_site_fract_z
 _atom_site_occupancy
  B  B1  1  0.031700  0.031000  0.621600  1
  B  B2  1  0.968300  0.969000  0.378400  1
  B  B3  1  0.714700  0.599100  0.769300  1
  B  B4  1  0.285300  0.400900  0.230700  1
  H  H5  1  0.187200  0.267900  0.733500  1.0
  H  H6  1  0.812800  0.732100  0.266500  1.0
  H  H7  1  0.098800  0.243100  0.818700  1.0
  H  H8  1  0.901200  0.756900  0.181300  1.0
  H  H9  1  0.133500  0.204200  0.731500  1.0
  H  H10  1  0.866500  0.795800  0.268500  1.0
  H  H11  1  0.271800  0.131000  0.744100  1.0
  H  H12  1  0.728200  0.869000  0.255900  1.0
  H  H13  1  0.241500  0.171700  0.827600  1.0
  H  H14  1  0.758500  0.828300  0.172400  1.0
  H  H15  1  0.258800  0.031400  0.864200  1.0
  H  H16  1  0.741200  0.968600  0.135800  1.0
  H  H17  1  0.189100  0.029400  0.824800  1.0
  H  H18  1  0.810900  0.970600  0.175200  1.0
  H  H19  1  0.060800  0.114900  0.939200  1.0
  H  H20  1  0.939200  0.885100  0.060800  1.0
  H  H21  1  0.098600  0.019800  0.978400  1.0
  H  H22  1  0.901400  0.980200  0.021600  1.0
  H  H23  1  0.162100  0.163200  0.971700  1.0
  H  H24  1  0.837900  0.836800  0.028300  1.0
  H  H25  1  0.192000  0.068600  0.016400  1.0
  H  H26  1  0.808000  0.931400  0.983600  1.0
  H  H27  1  0.043000  0.077400  0.134300  1.0
  H  H28  1  0.957000  0.922600  0.865700  1.0
  H  H29  1  0.079100  0.159500  0.124300  1.0
  H  H30  1  0.920900  0.840500  0.875700  1.0
  H  H31  1  0.748900  0.245500  0.747800  1.0
  H  H32  1  0.251100  0.754500  0.252200  1.0
  H  H33  1  0.679000  0.186800  0.819600  1.0
  H  H34  1  0.321000  0.813200  0.180400  1.0
  H  H35  1  0.626100  0.324600  0.858100  1.0
  H  H36  1  0.373900  0.675400  0.141900  1.0
  H  H37  1  0.836900  0.109700  0.791900  1.0
  H  H38  1  0.163100  0.890300  0.208100  1.0
  H  H39  1  0.775500  0.362100  0.782900  1.0
  H  H40  1  0.224500  0.637900  0.217100  1.0
  H  H41  1  0.724900  0.385200  0.880400  1.0
  H  H42  1  0.275100  0.614800  0.119600  1.0
  H  H43  1  0.933500  0.171800  0.815300  1.0
  H  H44  1  0.066500  0.828200  0.184700  1.0
  H  H45  1  0.896700  0.236300  0.745500  1.0
  H  H46  1  0.103300  0.763700  0.254500  1.0
  H  H47  1  0.616400  0.291100  0.003600  1.0
  H  H48  1  0.383600  0.708900  0.996400  1.0
  H  H49  1  0.598700  0.213300  0.980100  1.0
  H  H50  1  0.401300  0.786700  0.019900  1.0
  H  H51  1  0.825400  0.077800  0.938000  1.0
  H  H52  1  0.174600  0.922200  0.062000  1.0
  H  H53  1  0.725900  0.084500  0.939300  1.0
  H  H54  1  0.274100  0.915500  0.060700  1.0
  H  H55  1  0.881700  0.310000  0.852300  1.0
  H  H56  1  0.118300  0.690000  0.147700  1.0
  H  H57  1  0.707600  0.161200  0.044100  1.0
  H  H58  1  0.292400  0.838800  0.955900  1.0
  H  H59  1  0.855100  0.415200  0.928300  1.0
  H  H60  1  0.144900  0.584800  0.071700  1.0
  H  H61  1  0.084400  0.425600  0.950700  1.0
  H  H62  1  0.915600  0.574400  0.049300  1.0
  H  H63  1  0.084500  0.291600  0.037600  1.0
  H  H64  1  0.915500  0.708400  0.962400  1.0
  H  H65  1  0.911500  0.091400  0.242400  1.0
  H  H66  1  0.088500  0.908600  0.757600  1.0
  H  H67  1  0.758500  0.072800  0.336500  1.0
  H  H68  1  0.241500  0.927200  0.663500  1.0
  H  H69  1  0.662000  0.232100  0.158700  1.0
  H  H70  1  0.338000  0.767900  0.841300  1.0
  H  H71  1  0.900000  0.644100  0.714400  1.0
  H  H72  1  0.100000  0.355900  0.285600  1.0
  H  H73  1  0.095900  0.687200  0.762900  1.0
  H  H74  1  0.904100  0.312800  0.237100  1.0
  H  H75  1  0.101800  0.811900  0.661900  1.0
  H  H76  1  0.898200  0.188100  0.338100  1.0
  H  H77  1  0.007500  0.853400  0.588000  1.0
  H  H78  1  0.992500  0.146600  0.412000  1.0
  H  H79  1  0.372300  0.175500  0.334900  1.0
  H  H80  1  0.627700  0.824500  0.665100  1.0
  H  H81  1  0.450300  0.071700  0.533400  1.0
  H  H82  1  0.549700  0.928300  0.466600  1.0
  H  H83  1  0.296300  0.065400  0.627800  1.0
  H  H84  1  0.703700  0.934600  0.372200  1.0
  H  H85  1  0.181500  0.113100  0.577200  1.0
  H  H86  1  0.818500  0.886900  0.422800  1.0
  H  H87  1  0.763300  0.603000  0.406600  1.0
  H  H88  1  0.236700  0.397000  0.593400  1.0
  H  H89  1  0.706400  0.699900  0.410400  1.0
  H  H90  1  0.293600  0.300100  0.589600  1.0
  H  H91  1  0.697600  0.643500  0.354900  1.0
  H  H92  1  0.302400  0.356500  0.645100  1.0
  H  H93  1  0.649900  0.574400  0.527900  1.0
  H  H94  1  0.350100  0.425600  0.472100  1.0
  H  H95  1  0.598300  0.581300  0.467700  1.0
  H  H96  1  0.401700  0.418700  0.532300  1.0
  H  H97  1  0.566300  0.714700  0.559800  1.0
  H  H98  1  0.433700  0.285300  0.440200  1.0
  H  H99  1  0.492800  0.657400  0.582900  1.0
  H  H100  1  0.507200  0.342600  0.417100  1.0
  H  H101  1  0.570100  0.766500  0.418300  1.0
  H  H102  1  0.429900  0.233500  0.581700  1.0
  H  H103  1  0.516100  0.697100  0.427200  1.0
  H  H104  1  0.483900  0.302900  0.572800  1.0
  H  H105  1  0.441000  0.824800  0.532300  1.0
  H  H106  1  0.559000  0.175200  0.467700  1.0
  H  H107  1  0.387500  0.757000  0.538500  1.0
  H  H108  1  0.612500  0.243000  0.461500  1.0
  H  H109  1  0.428900  0.901600  0.403800  1.0
  H  H110  1  0.571100  0.098400  0.596200  1.0
  H  H111  1  0.328300  0.878800  0.462600  1.0
  H  H112  1  0.671700  0.121200  0.537400  1.0
  H  H113  1  0.739500  0.351900  0.235600  1.0
  H  H114  1  0.260500  0.648100  0.764400  1.0
  H  H115  1  0.807400  0.410000  0.159600  1.0
  H  H116  1  0.192600  0.590000  0.840400  1.0
  H  H117  1  0.689300  0.404900  0.119700  1.0
  H  H118  1  0.310700  0.595100  0.880300  1.0
  H  H119  1  0.765600  0.447000  0.298600  1.0
  H  H120  1  0.234400  0.553000  0.701400  1.0
  H  H121  1  0.751400  0.531900  0.067500  1.0
  H  H122  1  0.248600  0.468100  0.932500  1.0
  H  H123  1  0.644800  0.556300  0.079300  1.0
  H  H124  1  0.355200  0.443700  0.920700  1.0
  H  H125  1  0.728600  0.594900  0.248600  1.0
  H  H126  1  0.271400  0.405100  0.751400  1.0
  H  H127  1  0.795800  0.548700  0.164400  1.0
  H  H128  1  0.204200  0.451300  0.835600  1.0
  H  H129  1  0.566600  0.388700  0.260600  1.0
  H  H130  1  0.433400  0.611300  0.739400  1.0
  H  H131  1  0.530700  0.469600  0.200300  1.0
  H  H132  1  0.469300  0.530400  0.799700  1.0
  H  H133  1  0.605800  0.505100  0.381600  1.0
  H  H134  1  0.394200  0.494900  0.618400  1.0
  H  H135  1  0.615800  0.410500  0.368600  1.0
  H  H136  1  0.384200  0.589500  0.631400  1.0
  H  H137  1  0.666100  0.650500  0.145700  1.0
  H  H138  1  0.333900  0.349500  0.854300  1.0
  H  H139  1  0.489400  0.505500  0.338700  1.0
  H  H140  1  0.510600  0.494500  0.661300  1.0
  H  H141  1  0.560900  0.747600  0.082500  1.0
  H  H142  1  0.439100  0.252400  0.917500  1.0
  H  H143  1  0.553300  0.979400  0.119200  1.0
  H  H144  1  0.446700  0.020600  0.880800  1.0
  H  H145  1  0.469300  0.944300  0.269200  1.0
  H  H146  1  0.530700  0.055700  0.730800  1.0
  H  H147  1  0.252900  0.784500  0.493600  1.0
  H  H148  1  0.747100  0.215500  0.506400  1.0
  H  H149  1  0.173400  0.674000  0.540100  1.0
  H  H150  1  0.826600  0.326000  0.459900  1.0
  H  H151  1  0.355100  0.574200  0.316300  1.0
  H  H152  1  0.644900  0.425800  0.683700  1.0
  H  H153  1  0.725200  0.818800  0.789700  1.0
  H  H154  1  0.274800  0.181200  0.210300  1.0
  H  H155  1  0.694200  0.056900  0.817800  1.0
  H  H156  1  0.305800  0.943100  0.182200  1.0
  H  H157  1  0.772400  0.092000  0.667700  1.0
  H  H158  1  0.227600  0.908000  0.332300  1.0
  H  H159  1  0.827500  0.991400  0.578100  1.0
  H  H160  1  0.172500  0.008600  0.421900  1.0
  H  H161  1  0.199100  0.361700  0.410600  1.0
  H  H162  1  0.800900  0.638300  0.589400  1.0
  H  H163  1  0.004700  0.467900  0.621100  1.0
  H  H164  1  0.995300  0.532100  0.378900  1.0
  H  H165  1  0.922200  0.362900  0.655900  1.0
  H  H166  1  0.077800  0.637100  0.344100  1.0
  H  H167  1  0.980200  0.257800  0.570800  1.0
  H  H168  1  0.019800  0.742200  0.429200  1.0
  Pd  Pd169  1  0.839550  0.799850  0.595300  1.0
  Pd  Pd170  1  0.160450  0.200150  0.404700  1.0
  C  C171  1  0.154000  0.222000  0.768000  1.0
  C  C172  1  0.846000  0.778000  0.232000  1.0
  C  C173  1  0.218000  0.147000  0.799000  1.0
  C  C174  1  0.782000  0.853000  0.201000  1.0
  C  C175  1  0.202000  0.063000  0.855000  1.0
  C  C176  1  0.798000  0.937000  0.145000  1.0
  C  C177  1  0.116000  0.075000  0.948200  1.0
  C  C178  1  0.884000  0.925000  0.051800  1.0
  C  C179  1  0.139600  0.110500  0.005100  1.0
  C  C180  1  0.860400  0.889500  0.994900  1.0
  C  C181  1  0.057800  0.131400  0.095900  1.0
  C  C182  1  0.942200  0.868600  0.904100  1.0
  C  C183  1  0.725700  0.218100  0.809700  1.0
  C  C184  1  0.274300  0.781900  0.190300  1.0
  C  C185  1  0.680500  0.285800  0.869600  1.0
  C  C186  1  0.319500  0.714200  0.130400  1.0
  C  C187  1  0.807600  0.155700  0.829300  1.0
  C  C188  1  0.192400  0.844300  0.170700  1.0
  C  C189  1  0.753000  0.337800  0.845800  1.0
  C  C190  1  0.247000  0.662200  0.154200  1.0
  C  C191  1  0.877300  0.209100  0.807400  1.0
  C  C192  1  0.122700  0.790900  0.192600  1.0
  C  C193  1  0.645700  0.246100  0.966000  1.0
  C  C194  1  0.354300  0.753900  0.034000  1.0
  C  C195  1  0.772800  0.117300  0.925300  1.0
  C  C196  1  0.227200  0.882700  0.074700  1.0
  C  C197  1  0.833900  0.277400  0.866300  1.0
  C  C198  1  0.166100  0.722600  0.133700  1.0
  C  C199  1  0.729200  0.187800  0.981200  1.0
  C  C200  1  0.270800  0.812200  0.018800  1.0
  C  C201  1  0.796700  0.242600  0.963100  1.0
  C  C202  1  0.203300  0.757400  0.036900  1.0
  C  C203  1  0.904500  0.388100  0.946600  1.0
  C  C204  1  0.095500  0.611900  0.053400  1.0
  C  C205  1  0.975000  0.429500  0.924300  1.0
  C  C206  1  0.025000  0.570500  0.075700  1.0
  C  C207  1  0.039800  0.394900  0.961300  1.0
  C  C208  1  0.960200  0.605100  0.038700  1.0
  C  C209  1  0.039400  0.315500  0.013600  1.0
  C  C210  1  0.960600  0.684500  0.986400  1.0
  C  C211  1  0.972700  0.270900  0.030800  1.0
  C  C212  1  0.027300  0.729100  0.969200  1.0
  C  C213  1  0.906100  0.306600  0.995900  1.0
  C  C214  1  0.093900  0.693400  0.004100  1.0
  C  C215  1  0.830000  0.254400  0.020700  1.0
  C  C216  1  0.170000  0.745600  0.979300  1.0
  C  C217  1  0.804400  0.208800  0.115200  1.0
  C  C218  1  0.195600  0.791200  0.884800  1.0
  C  C219  1  0.878400  0.171500  0.142400  1.0
  C  C220  1  0.121600  0.828500  0.857600  1.0
  C  C221  1  0.861600  0.119000  0.225100  1.0
  C  C222  1  0.138400  0.881000  0.774900  1.0
  C  C223  1  0.769900  0.108200  0.281400  1.0
  C  C224  1  0.230100  0.891800  0.718600  1.0
  C  C225  1  0.695600  0.149500  0.256400  1.0
  C  C226  1  0.304400  0.850500  0.743600  1.0
  C  C227  1  0.712700  0.201700  0.174300  1.0
  C  C228  1  0.287300  0.798300  0.825700  1.0
  C  C229  1  0.980900  0.511400  0.861400  1.0
  C  C230  1  0.019100  0.488600  0.138600  1.0
  C  C231  1  0.989200  0.573900  0.810700  1.0
  C  C232  1  0.010800  0.426100  0.189300  1.0
  C  C233  1  0.939000  0.680900  0.703600  1.0
  C  C234  1  0.061000  0.319100  0.296400  1.0
  C  C235  1  0.995700  0.655900  0.748000  1.0
  C  C236  1  0.004300  0.344100  0.252000  1.0
  C  C237  1  0.056500  0.704400  0.732700  1.0
  C  C238  1  0.943500  0.295600  0.267300  1.0
  C  C239  1  0.059800  0.778100  0.673000  1.0
  C  C240  1  0.940200  0.221900  0.327000  1.0
  C  C241  1  0.002400  0.802900  0.629600  1.0
  C  C242  1  0.997600  0.197100  0.370400  1.0
  C  C243  1  0.600600  0.137000  0.313700  1.0
  C  C244  1  0.399400  0.863000  0.686300  1.0
  C  C245  1  0.521100  0.128900  0.364600  1.0
  C  C246  1  0.478900  0.871100  0.635400  1.0
  C  C247  1  0.355300  0.154500  0.395400  1.0
  C  C248  1  0.644700  0.845500  0.604600  1.0
  C  C249  1  0.424200  0.124300  0.425200  1.0
  C  C250  1  0.575800  0.875700  0.574800  1.0
  C  C251  1  0.402800  0.091700  0.512200  1.0
  C  C252  1  0.597200  0.908300  0.487800  1.0
  C  C253  1  0.311700  0.088400  0.567800  1.0
  C  C254  1  0.688300  0.911600  0.432200  1.0
  C  C255  1  0.243200  0.118200  0.537400  1.0
  C  C256  1  0.756800  0.881800  0.462600  1.0
  C  C257  1  0.705000  0.643000  0.408000  1.0
  C  C258  1  0.295000  0.357000  0.592000  1.0
  C  C259  1  0.624800  0.614000  0.486300  1.0
  C  C260  1  0.375200  0.386000  0.513700  1.0
  C  C261  1  0.545000  0.682000  0.536000  1.0
  C  C262  1  0.455000  0.318000  0.464000  1.0
  C  C263  1  0.521400  0.734000  0.459400  1.0
  C  C264  1  0.478600  0.266000  0.540600  1.0
  C  C265  1  0.434200  0.791000  0.497600  1.0
  C  C266  1  0.565800  0.209000  0.502400  1.0
  C  C267  1  0.395600  0.854300  0.431700  1.0
  C  C268  1  0.604400  0.145700  0.568300  1.0
  C  C269  1  0.743100  0.410900  0.204900  1.0
  C  C270  1  0.256900  0.589100  0.795100  1.0
  C  C271  1  0.674100  0.443500  0.161700  1.0
  C  C272  1  0.325900  0.556500  0.838300  1.0
  C  C273  1  0.720800  0.468100  0.270100  1.0
  C  C274  1  0.279200  0.531900  0.729900  1.0
  C  C275  1  0.686100  0.533900  0.110800  1.0
  C  C276  1  0.313900  0.466100  0.889200  1.0
  C  C277  1  0.733100  0.555100  0.213200  1.0
  C  C278  1  0.266900  0.444900  0.786800  1.0
  C  C279  1  0.574500  0.446700  0.229200  1.0
  C  C280  1  0.425500  0.553300  0.770800  1.0
  C  C281  1  0.621600  0.469100  0.337800  1.0
  C  C282  1  0.378400  0.530900  0.662200  1.0
  C  C283  1  0.660400  0.591400  0.177000  1.0
  C  C284  1  0.339600  0.408600  0.823000  1.0
  C  C285  1  0.554500  0.504100  0.293000  1.0
  C  C286  1  0.445500  0.495900  0.707000  1.0
  C  C287  1  0.559900  0.592800  0.242700  1.0
  C  C288  1  0.440100  0.407200  0.757300  1.0
  C  C289  1  0.546200  0.785900  0.120800  1.0
  C  C290  1  0.453800  0.214100  0.879200  1.0
  C  C291  1  0.568700  0.865200  0.086700  1.0
  C  C292  1  0.431300  0.134800  0.913300  1.0
  C  C293  1  0.539500  0.924500  0.142500  1.0
  C  C294  1  0.460500  0.075500  0.857500  1.0
  C  C295  1  0.490500  0.903300  0.231700  1.0
  C  C296  1  0.509500  0.096700  0.768300  1.0
  C  C297  1  0.472100  0.821500  0.266900  1.0
  C  C298  1  0.527900  0.178500  0.733100  1.0
  C  C299  1  0.502300  0.762000  0.211000  1.0
  C  C300  1  0.497700  0.238000  0.789000  1.0
  C  C301  1  0.488900  0.673600  0.254900  1.0
  C  C302  1  0.511100  0.326400  0.745100  1.0
  C  C303  1  0.393200  0.672500  0.332400  1.0
  C  C304  1  0.606800  0.327500  0.667600  1.0
  C  C305  1  0.361700  0.736200  0.384700  1.0
  C  C306  1  0.638300  0.263800  0.615300  1.0
  C  C307  1  0.276300  0.739300  0.460500  1.0
  C  C308  1  0.723700  0.260700  0.539500  1.0
  C  C309  1  0.226800  0.675600  0.486200  1.0
  C  C310  1  0.773200  0.324400  0.513800  1.0
  C  C311  1  0.255700  0.613500  0.432400  1.0
  C  C312  1  0.744300  0.386500  0.567600  1.0
  C  C313  1  0.337400  0.613700  0.354300  1.0
  C  C314  1  0.662600  0.386300  0.645700  1.0
  C  C315  1  0.614700  0.886700  0.989800  1.0
  C  C316  1  0.385300  0.113300  0.010200  1.0
  C  C317  1  0.649200  0.911400  0.913600  1.0
  C  C318  1  0.350800  0.088600  0.086400  1.0
  C  C319  1  0.736400  0.874000  0.762100  1.0
  C  C320  1  0.263600  0.126000  0.237900  1.0
  C  C321  1  0.700200  0.934700  0.816400  1.0
  C  C322  1  0.299800  0.065300  0.183600  1.0
  C  C323  1  0.715900  0.015300  0.780900  1.0
  C  C324  1  0.284100  0.984700  0.219100  1.0
  C  C325  1  0.763000  0.035800  0.692400  1.0
  C  C326  1  0.237000  0.964200  0.307600  1.0
  C  C327  1  0.796600  0.974600  0.639200  1.0
  C  C328  1  0.203400  0.025400  0.360800  1.0
  C  C329  1  0.203800  0.546700  0.461100  1.0
  C  C330  1  0.796200  0.453300  0.538900  1.0
  C  C331  1  0.159900  0.491300  0.484300  1.0
  C  C332  1  0.840100  0.508700  0.515700  1.0
  C  C333  1  0.143700  0.359100  0.462500  1.0
  C  C334  1  0.856300  0.640900  0.537500  1.0
  C  C335  1  0.110700  0.423000  0.512200  1.0
  C  C336  1  0.889300  0.577000  0.487800  1.0
  C  C337  1  0.028100  0.424800  0.585600  1.0
  C  C338  1  0.971900  0.575200  0.414400  1.0
  C  C339  1  0.980100  0.362200  0.606300  1.0
  C  C340  1  0.019900  0.637800  0.393700  1.0
  C  C341  1  0.015200  0.299300  0.556100  1.0
  C  C342  1  0.984800  0.700700  0.443900  1.0
  N  N343  1  0.258900  0.156000  0.450500  1.0
  N  N344  1  0.741100  0.844000  0.549500  1.0
  N  N345  1  0.968100  0.189800  0.087100  1.0
  N  N346  1  0.031900  0.810200  0.912900  1.0
  N  N347  1  0.933800  0.756100  0.643600  1.0
  N  N348  1  0.066200  0.243900  0.356400  1.0
  N  N349  1  0.104300  0.293800  0.481000  1.0
  N  N350  1  0.895700  0.706200  0.519000  1.0
  N  N351  1  0.411400  0.802000  0.357600  1.0
  N  N352  1  0.588600  0.198000  0.642400  1.0
  N  N353  1  0.788200  0.883800  0.670400  1.0
  N  N354  1  0.211800  0.116200  0.329600  1.0
  F  F355  1  0.967700  0.983200  0.682200  1
  F  F356  1  0.032300  0.016800  0.317800  1
  F  F357  1  0.998100  0.084600  0.562900  1
  F  F358  1  0.001900  0.915400  0.437100  1
  F  F359  1  0.046000  0.078800  0.666000  1
  F  F360  1  0.954000  0.921200  0.334000  1
  F  F361  1  0.115100  0.977800  0.577200  1
  F  F362  1  0.884900  0.022200  0.422800  1
  F  F363  1  0.805700  0.550300  0.739000  1
  F  F364  1  0.194300  0.449700  0.261000  1
  F  F365  1  0.712600  0.685500  0.744800  1
  F  F366  1  0.287400  0.314500  0.255200  1
  F  F367  1  0.672300  0.580500  0.858900  1
  F  F368  1  0.327700  0.419500  0.141100  1
  F  F369  1  0.665500  0.578100  0.733600  1
  F  F370  1  0.334500  0.421900  0.266400  1
