# generated using pymatgen
data_P2H94RhC79N5ClO5
_symmetry_space_group_name_H-M   'P 1'
_cell_length_a   17.26460000
_cell_length_b   19.79620000
_cell_length_c   24.11390000
_cell_angle_alpha   90.00000000
_cell_angle_beta   90.00000000
_cell_angle_gamma   90.00000000
_symmetry_Int_Tables_number   1
_chemical_formula_structural   P2H94RhC79N5ClO5
_chemical_formula_sum   'P8 H376 Rh4 C316 N20 Cl4 O20'
_cell_volume   8241.49138723
_cell_formula_units_Z   4
loop_
 _symmetry_equiv_pos_site_id
 _symmetry_equiv_pos_as_xyz
  1  'x, y, z'
loop_
 _atom_site_type_symbol
 _atom_site_label
 _atom_site_symmetry_multiplicity
 _atom_site_fract_x
 _atom_site_fract_y
 _atom_site_fract_z
 _atom_site_occupancy
  P  P1  1  0.445220  0.413880  0.346400  1.0
  P  P2  1  0.945220  0.086120  0.653600  1.0
  P  P3  1  0.054780  0.913880  0.153600  1.0
  P  P4  1  0.554780  0.586120  0.846400  1.0
  P  P5  1  0.554780  0.586120  0.653600  1.0
  P  P6  1  0.054780  0.913880  0.346400  1.0
  P  P7  1  0.945220  0.086120  0.846400  1.0
  P  P8  1  0.445220  0.413880  0.153600  1.0
  H  H9  1  0.684000  0.497300  0.250000  1
  H  H10  1  0.184000  0.002700  0.750000  1
  H  H11  1  0.816000  0.997300  0.250000  1
  H  H12  1  0.316000  0.502700  0.750000  1
  H  H13  1  0.618400  0.349600  0.250000  1
  H  H14  1  0.118400  0.150400  0.750000  1
  H  H15  1  0.881600  0.849600  0.250000  1
  H  H16  1  0.381600  0.650400  0.750000  1
  H  H17  1  0.196600  0.136500  0.250000  1
  H  H18  1  0.696600  0.363500  0.750000  1
  H  H19  1  0.303400  0.636500  0.250000  1
  H  H20  1  0.803400  0.863500  0.750000  1
  H  H21  1  0.119600  0.479200  0.250000  1
  H  H22  1  0.619600  0.020800  0.750000  1
  H  H23  1  0.380400  0.979200  0.250000  1
  H  H24  1  0.880400  0.520800  0.750000  1
  H  H25  1  0.019700  0.555800  0.288900  1
  H  H26  1  0.519700  0.944200  0.711100  1
  H  H27  1  0.480300  0.055800  0.211100  1
  H  H28  1  0.980300  0.444200  0.788900  1
  H  H29  1  0.980300  0.444200  0.711100  1
  H  H30  1  0.480300  0.055800  0.288900  1
  H  H31  1  0.519700  0.944200  0.788900  1
  H  H32  1  0.019700  0.555800  0.211100  1
  H  H33  1  0.970500  0.535200  0.235600  1
  H  H34  1  0.470500  0.964800  0.764400  1
  H  H35  1  0.529500  0.035200  0.264400  1
  H  H36  1  0.029500  0.464800  0.735600  1
  H  H37  1  0.029500  0.464800  0.764400  1
  H  H38  1  0.529500  0.035200  0.235600  1
  H  H39  1  0.470500  0.964800  0.735600  1
  H  H40  1  0.970500  0.535200  0.264400  1
  H  H41  1  0.029400  0.632300  0.222300  1
  H  H42  1  0.529400  0.867700  0.777700  1
  H  H43  1  0.470600  0.132300  0.277700  1
  H  H44  1  0.970600  0.367700  0.722300  1
  H  H45  1  0.970600  0.367700  0.777700  1
  H  H46  1  0.470600  0.132300  0.222300  1
  H  H47  1  0.529400  0.867700  0.722300  1
  H  H48  1  0.029400  0.632300  0.277700  1
  H  H49  1  0.111800  0.598600  0.234800  1
  H  H50  1  0.611800  0.901400  0.765200  1
  H  H51  1  0.388200  0.098600  0.265200  1
  H  H52  1  0.888200  0.401400  0.734800  1
  H  H53  1  0.888200  0.401400  0.765200  1
  H  H54  1  0.388200  0.098600  0.234800  1
  H  H55  1  0.611800  0.901400  0.734800  1
  H  H56  1  0.111800  0.598600  0.265200  1
  H  H57  1  0.063900  0.576700  0.180900  1
  H  H58  1  0.563900  0.923300  0.819100  1
  H  H59  1  0.436100  0.076700  0.319100  1
  H  H60  1  0.936100  0.423300  0.680900  1
  H  H61  1  0.936100  0.423300  0.819100  1
  H  H62  1  0.436100  0.076700  0.180900  1
  H  H63  1  0.563900  0.923300  0.680900  1
  H  H64  1  0.063900  0.576700  0.319100  1
  H  H65  1  0.726200  0.556000  0.217100  1.0
  H  H66  1  0.226200  0.944000  0.782900  1.0
  H  H67  1  0.773800  0.056000  0.282900  1.0
  H  H68  1  0.273800  0.444000  0.717100  1.0
  H  H69  1  0.273800  0.444000  0.782900  1.0
  H  H70  1  0.773800  0.056000  0.217100  1.0
  H  H71  1  0.226200  0.944000  0.717100  1.0
  H  H72  1  0.726200  0.556000  0.282900  1.0
  H  H73  1  0.876400  0.306100  0.216900  1.0
  H  H74  1  0.376400  0.193900  0.783100  1.0
  H  H75  1  0.623600  0.806100  0.283100  1.0
  H  H76  1  0.123600  0.693900  0.716900  1.0
  H  H77  1  0.123600  0.693900  0.783100  1.0
  H  H78  1  0.623600  0.806100  0.216900  1.0
  H  H79  1  0.376400  0.193900  0.716900  1.0
  H  H80  1  0.876400  0.306100  0.283100  1.0
  H  H81  1  0.770600  0.230300  0.216700  1.0
  H  H82  1  0.270600  0.269700  0.783300  1.0
  H  H83  1  0.729400  0.730300  0.283300  1.0
  H  H84  1  0.229400  0.769700  0.716700  1.0
  H  H85  1  0.229400  0.769700  0.783300  1.0
  H  H86  1  0.729400  0.730300  0.216700  1.0
  H  H87  1  0.270600  0.269700  0.716700  1.0
  H  H88  1  0.770600  0.230300  0.283300  1.0
  H  H89  1  0.744400  0.348600  0.216800  1.0
  H  H90  1  0.244400  0.151400  0.783200  1.0
  H  H91  1  0.755600  0.848600  0.283200  1.0
  H  H92  1  0.255600  0.651400  0.716800  1.0
  H  H93  1  0.255600  0.651400  0.783200  1.0
  H  H94  1  0.755600  0.848600  0.216800  1.0
  H  H95  1  0.244400  0.151400  0.716800  1.0
  H  H96  1  0.744400  0.348600  0.283200  1.0
  H  H97  1  0.632700  0.282400  0.217600  1.0
  H  H98  1  0.132700  0.217600  0.782400  1.0
  H  H99  1  0.867300  0.782400  0.282400  1.0
  H  H100  1  0.367300  0.717600  0.717600  1.0
  H  H101  1  0.367300  0.717600  0.782400  1.0
  H  H102  1  0.867300  0.782400  0.217600  1.0
  H  H103  1  0.132700  0.217600  0.717600  1.0
  H  H104  1  0.632700  0.282400  0.282400  1.0
  H  H105  1  0.010100  0.280300  0.283100  1.0
  H  H106  1  0.510100  0.219700  0.716900  1.0
  H  H107  1  0.489900  0.780300  0.216900  1.0
  H  H108  1  0.989900  0.719700  0.783100  1.0
  H  H109  1  0.989900  0.719700  0.716900  1.0
  H  H110  1  0.489900  0.780300  0.283100  1.0
  H  H111  1  0.510100  0.219700  0.783100  1.0
  H  H112  1  0.010100  0.280300  0.216900  1.0
  H  H113  1  0.065300  0.171000  0.216900  1.0
  H  H114  1  0.565300  0.329000  0.783100  1.0
  H  H115  1  0.434700  0.671000  0.283100  1.0
  H  H116  1  0.934700  0.829000  0.716900  1.0
  H  H117  1  0.934700  0.829000  0.783100  1.0
  H  H118  1  0.434700  0.671000  0.216900  1.0
  H  H119  1  0.565300  0.329000  0.716900  1.0
  H  H120  1  0.065300  0.171000  0.283100  1.0
  H  H121  1  0.152200  0.259300  0.217000  1.0
  H  H122  1  0.652200  0.240700  0.783000  1.0
  H  H123  1  0.347800  0.759300  0.283000  1.0
  H  H124  1  0.847800  0.740700  0.717000  1.0
  H  H125  1  0.847800  0.740700  0.783000  1.0
  H  H126  1  0.347800  0.759300  0.217000  1.0
  H  H127  1  0.652200  0.240700  0.717000  1.0
  H  H128  1  0.152200  0.259300  0.283000  1.0
  H  H129  1  0.246200  0.189500  0.217600  1.0
  H  H130  1  0.746200  0.310500  0.782400  1.0
  H  H131  1  0.253800  0.689500  0.282400  1.0
  H  H132  1  0.753800  0.810500  0.717600  1.0
  H  H133  1  0.753800  0.810500  0.782400  1.0
  H  H134  1  0.253800  0.689500  0.217600  1.0
  H  H135  1  0.746200  0.310500  0.717600  1.0
  H  H136  1  0.246200  0.189500  0.282400  1.0
  H  H137  1  0.950400  0.136300  0.297800  1.0
  H  H138  1  0.450400  0.363700  0.702200  1.0
  H  H139  1  0.549600  0.636300  0.202200  1.0
  H  H140  1  0.049600  0.863700  0.797800  1.0
  H  H141  1  0.049600  0.863700  0.702200  1.0
  H  H142  1  0.549600  0.636300  0.297800  1.0
  H  H143  1  0.450400  0.363700  0.797800  1.0
  H  H144  1  0.950400  0.136300  0.202200  1.0
  H  H145  1  0.860400  0.154300  0.298300  1.0
  H  H146  1  0.360400  0.345700  0.701700  1.0
  H  H147  1  0.639600  0.654300  0.201700  1.0
  H  H148  1  0.139600  0.845700  0.798300  1.0
  H  H149  1  0.139600  0.845700  0.701700  1.0
  H  H150  1  0.639600  0.654300  0.298300  1.0
  H  H151  1  0.360400  0.345700  0.798300  1.0
  H  H152  1  0.860400  0.154300  0.201700  1.0
  H  H153  1  0.972200  0.230900  0.358100  1.0
  H  H154  1  0.472200  0.269100  0.641900  1.0
  H  H155  1  0.527800  0.730900  0.141900  1.0
  H  H156  1  0.027800  0.769100  0.858100  1.0
  H  H157  1  0.027800  0.769100  0.641900  1.0
  H  H158  1  0.527800  0.730900  0.358100  1.0
  H  H159  1  0.472200  0.269100  0.858100  1.0
  H  H160  1  0.972200  0.230900  0.141900  1.0
  H  H161  1  0.880100  0.239900  0.362300  1.0
  H  H162  1  0.380100  0.260100  0.637700  1.0
  H  H163  1  0.619900  0.739900  0.137700  1.0
  H  H164  1  0.119900  0.760100  0.862300  1.0
  H  H165  1  0.119900  0.760100  0.637700  1.0
  H  H166  1  0.619900  0.739900  0.362300  1.0
  H  H167  1  0.380100  0.260100  0.862300  1.0
  H  H168  1  0.880100  0.239900  0.137700  1.0
  H  H169  1  0.936400  0.173300  0.438300  1.0
  H  H170  1  0.436400  0.326700  0.561700  1.0
  H  H171  1  0.563600  0.673300  0.061700  1.0
  H  H172  1  0.063600  0.826700  0.938300  1.0
  H  H173  1  0.063600  0.826700  0.561700  1.0
  H  H174  1  0.563600  0.673300  0.438300  1.0
  H  H175  1  0.436400  0.326700  0.938300  1.0
  H  H176  1  0.936400  0.173300  0.061700  1.0
  H  H177  1  0.955800  0.115700  0.393800  1.0
  H  H178  1  0.455800  0.384300  0.606200  1.0
  H  H179  1  0.544200  0.615700  0.106200  1.0
  H  H180  1  0.044200  0.884300  0.893800  1.0
  H  H181  1  0.044200  0.884300  0.606200  1.0
  H  H182  1  0.544200  0.615700  0.393800  1.0
  H  H183  1  0.455800  0.384300  0.893800  1.0
  H  H184  1  0.955800  0.115700  0.106200  1.0
  H  H185  1  0.825400  0.099700  0.376400  1.0
  H  H186  1  0.325400  0.400300  0.623600  1.0
  H  H187  1  0.674600  0.599700  0.123600  1.0
  H  H188  1  0.174600  0.900300  0.876400  1.0
  H  H189  1  0.174600  0.900300  0.623600  1.0
  H  H190  1  0.674600  0.599700  0.376400  1.0
  H  H191  1  0.325400  0.400300  0.876400  1.0
  H  H192  1  0.825400  0.099700  0.123600  1.0
  H  H193  1  0.839800  0.093400  0.441800  1.0
  H  H194  1  0.339800  0.406600  0.558200  1.0
  H  H195  1  0.660200  0.593400  0.058200  1.0
  H  H196  1  0.160200  0.906600  0.941800  1.0
  H  H197  1  0.160200  0.906600  0.558200  1.0
  H  H198  1  0.660200  0.593400  0.441800  1.0
  H  H199  1  0.339800  0.406600  0.941800  1.0
  H  H200  1  0.839800  0.093400  0.058200  1.0
  H  H201  1  0.803500  0.161100  0.416500  1.0
  H  H202  1  0.303500  0.338900  0.583500  1.0
  H  H203  1  0.696500  0.661100  0.083500  1.0
  H  H204  1  0.196500  0.838900  0.916500  1.0
  H  H205  1  0.196500  0.838900  0.583500  1.0
  H  H206  1  0.696500  0.661100  0.416500  1.0
  H  H207  1  0.303500  0.338900  0.916500  1.0
  H  H208  1  0.803500  0.161100  0.083500  1.0
  H  H209  1  0.830500  0.412000  0.371500  1.0
  H  H210  1  0.330500  0.088000  0.628500  1.0
  H  H211  1  0.669500  0.912000  0.128500  1.0
  H  H212  1  0.169500  0.588000  0.871500  1.0
  H  H213  1  0.169500  0.588000  0.628500  1.0
  H  H214  1  0.669500  0.912000  0.371500  1.0
  H  H215  1  0.330500  0.088000  0.871500  1.0
  H  H216  1  0.830500  0.412000  0.128500  1.0
  H  H217  1  0.930200  0.435300  0.306600  1.0
  H  H218  1  0.430200  0.064700  0.693400  1.0
  H  H219  1  0.569800  0.935300  0.193400  1.0
  H  H220  1  0.069800  0.564700  0.806600  1.0
  H  H221  1  0.069800  0.564700  0.693400  1.0
  H  H222  1  0.569800  0.935300  0.306600  1.0
  H  H223  1  0.430200  0.064700  0.806600  1.0
  H  H224  1  0.930200  0.435300  0.193400  1.0
  H  H225  1  0.202600  0.415900  0.296100  1.0
  H  H226  1  0.702600  0.084100  0.703900  1.0
  H  H227  1  0.297400  0.915900  0.203900  1.0
  H  H228  1  0.797400  0.584100  0.796100  1.0
  H  H229  1  0.797400  0.584100  0.703900  1.0
  H  H230  1  0.297400  0.915900  0.296100  1.0
  H  H231  1  0.702600  0.084100  0.796100  1.0
  H  H232  1  0.202600  0.415900  0.203900  1.0
  H  H233  1  0.208600  0.429800  0.361400  1.0
  H  H234  1  0.708600  0.070200  0.638600  1.0
  H  H235  1  0.291400  0.929800  0.138600  1.0
  H  H236  1  0.791400  0.570200  0.861400  1.0
  H  H237  1  0.791400  0.570200  0.638600  1.0
  H  H238  1  0.291400  0.929800  0.361400  1.0
  H  H239  1  0.708600  0.070200  0.861400  1.0
  H  H240  1  0.208600  0.429800  0.138600  1.0
  H  H241  1  0.206200  0.353900  0.338600  1.0
  H  H242  1  0.706200  0.146100  0.661400  1.0
  H  H243  1  0.293800  0.853900  0.161400  1.0
  H  H244  1  0.793800  0.646100  0.838600  1.0
  H  H245  1  0.793800  0.646100  0.661400  1.0
  H  H246  1  0.293800  0.853900  0.338600  1.0
  H  H247  1  0.706200  0.146100  0.838600  1.0
  H  H248  1  0.206200  0.353900  0.161400  1.0
  H  H249  1  0.130000  0.321500  0.433800  1.0
  H  H250  1  0.630000  0.178500  0.566200  1.0
  H  H251  1  0.370000  0.821500  0.066200  1.0
  H  H252  1  0.870000  0.678500  0.933800  1.0
  H  H253  1  0.870000  0.678500  0.566200  1.0
  H  H254  1  0.370000  0.821500  0.433800  1.0
  H  H255  1  0.630000  0.178500  0.933800  1.0
  H  H256  1  0.130000  0.321500  0.066200  1.0
  H  H257  1  0.034900  0.289600  0.496500  1.0
  H  H258  1  0.534900  0.210400  0.503500  1.0
  H  H259  1  0.465100  0.789600  0.003500  1.0
  H  H260  1  0.965100  0.710400  0.996500  1.0
  H  H261  1  0.965100  0.710400  0.503500  1.0
  H  H262  1  0.465100  0.789600  0.496500  1.0
  H  H263  1  0.534900  0.210400  0.996500  1.0
  H  H264  1  0.034900  0.289600  0.003500  1.0
  H  H265  1  0.904900  0.318200  0.482200  1.0
  H  H266  1  0.404900  0.181800  0.517800  1.0
  H  H267  1  0.595100  0.818200  0.017800  1.0
  H  H268  1  0.095100  0.681800  0.982200  1.0
  H  H269  1  0.095100  0.681800  0.517800  1.0
  H  H270  1  0.595100  0.818200  0.482200  1.0
  H  H271  1  0.404900  0.181800  0.982200  1.0
  H  H272  1  0.904900  0.318200  0.017800  1.0
  H  H273  1  0.719000  0.462000  0.367900  1.0
  H  H274  1  0.219000  0.038000  0.632100  1.0
  H  H275  1  0.781000  0.962000  0.132100  1.0
  H  H276  1  0.281000  0.538000  0.867900  1.0
  H  H277  1  0.281000  0.538000  0.632100  1.0
  H  H278  1  0.781000  0.962000  0.367900  1.0
  H  H279  1  0.219000  0.038000  0.867900  1.0
  H  H280  1  0.719000  0.462000  0.132100  1.0
  H  H281  1  0.590800  0.485400  0.342900  1.0
  H  H282  1  0.090800  0.014600  0.657100  1.0
  H  H283  1  0.909200  0.985400  0.157100  1.0
  H  H284  1  0.409200  0.514600  0.842900  1.0
  H  H285  1  0.409200  0.514600  0.657100  1.0
  H  H286  1  0.909200  0.985400  0.342900  1.0
  H  H287  1  0.090800  0.014600  0.842900  1.0
  H  H288  1  0.590800  0.485400  0.157100  1.0
  H  H289  1  0.523400  0.307700  0.409400  1.0
  H  H290  1  0.023400  0.192300  0.590600  1.0
  H  H291  1  0.976600  0.807700  0.090600  1.0
  H  H292  1  0.476600  0.692300  0.909400  1.0
  H  H293  1  0.476600  0.692300  0.590600  1.0
  H  H294  1  0.976600  0.807700  0.409400  1.0
  H  H295  1  0.023400  0.192300  0.909400  1.0
  H  H296  1  0.523400  0.307700  0.090600  1.0
  H  H297  1  0.650900  0.284900  0.434200  1.0
  H  H298  1  0.150900  0.215100  0.565800  1.0
  H  H299  1  0.849100  0.784900  0.065800  1.0
  H  H300  1  0.349100  0.715100  0.934200  1.0
  H  H301  1  0.349100  0.715100  0.565800  1.0
  H  H302  1  0.849100  0.784900  0.434200  1.0
  H  H303  1  0.150900  0.215100  0.934200  1.0
  H  H304  1  0.650900  0.284900  0.065800  1.0
  H  H305  1  0.459200  0.463400  0.459400  1.0
  H  H306  1  0.959200  0.036600  0.540600  1.0
  H  H307  1  0.040800  0.963400  0.040600  1.0
  H  H308  1  0.540800  0.536600  0.959400  1.0
  H  H309  1  0.540800  0.536600  0.540600  1.0
  H  H310  1  0.040800  0.963400  0.459400  1.0
  H  H311  1  0.959200  0.036600  0.959400  1.0
  H  H312  1  0.459200  0.463400  0.040600  1.0
  H  H313  1  0.411000  0.555300  0.507900  1.0
  H  H314  1  0.911000  0.944700  0.492100  1.0
  H  H315  1  0.089000  0.055300  0.992100  1.0
  H  H316  1  0.589000  0.444700  0.007900  1.0
  H  H317  1  0.589000  0.444700  0.492100  1.0
  H  H318  1  0.089000  0.055300  0.507900  1.0
  H  H319  1  0.911000  0.944700  0.007900  1.0
  H  H320  1  0.411000  0.555300  0.992100  1.0
  H  H321  1  0.339900  0.638600  0.461500  1.0
  H  H322  1  0.839900  0.861400  0.538500  1.0
  H  H323  1  0.160100  0.138600  0.038500  1.0
  H  H324  1  0.660100  0.361400  0.961500  1.0
  H  H325  1  0.660100  0.361400  0.538500  1.0
  H  H326  1  0.160100  0.138600  0.461500  1.0
  H  H327  1  0.839900  0.861400  0.961500  1.0
  H  H328  1  0.339900  0.638600  0.038500  1.0
  H  H329  1  0.314100  0.626800  0.367300  1.0
  H  H330  1  0.814100  0.873200  0.632700  1.0
  H  H331  1  0.185900  0.126800  0.132700  1.0
  H  H332  1  0.685900  0.373200  0.867300  1.0
  H  H333  1  0.685900  0.373200  0.632700  1.0
  H  H334  1  0.185900  0.126800  0.367300  1.0
  H  H335  1  0.814100  0.873200  0.867300  1.0
  H  H336  1  0.314100  0.626800  0.132700  1.0
  H  H337  1  0.359100  0.531900  0.319000  1.0
  H  H338  1  0.859100  0.968100  0.681000  1.0
  H  H339  1  0.140900  0.031900  0.181000  1.0
  H  H340  1  0.640900  0.468100  0.819000  1.0
  H  H341  1  0.640900  0.468100  0.681000  1.0
  H  H342  1  0.140900  0.031900  0.319000  1.0
  H  H343  1  0.859100  0.968100  0.819000  1.0
  H  H344  1  0.359100  0.531900  0.181000  1.0
  H  H345  1  0.332700  0.393800  0.437800  1.0
  H  H346  1  0.832700  0.106200  0.562200  1.0
  H  H347  1  0.167300  0.893800  0.062200  1.0
  H  H348  1  0.667300  0.606200  0.937800  1.0
  H  H349  1  0.667300  0.606200  0.562200  1.0
  H  H350  1  0.167300  0.893800  0.437800  1.0
  H  H351  1  0.832700  0.106200  0.937800  1.0
  H  H352  1  0.332700  0.393800  0.062200  1.0
  H  H353  1  0.271100  0.299200  0.475000  1.0
  H  H354  1  0.771100  0.200800  0.525000  1.0
  H  H355  1  0.228900  0.799200  0.025000  1.0
  H  H356  1  0.728900  0.700800  0.975000  1.0
  H  H357  1  0.728900  0.700800  0.525000  1.0
  H  H358  1  0.228900  0.799200  0.475000  1.0
  H  H359  1  0.771100  0.200800  0.975000  1.0
  H  H360  1  0.271100  0.299200  0.025000  1.0
  H  H361  1  0.291400  0.193300  0.437800  1.0
  H  H362  1  0.791400  0.306700  0.562200  1.0
  H  H363  1  0.208600  0.693300  0.062200  1.0
  H  H364  1  0.708600  0.806700  0.937800  1.0
  H  H365  1  0.708600  0.806700  0.562200  1.0
  H  H366  1  0.208600  0.693300  0.437800  1.0
  H  H367  1  0.791400  0.306700  0.937800  1.0
  H  H368  1  0.291400  0.193300  0.062200  1.0
  H  H369  1  0.374500  0.179900  0.362200  1.0
  H  H370  1  0.874500  0.320100  0.637800  1.0
  H  H371  1  0.125500  0.679900  0.137800  1.0
  H  H372  1  0.625500  0.820100  0.862200  1.0
  H  H373  1  0.625500  0.820100  0.637800  1.0
  H  H374  1  0.125500  0.679900  0.362200  1.0
  H  H375  1  0.874500  0.320100  0.862200  1.0
  H  H376  1  0.374500  0.179900  0.137800  1.0
  H  H377  1  0.435500  0.273700  0.323500  1.0
  H  H378  1  0.935500  0.226300  0.676500  1.0
  H  H379  1  0.064500  0.773700  0.176500  1.0
  H  H380  1  0.564500  0.726300  0.823500  1.0
  H  H381  1  0.564500  0.726300  0.676500  1.0
  H  H382  1  0.064500  0.773700  0.323500  1.0
  H  H383  1  0.935500  0.226300  0.823500  1.0
  H  H384  1  0.435500  0.273700  0.176500  1.0
  Rh  Rh385  1  0.438292  0.419707  0.250000  1
  Rh  Rh386  1  0.938292  0.080293  0.750000  1
  Rh  Rh387  1  0.061708  0.919707  0.250000  1
  Rh  Rh388  1  0.561708  0.580293  0.750000  1
  C  C389  1  0.802200  0.486500  0.250000  1
  C  C390  1  0.302200  0.013500  0.750000  1
  C  C391  1  0.697800  0.986500  0.250000  1
  C  C392  1  0.197800  0.513500  0.750000  1
  C  C393  1  0.729100  0.528000  0.250000  1
  C  C394  1  0.229100  0.972000  0.750000  1
  C  C395  1  0.770900  0.028000  0.250000  1
  C  C396  1  0.270900  0.472000  0.750000  1
  C  C397  1  0.866500  0.277800  0.250000  1
  C  C398  1  0.366500  0.222200  0.750000  1
  C  C399  1  0.633500  0.777800  0.250000  1
  C  C400  1  0.133500  0.722200  0.750000  1
  C  C401  1  0.782100  0.257800  0.250000  1
  C  C402  1  0.282100  0.242200  0.750000  1
  C  C403  1  0.717900  0.757800  0.250000  1
  C  C404  1  0.217900  0.742200  0.750000  1
  C  C405  1  0.731700  0.321300  0.250000  1
  C  C406  1  0.231700  0.178700  0.750000  1
  C  C407  1  0.768300  0.821300  0.250000  1
  C  C408  1  0.268300  0.678700  0.750000  1
  C  C409  1  0.645900  0.306500  0.250000  1
  C  C410  1  0.145900  0.193500  0.750000  1
  C  C411  1  0.854100  0.806500  0.250000  1
  C  C412  1  0.354100  0.693500  0.750000  1
  C  C413  1  0.005000  0.251100  0.250000  1
  C  C414  1  0.505000  0.248900  0.750000  1
  C  C415  1  0.495000  0.751100  0.250000  1
  C  C416  1  0.995000  0.748900  0.750000  1
  C  C417  1  0.070500  0.200200  0.250000  1
  C  C418  1  0.570500  0.299800  0.750000  1
  C  C419  1  0.429500  0.700200  0.250000  1
  C  C420  1  0.929500  0.799800  0.750000  1
  C  C421  1  0.147800  0.229800  0.250000  1
  C  C422  1  0.647800  0.270200  0.750000  1
  C  C423  1  0.352200  0.729800  0.250000  1
  C  C424  1  0.852200  0.770200  0.750000  1
  C  C425  1  0.215400  0.183300  0.250000  1
  C  C426  1  0.715400  0.316700  0.750000  1
  C  C427  1  0.284600  0.683300  0.250000  1
  C  C428  1  0.784600  0.816700  0.750000  1
  C  C429  1  0.062600  0.470200  0.250000  1
  C  C430  1  0.562600  0.029800  0.750000  1
  C  C431  1  0.437400  0.970200  0.250000  1
  C  C432  1  0.937400  0.529800  0.750000  1
  C  C433  1  0.023900  0.540400  0.250000  1
  C  C434  1  0.523900  0.959600  0.750000  1
  C  C435  1  0.476100  0.040400  0.250000  1
  C  C436  1  0.976100  0.459600  0.750000  1
  C  C437  1  0.362600  0.356000  0.250000  1
  C  C438  1  0.862600  0.144000  0.750000  1
  C  C439  1  0.137400  0.856000  0.250000  1
  C  C440  1  0.637400  0.644000  0.750000  1
  C  C441  1  0.912990  0.174030  0.300340  1.0
  C  C442  1  0.412990  0.325970  0.699660  1.0
  C  C443  1  0.587010  0.674030  0.199660  1.0
  C  C444  1  0.087010  0.825970  0.800340  1.0
  C  C445  1  0.087010  0.825970  0.699660  1.0
  C  C446  1  0.587010  0.674030  0.300340  1.0
  C  C447  1  0.412990  0.325970  0.800340  1.0
  C  C448  1  0.912990  0.174030  0.199660  1.0
  C  C449  1  0.922200  0.206610  0.356510  1.0
  C  C450  1  0.422200  0.293390  0.643490  1.0
  C  C451  1  0.577800  0.706610  0.143490  1.0
  C  C452  1  0.077800  0.793390  0.856510  1.0
  C  C453  1  0.077800  0.793390  0.643490  1.0
  C  C454  1  0.577800  0.706610  0.356510  1.0
  C  C455  1  0.422200  0.293390  0.856510  1.0
  C  C456  1  0.922200  0.206610  0.143490  1.0
  C  C457  1  0.919400  0.152700  0.402950  1.0
  C  C458  1  0.419400  0.347300  0.597050  1.0
  C  C459  1  0.580600  0.652700  0.097050  1.0
  C  C460  1  0.080600  0.847300  0.902950  1.0
  C  C461  1  0.080600  0.847300  0.597050  1.0
  C  C462  1  0.580600  0.652700  0.402950  1.0
  C  C463  1  0.419400  0.347300  0.902950  1.0
  C  C464  1  0.919400  0.152700  0.097050  1.0
  C  C465  1  0.840300  0.124300  0.410000  1.0
  C  C466  1  0.340300  0.375700  0.590000  1.0
  C  C467  1  0.659700  0.624300  0.090000  1.0
  C  C468  1  0.159700  0.875700  0.910000  1.0
  C  C469  1  0.159700  0.875700  0.590000  1.0
  C  C470  1  0.659700  0.624300  0.410000  1.0
  C  C471  1  0.340300  0.375700  0.910000  1.0
  C  C472  1  0.840300  0.124300  0.090000  1.0
  C  C473  1  0.059900  0.590700  0.219800  1.0
  C  C474  1  0.559900  0.909300  0.780200  1.0
  C  C475  1  0.440100  0.090700  0.280200  1.0
  C  C476  1  0.940100  0.409300  0.719800  1.0
  C  C477  1  0.940100  0.409300  0.780200  1.0
  C  C478  1  0.440100  0.090700  0.219800  1.0
  C  C479  1  0.559900  0.909300  0.719800  1.0
  C  C480  1  0.059900  0.590700  0.280200  1.0
  C  C481  1  0.186920  0.399900  0.332910  1.0
  C  C482  1  0.686920  0.100100  0.667090  1.0
  C  C483  1  0.313080  0.899900  0.167090  1.0
  C  C484  1  0.813080  0.600100  0.832910  1.0
  C  C485  1  0.813080  0.600100  0.667090  1.0
  C  C486  1  0.313080  0.899900  0.332910  1.0
  C  C487  1  0.686920  0.100100  0.832910  1.0
  C  C488  1  0.186920  0.399900  0.167090  1.0
  C  C489  1  0.099970  0.400200  0.337010  1.0
  C  C490  1  0.599970  0.099800  0.662990  1.0
  C  C491  1  0.400030  0.900200  0.162990  1.0
  C  C492  1  0.900030  0.599800  0.837010  1.0
  C  C493  1  0.900030  0.599800  0.662990  1.0
  C  C494  1  0.400030  0.900200  0.337010  1.0
  C  C495  1  0.599970  0.099800  0.837010  1.0
  C  C496  1  0.099970  0.400200  0.162990  1.0
  C  C497  1  0.047560  0.430890  0.301660  1.0
  C  C498  1  0.547560  0.069110  0.698340  1.0
  C  C499  1  0.452440  0.930890  0.198340  1.0
  C  C500  1  0.952440  0.569110  0.801660  1.0
  C  C501  1  0.952440  0.569110  0.698340  1.0
  C  C502  1  0.452440  0.930890  0.301660  1.0
  C  C503  1  0.547560  0.069110  0.801660  1.0
  C  C504  1  0.047560  0.430890  0.198340  1.0
  C  C505  1  0.977110  0.385540  0.371070  1.0
  C  C506  1  0.477110  0.114460  0.628930  1.0
  C  C507  1  0.522890  0.885540  0.128930  1.0
  C  C508  1  0.022890  0.614460  0.871070  1.0
  C  C509  1  0.022890  0.614460  0.628930  1.0
  C  C510  1  0.522890  0.885540  0.371070  1.0
  C  C511  1  0.477110  0.114460  0.871070  1.0
  C  C512  1  0.977110  0.385540  0.128930  1.0
  C  C513  1  0.056090  0.370540  0.381010  1.0
  C  C514  1  0.556090  0.129460  0.618990  1.0
  C  C515  1  0.443910  0.870540  0.118990  1.0
  C  C516  1  0.943910  0.629460  0.881010  1.0
  C  C517  1  0.943910  0.629460  0.618990  1.0
  C  C518  1  0.443910  0.870540  0.381010  1.0
  C  C519  1  0.556090  0.129460  0.881010  1.0
  C  C520  1  0.056090  0.370540  0.118990  1.0
  C  C521  1  0.077430  0.333400  0.427600  1.0
  C  C522  1  0.577430  0.166600  0.572400  1.0
  C  C523  1  0.422570  0.833400  0.072400  1.0
  C  C524  1  0.922570  0.666600  0.927600  1.0
  C  C525  1  0.922570  0.666600  0.572400  1.0
  C  C526  1  0.422570  0.833400  0.427600  1.0
  C  C527  1  0.577430  0.166600  0.927600  1.0
  C  C528  1  0.077430  0.333400  0.072400  1.0
  C  C529  1  0.020930  0.314400  0.464310  1.0
  C  C530  1  0.520930  0.185600  0.535690  1.0
  C  C531  1  0.479070  0.814400  0.035690  1.0
  C  C532  1  0.979070  0.685600  0.964310  1.0
  C  C533  1  0.979070  0.685600  0.535690  1.0
  C  C534  1  0.479070  0.814400  0.464310  1.0
  C  C535  1  0.520930  0.185600  0.964310  1.0
  C  C536  1  0.020930  0.314400  0.035690  1.0
  C  C537  1  0.942460  0.330870  0.455360  1.0
  C  C538  1  0.442460  0.169130  0.544640  1.0
  C  C539  1  0.557540  0.830870  0.044640  1.0
  C  C540  1  0.057540  0.669130  0.955360  1.0
  C  C541  1  0.057540  0.669130  0.544640  1.0
  C  C542  1  0.557540  0.830870  0.455360  1.0
  C  C543  1  0.442460  0.169130  0.955360  1.0
  C  C544  1  0.942460  0.330870  0.044640  1.0
  C  C545  1  0.919060  0.365130  0.408250  1.0
  C  C546  1  0.419060  0.134870  0.591750  1.0
  C  C547  1  0.580940  0.865130  0.091750  1.0
  C  C548  1  0.080940  0.634870  0.908250  1.0
  C  C549  1  0.080940  0.634870  0.591750  1.0
  C  C550  1  0.580940  0.865130  0.408250  1.0
  C  C551  1  0.419060  0.134870  0.908250  1.0
  C  C552  1  0.919060  0.365130  0.091750  1.0
  C  C553  1  0.778290  0.348650  0.419690  1.0
  C  C554  1  0.278290  0.151350  0.580310  1.0
  C  C555  1  0.721710  0.848650  0.080310  1.0
  C  C556  1  0.221710  0.651350  0.919690  1.0
  C  C557  1  0.221710  0.651350  0.580310  1.0
  C  C558  1  0.721710  0.848650  0.419690  1.0
  C  C559  1  0.278290  0.151350  0.919690  1.0
  C  C560  1  0.778290  0.348650  0.080310  1.0
  C  C561  1  0.697890  0.370490  0.402160  1.0
  C  C562  1  0.197890  0.129510  0.597840  1.0
  C  C563  1  0.802110  0.870490  0.097840  1.0
  C  C564  1  0.302110  0.629510  0.902160  1.0
  C  C565  1  0.302110  0.629510  0.597840  1.0
  C  C566  1  0.802110  0.870490  0.402160  1.0
  C  C567  1  0.197890  0.129510  0.902160  1.0
  C  C568  1  0.697890  0.370490  0.097840  1.0
  C  C569  1  0.679470  0.430140  0.375880  1.0
  C  C570  1  0.179470  0.069860  0.624120  1.0
  C  C571  1  0.820530  0.930140  0.124120  1.0
  C  C572  1  0.320530  0.569860  0.875880  1.0
  C  C573  1  0.320530  0.569860  0.624120  1.0
  C  C574  1  0.820530  0.930140  0.375880  1.0
  C  C575  1  0.179470  0.069860  0.875880  1.0
  C  C576  1  0.679470  0.430140  0.124120  1.0
  C  C577  1  0.602940  0.444040  0.360860  1.0
  C  C578  1  0.102940  0.055960  0.639140  1.0
  C  C579  1  0.897060  0.944040  0.139140  1.0
  C  C580  1  0.397060  0.555960  0.860860  1.0
  C  C581  1  0.397060  0.555960  0.639140  1.0
  C  C582  1  0.897060  0.944040  0.360860  1.0
  C  C583  1  0.102940  0.055960  0.860860  1.0
  C  C584  1  0.602940  0.444040  0.139140  1.0
  C  C585  1  0.544250  0.397580  0.372000  1.0
  C  C586  1  0.044250  0.102420  0.628000  1.0
  C  C587  1  0.955750  0.897580  0.128000  1.0
  C  C588  1  0.455750  0.602420  0.872000  1.0
  C  C589  1  0.455750  0.602420  0.628000  1.0
  C  C590  1  0.955750  0.897580  0.372000  1.0
  C  C591  1  0.044250  0.102420  0.872000  1.0
  C  C592  1  0.544250  0.397580  0.128000  1.0
  C  C593  1  0.563010  0.339060  0.400130  1.0
  C  C594  1  0.063010  0.160940  0.599870  1.0
  C  C595  1  0.936990  0.839060  0.099870  1.0
  C  C596  1  0.436990  0.660940  0.900130  1.0
  C  C597  1  0.436990  0.660940  0.599870  1.0
  C  C598  1  0.936990  0.839060  0.400130  1.0
  C  C599  1  0.063010  0.160940  0.900130  1.0
  C  C600  1  0.563010  0.339060  0.099870  1.0
  C  C601  1  0.639030  0.325510  0.415010  1.0
  C  C602  1  0.139030  0.174490  0.584990  1.0
  C  C603  1  0.860970  0.825510  0.084990  1.0
  C  C604  1  0.360970  0.674490  0.915010  1.0
  C  C605  1  0.360970  0.674490  0.584990  1.0
  C  C606  1  0.860970  0.825510  0.415010  1.0
  C  C607  1  0.139030  0.174490  0.915010  1.0
  C  C608  1  0.639030  0.325510  0.084990  1.0
  C  C609  1  0.413670  0.488530  0.384520  1.0
  C  C610  1  0.913670  0.011470  0.615480  1.0
  C  C611  1  0.086330  0.988530  0.115480  1.0
  C  C612  1  0.586330  0.511470  0.884520  1.0
  C  C613  1  0.586330  0.511470  0.615480  1.0
  C  C614  1  0.086330  0.988530  0.384520  1.0
  C  C615  1  0.913670  0.011470  0.884520  1.0
  C  C616  1  0.413670  0.488530  0.115480  1.0
  C  C617  1  0.428990  0.496330  0.440600  1.0
  C  C618  1  0.928990  0.003670  0.559400  1.0
  C  C619  1  0.071010  0.996330  0.059400  1.0
  C  C620  1  0.571010  0.503670  0.940600  1.0
  C  C621  1  0.571010  0.503670  0.559400  1.0
  C  C622  1  0.071010  0.996330  0.440600  1.0
  C  C623  1  0.928990  0.003670  0.940600  1.0
  C  C624  1  0.428990  0.496330  0.059400  1.0
  C  C625  1  0.401120  0.551090  0.469330  1.0
  C  C626  1  0.901120  0.948910  0.530670  1.0
  C  C627  1  0.098880  0.051090  0.030670  1.0
  C  C628  1  0.598880  0.448910  0.969330  1.0
  C  C629  1  0.598880  0.448910  0.530670  1.0
  C  C630  1  0.098880  0.051090  0.469330  1.0
  C  C631  1  0.901120  0.948910  0.969330  1.0
  C  C632  1  0.401120  0.551090  0.030670  1.0
  C  C633  1  0.358500  0.600200  0.441860  1.0
  C  C634  1  0.858500  0.899800  0.558140  1.0
  C  C635  1  0.141500  0.100200  0.058140  1.0
  C  C636  1  0.641500  0.399800  0.941860  1.0
  C  C637  1  0.641500  0.399800  0.558140  1.0
  C  C638  1  0.141500  0.100200  0.441860  1.0
  C  C639  1  0.858500  0.899800  0.941860  1.0
  C  C640  1  0.358500  0.600200  0.058140  1.0
  C  C641  1  0.343200  0.593180  0.386170  1.0
  C  C642  1  0.843200  0.906820  0.613830  1.0
  C  C643  1  0.156800  0.093180  0.113830  1.0
  C  C644  1  0.656800  0.406820  0.886170  1.0
  C  C645  1  0.656800  0.406820  0.613830  1.0
  C  C646  1  0.156800  0.093180  0.386170  1.0
  C  C647  1  0.843200  0.906820  0.886170  1.0
  C  C648  1  0.343200  0.593180  0.113830  1.0
  C  C649  1  0.370350  0.536970  0.357370  1.0
  C  C650  1  0.870350  0.963030  0.642630  1.0
  C  C651  1  0.129650  0.036970  0.142630  1.0
  C  C652  1  0.629650  0.463030  0.857370  1.0
  C  C653  1  0.629650  0.463030  0.642630  1.0
  C  C654  1  0.129650  0.036970  0.357370  1.0
  C  C655  1  0.870350  0.963030  0.857370  1.0
  C  C656  1  0.370350  0.536970  0.142630  1.0
  C  C657  1  0.391690  0.343270  0.377260  1.0
  C  C658  1  0.891690  0.156730  0.622740  1.0
  C  C659  1  0.108310  0.843270  0.122740  1.0
  C  C660  1  0.608310  0.656730  0.877260  1.0
  C  C661  1  0.608310  0.656730  0.622740  1.0
  C  C662  1  0.108310  0.843270  0.377260  1.0
  C  C663  1  0.891690  0.156730  0.877260  1.0
  C  C664  1  0.391690  0.343270  0.122740  1.0
  C  C665  1  0.341660  0.350430  0.422240  1.0
  C  C666  1  0.841660  0.149570  0.577760  1.0
  C  C667  1  0.158340  0.850430  0.077760  1.0
  C  C668  1  0.658340  0.649570  0.922240  1.0
  C  C669  1  0.658340  0.649570  0.577760  1.0
  C  C670  1  0.158340  0.850430  0.422240  1.0
  C  C671  1  0.841660  0.149570  0.922240  1.0
  C  C672  1  0.341660  0.350430  0.077760  1.0
  C  C673  1  0.304950  0.294100  0.444210  1.0
  C  C674  1  0.804950  0.205900  0.555790  1.0
  C  C675  1  0.195050  0.794100  0.055790  1.0
  C  C676  1  0.695050  0.705900  0.944210  1.0
  C  C677  1  0.695050  0.705900  0.555790  1.0
  C  C678  1  0.195050  0.794100  0.444210  1.0
  C  C679  1  0.804950  0.205900  0.944210  1.0
  C  C680  1  0.304950  0.294100  0.055790  1.0
  C  C681  1  0.316810  0.231500  0.422280  1.0
  C  C682  1  0.816810  0.268500  0.577720  1.0
  C  C683  1  0.183190  0.731500  0.077720  1.0
  C  C684  1  0.683190  0.768500  0.922280  1.0
  C  C685  1  0.683190  0.768500  0.577720  1.0
  C  C686  1  0.183190  0.731500  0.422280  1.0
  C  C687  1  0.816810  0.268500  0.922280  1.0
  C  C688  1  0.316810  0.231500  0.077720  1.0
  C  C689  1  0.365900  0.223580  0.377450  1.0
  C  C690  1  0.865900  0.276420  0.622550  1.0
  C  C691  1  0.134100  0.723580  0.122550  1.0
  C  C692  1  0.634100  0.776420  0.877450  1.0
  C  C693  1  0.634100  0.776420  0.622550  1.0
  C  C694  1  0.134100  0.723580  0.377450  1.0
  C  C695  1  0.865900  0.276420  0.877450  1.0
  C  C696  1  0.365900  0.223580  0.122550  1.0
  C  C697  1  0.402570  0.279240  0.354750  1.0
  C  C698  1  0.902570  0.220760  0.645250  1.0
  C  C699  1  0.097430  0.779240  0.145250  1.0
  C  C700  1  0.597430  0.720760  0.854750  1.0
  C  C701  1  0.597430  0.720760  0.645250  1.0
  C  C702  1  0.097430  0.779240  0.354750  1.0
  C  C703  1  0.902570  0.220760  0.854750  1.0
  C  C704  1  0.402570  0.279240  0.145250  1.0
  N  N705  1  0.924400  0.219220  0.250000  1
  N  N706  1  0.424400  0.280780  0.750000  1
  N  N707  1  0.575600  0.719220  0.250000  1
  N  N708  1  0.075600  0.780780  0.750000  1
  N  N709  1  0.839960  0.380140  0.396020  1.0
  N  N710  1  0.339960  0.119860  0.603980  1.0
  N  N711  1  0.660040  0.880140  0.103980  1.0
  N  N712  1  0.160040  0.619860  0.896020  1.0
  N  N713  1  0.160040  0.619860  0.603980  1.0
  N  N714  1  0.660040  0.880140  0.396020  1.0
  N  N715  1  0.339960  0.119860  0.896020  1.0
  N  N716  1  0.839960  0.380140  0.103980  1.0
  N  N717  1  0.973190  0.420980  0.322380  1.0
  N  N718  1  0.473190  0.079020  0.677620  1.0
  N  N719  1  0.526810  0.920980  0.177620  1.0
  N  N720  1  0.026810  0.579020  0.822380  1.0
  N  N721  1  0.026810  0.579020  0.677620  1.0
  N  N722  1  0.526810  0.920980  0.322380  1.0
  N  N723  1  0.473190  0.079020  0.822380  1.0
  N  N724  1  0.973190  0.420980  0.177620  1.0
  Cl  Cl725  1  0.514580  0.518110  0.250000  1
  Cl  Cl726  1  0.014580  0.981890  0.750000  1
  Cl  Cl727  1  0.985420  0.018110  0.250000  1
  Cl  Cl728  1  0.485420  0.481890  0.750000  1
  O  O729  1  0.311550  0.319380  0.250000  1
  O  O730  1  0.811550  0.180620  0.750000  1
  O  O731  1  0.188450  0.819380  0.250000  1
  O  O732  1  0.688450  0.680620  0.750000  1
  O  O733  1  0.829880  0.470800  0.296280  1.0
  O  O734  1  0.329880  0.029200  0.703720  1.0
  O  O735  1  0.670120  0.970800  0.203720  1.0
  O  O736  1  0.170120  0.529200  0.796280  1.0
  O  O737  1  0.170120  0.529200  0.703720  1.0
  O  O738  1  0.670120  0.970800  0.296280  1.0
  O  O739  1  0.329880  0.029200  0.796280  1.0
  O  O740  1  0.829880  0.470800  0.203720  1.0
  O  O741  1  0.784460  0.303110  0.453090  1.0
  O  O742  1  0.284460  0.196890  0.546910  1.0
  O  O743  1  0.715540  0.803110  0.046910  1.0
  O  O744  1  0.215540  0.696890  0.953090  1.0
  O  O745  1  0.215540  0.696890  0.546910  1.0
  O  O746  1  0.715540  0.803110  0.453090  1.0
  O  O747  1  0.284460  0.196890  0.953090  1.0
  O  O748  1  0.784460  0.303110  0.046910  1.0
