# generated using pymatgen
data_P2H29PtC28S4N3O7F6
_symmetry_space_group_name_H-M   'P 1'
_cell_length_a   8.67490000
_cell_length_b   9.00210000
_cell_length_c   23.70690000
_cell_angle_alpha   92.23300000
_cell_angle_beta   97.22030000
_cell_angle_gamma   101.04090000
_symmetry_Int_Tables_number   1
_chemical_formula_structural   P2H29PtC28S4N3O7F6
_chemical_formula_sum   'P4 H58 Pt2 C56 S8 N6 O14 F12'
_cell_volume   1798.87007712
_cell_formula_units_Z   2
loop_
 _symmetry_equiv_pos_site_id
 _symmetry_equiv_pos_as_xyz
  1  'x, y, z'
loop_
 _atom_site_type_symbol
 _atom_site_label
 _atom_site_symmetry_multiplicity
 _atom_site_fract_x
 _atom_site_fract_y
 _atom_site_fract_z
 _atom_site_occupancy
  P  P1  1  0.940700  0.836730  0.134750  1.0
  P  P2  1  0.059300  0.163270  0.865250  1.0
  P  P3  1  0.721330  0.103660  0.122130  1.0
  P  P4  1  0.278670  0.896340  0.877870  1.0
  H  H5  1  0.270900  0.133900  0.207300  1.0
  H  H6  1  0.729100  0.866100  0.792700  1.0
  H  H7  1  0.475800  0.157300  0.282000  1.0
  H  H8  1  0.524200  0.842700  0.718000  1.0
  H  H9  1  0.165200  0.931700  0.378200  1.0
  H  H10  1  0.834800  0.068300  0.621800  1.0
  H  H11  1  0.970600  0.908200  0.300900  1.0
  H  H12  1  0.029400  0.091800  0.699100  1.0
  H  H13  1  0.691100  0.243300  0.515900  1.0
  H  H14  1  0.308900  0.756700  0.484100  1.0
  H  H15  1  0.159100  0.253500  0.517700  1.0
  H  H16  1  0.840900  0.746500  0.482300  1.0
  H  H17  1  0.856200  0.024200  0.394100  1.0
  H  H18  1  0.143800  0.975800  0.605900  1.0
  H  H19  1  0.227700  0.674500  0.648600  1.0
  H  H20  1  0.772300  0.325500  0.351400  1.0
  H  H21  1  0.737200  0.145100  0.276400  1.0
  H  H22  1  0.262800  0.854900  0.723600  1.0
  H  H23  1  0.110800  0.370800  0.214800  1.0
  H  H24  1  0.889200  0.629200  0.785200  1.0
  H  H25  1  0.839000  0.449600  0.709200  1.0
  H  H26  1  0.161000  0.550400  0.290800  1.0
  H  H27  1  0.047700  0.624300  0.155600  1.0
  H  H28  1  0.952300  0.375700  0.844400  1.0
  H  H29  1  0.971400  0.678800  0.208900  1.0
  H  H30  1  0.028600  0.321200  0.791100  1.0
  H  H31  1  0.141000  0.767300  0.196600  1.0
  H  H32  1  0.859000  0.232700  0.803400  1.0
  H  H33  1  0.165600  0.941400  0.095100  1.0
  H  H34  1  0.834400  0.058600  0.904900  1.0
  H  H35  1  0.010500  0.930300  0.049500  1.0
  H  H36  1  0.989500  0.069700  0.950500  1.0
  H  H37  1  0.082300  0.782100  0.062200  1.0
  H  H38  1  0.917700  0.217900  0.937800  1.0
  H  H39  1  0.706800  0.765400  0.072700  1.0
  H  H40  1  0.293200  0.234600  0.927300  1.0
  H  H41  1  0.691700  0.683800  0.131100  1.0
  H  H42  1  0.308300  0.316200  0.868900  1.0
  H  H43  1  0.786800  0.621600  0.084700  1.0
  H  H44  1  0.213200  0.378400  0.915300  1.0
  H  H45  1  0.445100  0.036600  0.107000  1.0
  H  H46  1  0.554900  0.963400  0.893000  1.0
  H  H47  1  0.510500  0.004900  0.170700  1.0
  H  H48  1  0.489500  0.995100  0.829300  1.0
  H  H49  1  0.519700  0.889400  0.118700  1.0
  H  H50  1  0.480300  0.110600  0.881300  1.0
  H  H51  1  0.794400  0.367300  0.129600  1.0
  H  H52  1  0.205600  0.632700  0.870400  1.0
  H  H53  1  0.676600  0.311600  0.174800  1.0
  H  H54  1  0.323400  0.688400  0.825200  1.0
  H  H55  1  0.608100  0.316700  0.109100  1.0
  H  H56  1  0.391900  0.683300  0.890900  1.0
  H  H57  1  0.641500  0.111100  0.025300  1.0
  H  H58  1  0.358500  0.888900  0.974700  1.0
  H  H59  1  0.740900  0.980100  0.036400  1.0
  H  H60  1  0.259100  0.019900  0.963600  1.0
  H  H61  1  0.830700  0.153400  0.038800  1.0
  H  H62  1  0.169300  0.846600  0.961200  1.0
  Pt  Pt63  1  0.918380  0.048150  0.184647  1.0
  Pt  Pt64  1  0.081620  0.951850  0.815353  1.0
  C  C65  1  0.293300  0.498400  0.061100  1
  C  C66  1  0.706700  0.501600  0.938900  1
  C  C67  1  0.560000  0.589900  0.249700  1
  C  C68  1  0.440000  0.410100  0.750300  1
  C  C69  1  0.445000  0.464000  0.420500  1
  C  C70  1  0.555000  0.536000  0.579500  1
  C  C71  1  0.250100  0.091900  0.242400  1.0
  C  C72  1  0.749900  0.908100  0.757600  1.0
  C  C73  1  0.372200  0.106300  0.286700  1.0
  C  C74  1  0.627800  0.893700  0.713300  1.0
  C  C75  1  0.343500  0.046000  0.338300  1.0
  C  C76  1  0.656500  0.954000  0.661700  1.0
  C  C77  1  0.189700  0.972700  0.343400  1.0
  C  C78  1  0.810300  0.027300  0.656600  1.0
  C  C79  1  0.074700  0.960600  0.297500  1.0
  C  C80  1  0.925300  0.039400  0.702500  1.0
  C  C81  1  0.474900  0.063100  0.383000  1.0
  C  C82  1  0.525100  0.936900  0.617000  1.0
  C  C83  1  0.594400  0.086100  0.415900  1.0
  C  C84  1  0.405600  0.913900  0.584100  1.0
  C  C85  1  0.747900  0.127300  0.449800  1.0
  C  C86  1  0.252100  0.872700  0.550200  1.0
  C  C87  1  0.776400  0.215000  0.499500  1.0
  C  C88  1  0.223600  0.785000  0.500500  1.0
  C  C89  1  0.930200  0.262700  0.525700  1.0
  C  C90  1  0.069800  0.737300  0.474300  1.0
  C  C91  1  0.053200  0.217900  0.500100  1.0
  C  C92  1  0.946800  0.782100  0.499900  1.0
  C  C93  1  0.877000  0.086600  0.428500  1.0
  C  C94  1  0.123000  0.913400  0.571500  1.0
  C  C95  1  0.965600  0.359800  0.577800  1.0
  C  C96  1  0.034400  0.640200  0.422200  1.0
  C  C97  1  0.994700  0.439900  0.620500  1.0
  C  C98  1  0.005300  0.560100  0.379500  1.0
  C  C99  1  0.026400  0.543900  0.669500  1.0
  C  C100  1  0.973600  0.456100  0.330500  1.0
  C  C101  1  0.154800  0.665100  0.675600  1.0
  C  C102  1  0.845200  0.334900  0.324400  1.0
  C  C103  1  0.823800  0.228700  0.279400  1.0
  C  C104  1  0.176200  0.771300  0.720600  1.0
  C  C105  1  0.043600  0.360300  0.243700  1.0
  C  C106  1  0.956400  0.639700  0.756300  1.0
  C  C107  1  0.926900  0.531800  0.711500  1.0
  C  C108  1  0.073100  0.468200  0.288500  1.0
  C  C109  1  0.036100  0.712600  0.179000  1.0
  C  C110  1  0.963900  0.287400  0.821000  1.0
  C  C111  1  0.063800  0.877300  0.079000  1.0
  C  C112  1  0.936200  0.122700  0.921000  1.0
  C  C113  1  0.761100  0.712800  0.102100  1.0
  C  C114  1  0.238900  0.287200  0.897900  1.0
  C  C115  1  0.526800  0.996300  0.130600  1.0
  C  C116  1  0.473200  0.003700  0.869400  1.0
  C  C117  1  0.697400  0.297000  0.135400  1.0
  C  C118  1  0.302600  0.703000  0.864600  1.0
  C  C119  1  0.735200  0.085000  0.047100  1.0
  C  C120  1  0.264800  0.915000  0.952900  1.0
  S  S121  1  0.190100  0.327500  0.085660  1
  S  S122  1  0.809900  0.672500  0.914340  1
  S  S123  1  0.575500  0.758000  0.291690  1
  S  S124  1  0.424500  0.242000  0.708310  1
  S  S125  1  0.632000  0.747000  0.270400  1
  S  S126  1  0.368000  0.253000  0.729600  1
  S  S127  1  0.231400  0.296700  0.074700  1
  S  S128  1  0.768600  0.703300  0.925300  1
  N  N129  1  0.102900  0.020200  0.247600  1.0
  N  N130  1  0.897100  0.979800  0.752400  1.0
  N  N131  1  0.029200  0.128300  0.452500  1.0
  N  N132  1  0.970800  0.871700  0.547500  1.0
  N  N133  1  0.922100  0.239900  0.239500  1.0
  N  N134  1  0.077900  0.760100  0.760500  1.0
  O  O135  1  0.291200  0.292100  0.132900  1
  O  O136  1  0.708800  0.707900  0.867100  1
  O  O137  1  0.170000  0.224700  0.036800  1
  O  O138  1  0.830000  0.775300  0.963200  1
  O  O139  1  0.050400  0.367900  0.099900  1
  O  O140  1  0.949600  0.632100  0.900100  1
  O  O141  1  0.690500  0.730100  0.346000  1
  O  O142  1  0.309500  0.269900  0.654000  1
  O  O143  1  0.635500  0.886800  0.268900  1
  O  O144  1  0.364500  0.113200  0.731100  1
  O  O145  1  0.424100  0.727900  0.319100  1
  O  O146  1  0.575900  0.272100  0.680900  1
  O  O147  1  0.504000  0.639700  0.437700  1
  O  O148  1  0.496000  0.360300  0.562300  1
  F  F149  1  0.439000  0.492000  0.050900  1
  F  F150  1  0.561000  0.508000  0.949100  1
  F  F151  1  0.222000  0.538500  0.013400  1
  F  F152  1  0.778000  0.461500  0.986600  1
  F  F153  1  0.318900  0.612800  0.100200  1
  F  F154  1  0.681100  0.387200  0.899800  1
  F  F155  1  0.509500  0.467600  0.274600  1
  F  F156  1  0.490500  0.532400  0.725400  1
  F  F157  1  0.710500  0.607500  0.236400  1
  F  F158  1  0.289500  0.392500  0.763600  1
  F  F159  1  0.469000  0.595600  0.201300  1
  F  F160  1  0.531000  0.404400  0.798700  1
