# generated using pymatgen
data_P4H78Pt2C60S4N6O13F12
_symmetry_space_group_name_H-M   'P 1'
_cell_length_a   8.77470000
_cell_length_b   8.89800000
_cell_length_c   24.39460000
_cell_angle_alpha   99.10600000
_cell_angle_beta   95.76200000
_cell_angle_gamma   99.21400000
_symmetry_Int_Tables_number   1
_chemical_formula_structural   P4H78Pt2C60S4N6O13F12
_chemical_formula_sum   'P4 H78 Pt2 C60 S4 N6 O13 F12'
_cell_volume   1840.88153042
_cell_formula_units_Z   1
loop_
 _symmetry_equiv_pos_site_id
 _symmetry_equiv_pos_as_xyz
  1  'x, y, z'
loop_
 _atom_site_type_symbol
 _atom_site_label
 _atom_site_symmetry_multiplicity
 _atom_site_fract_x
 _atom_site_fract_y
 _atom_site_fract_z
 _atom_site_occupancy
  P  P1  1  0.164560  0.544420  0.370650  1.0
  P  P2  1  0.835440  0.455580  0.629350  1.0
  P  P3  1  0.892240  0.767130  0.380020  1.0
  P  P4  1  0.107760  0.232870  0.619980  1.0
  H  H5  1  0.667500  0.222900  0.107800  1
  H  H6  1  0.332500  0.777100  0.892200  1
  H  H7  1  0.580600  0.051700  0.109600  1
  H  H8  1  0.419400  0.948300  0.890400  1
  H  H9  1  0.481800  0.179400  0.094500  1
  H  H10  1  0.518200  0.820600  0.905500  1
  H  H11  1  0.601700  0.194300  0.019800  1
  H  H12  1  0.398300  0.805700  0.980200  1
  H  H13  1  0.693700  0.063900  0.034500  1
  H  H14  1  0.306300  0.936100  0.965500  1
  H  H15  1  0.852200  0.227300  0.297300  1.0
  H  H16  1  0.147800  0.772700  0.702700  1.0
  H  H17  1  0.838700  0.012800  0.229100  1.0
  H  H18  1  0.161300  0.987200  0.770900  1.0
  H  H19  1  0.065100  0.287200  0.134500  1.0
  H  H20  1  0.934900  0.712800  0.865500  1.0
  H  H21  1  0.078800  0.495400  0.206500  1.0
  H  H22  1  0.921200  0.504600  0.793500  1.0
  H  H23  1  0.760900  0.783500  0.995700  1.0
  H  H24  1  0.239100  0.216500  0.004300  1.0
  H  H25  1  0.769000  0.327100  0.984400  1.0
  H  H26  1  0.231000  0.672900  0.015600  1.0
  H  H27  1  0.992000  0.612800  0.116900  1.0
  H  H28  1  0.008000  0.387200  0.883100  1.0
  H  H29  1  0.326900  0.276200  0.849300  1.0
  H  H30  1  0.673100  0.723800  0.150700  1.0
  H  H31  1  0.861100  0.745000  0.226500  1.0
  H  H32  1  0.138900  0.255000  0.773500  1.0
  H  H33  1  0.608700  0.404900  0.282400  1.0
  H  H34  1  0.391300  0.595100  0.717600  1.0
  H  H35  1  0.580600  0.630800  0.794700  1.0
  H  H36  1  0.419400  0.369200  0.205300  1.0
  H  H37  1  0.313700  0.511100  0.297700  1.0
  H  H38  1  0.686300  0.488900  0.702300  1.0
  H  H39  1  0.239600  0.346600  0.311100  1.0
  H  H40  1  0.760400  0.653400  0.688900  1.0
  H  H41  1  0.388400  0.449800  0.350600  1.0
  H  H42  1  0.611600  0.550200  0.649400  1.0
  H  H43  1  0.221600  0.406800  0.440900  1.0
  H  H44  1  0.778400  0.593200  0.559100  1.0
  H  H45  1  0.067900  0.317400  0.400600  1.0
  H  H46  1  0.932100  0.682600  0.599400  1.0
  H  H47  1  0.059200  0.463800  0.446800  1.0
  H  H48  1  0.940800  0.536200  0.553200  1.0
  H  H49  1  0.388200  0.688800  0.425000  1.0
  H  H50  1  0.611800  0.311200  0.575000  1.0
  H  H51  1  0.240400  0.766200  0.438300  1.0
  H  H52  1  0.759600  0.233800  0.561700  1.0
  H  H53  1  0.317800  0.788300  0.382800  1.0
  H  H54  1  0.682200  0.211700  0.617200  1.0
  H  H55  1  0.011500  0.973900  0.343100  1.0
  H  H56  1  0.988500  0.026100  0.656900  1.0
  H  H57  1  0.115800  0.955400  0.398500  1.0
  H  H58  1  0.884200  0.044600  0.601500  1.0
  H  H59  1  0.964900  0.034100  0.403400  1.0
  H  H60  1  0.035100  0.965900  0.596600  1.0
  H  H61  1  0.670300  0.873200  0.393200  1.0
  H  H62  1  0.329700  0.126800  0.606800  1.0
  H  H63  1  0.622800  0.696700  0.362300  1.0
  H  H64  1  0.377200  0.303300  0.637700  1.0
  H  H65  1  0.681900  0.828700  0.327800  1.0
  H  H66  1  0.318100  0.171300  0.672200  1.0
  H  H67  1  0.870100  0.831100  0.475000  1.0
  H  H68  1  0.129900  0.168900  0.525000  1.0
  H  H69  1  0.005900  0.732400  0.466600  1.0
  H  H70  1  0.994100  0.267600  0.533400  1.0
  H  H71  1  0.827700  0.647500  0.455100  1.0
  H  H72  1  0.172300  0.352500  0.544900  1.0
  H  H73  1  0.386900  0.977500  0.067500  1.0
  H  H74  1  0.613100  0.022500  0.932500  1.0
  H  H75  1  0.545600  0.908900  0.069600  1.0
  H  H76  1  0.454400  0.091100  0.930400  1.0
  H  H77  1  0.578900  0.140700  0.130800  1.0
  H  H78  1  0.421100  0.859300  0.869200  1.0
  H  H79  1  0.529100  0.224800  0.080300  1.0
  H  H80  1  0.470900  0.775200  0.919700  1.0
  H  H81  1  0.687200  0.156600  0.082300  1.0
  H  H82  1  0.312800  0.843400  0.917700  1.0
  Pt  Pt83  1  0.946491  0.570979  0.318423  1.0
  Pt  Pt84  1  0.053509  0.429021  0.681577  1.0
  C  C85  1  0.503700  0.188500  0.430870  1
  C  C86  1  0.496300  0.811500  0.569130  1
  C  C87  1  0.375000  0.994100  0.220700  1
  C  C88  1  0.625000  0.005900  0.779300  1
  C  C89  1  0.591600  0.097000  0.035400  1
  C  C90  1  0.408400  0.903000  0.964600  1
  C  C91  1  0.896900  0.238800  0.264020  1.0
  C  C92  1  0.103100  0.761200  0.735980  1.0
  C  C93  1  0.887700  0.111200  0.223410  1.0
  C  C94  1  0.112300  0.888800  0.776590  1.0
  C  C95  1  0.949700  0.125100  0.173920  1.0
  C  C96  1  0.050300  0.874900  0.826080  1.0
  C  C97  1  0.021700  0.272300  0.167740  1.0
  C  C98  1  0.978300  0.727700  0.832260  1.0
  C  C99  1  0.028700  0.395700  0.210660  1.0
  C  C100  1  0.971300  0.604300  0.789340  1.0
  C  C101  1  0.935800  0.990600  0.131270  1.0
  C  C102  1  0.064200  0.009400  0.868730  1.0
  C  C103  1  0.915800  0.872900  0.098590  1.0
  C  C104  1  0.084200  0.127100  0.901410  1.0
  C  C105  1  0.880100  0.723400  0.062620  1.0
  C  C106  1  0.119900  0.276600  0.937380  1.0
  C  C107  1  0.792100  0.699200  0.010660  1.0
  C  C108  1  0.207900  0.300800  0.989340  1.0
  C  C109  1  0.750000  0.548400  0.980590  1.0
  C  C110  1  0.250000  0.451600  0.019410  1.0
  C  C111  1  0.800000  0.429800  0.004470  1.0
  C  C112  1  0.200000  0.570200  0.995530  1.0
  C  C113  1  0.928100  0.595400  0.081910  1.0
  C  C114  1  0.071900  0.404600  0.918090  1.0
  C  C115  1  0.657000  0.515600  0.926720  1.0
  C  C116  1  0.343000  0.484400  0.073280  1.0
  C  C117  1  0.578100  0.489600  0.882470  1.0
  C  C118  1  0.421900  0.510400  0.117530  1.0
  C  C119  1  0.471400  0.461900  0.831990  1.0
  C  C120  1  0.528600  0.538100  0.168010  1.0
  C  C121  1  0.340200  0.345600  0.823560  1.0
  C  C122  1  0.659800  0.654400  0.176440  1.0
  C  C123  1  0.769900  0.668300  0.222100  1.0
  C  C124  1  0.230100  0.331700  0.777900  1.0
  C  C125  1  0.622800  0.468000  0.254640  1.0
  C  C126  1  0.377200  0.532000  0.745360  1.0
  C  C127  1  0.490300  0.553500  0.791180  1.0
  C  C128  1  0.509700  0.446500  0.208820  1.0
  C  C129  1  0.291000  0.452500  0.327570  1.0
  C  C130  1  0.709000  0.547500  0.672430  1.0
  C  C131  1  0.123700  0.418800  0.420430  1.0
  C  C132  1  0.876300  0.581200  0.579570  1.0
  C  C133  1  0.292300  0.716600  0.408510  1.0
  C  C134  1  0.707700  0.283400  0.591490  1.0
  C  C135  1  0.009500  0.954000  0.381380  1.0
  C  C136  1  0.990500  0.046000  0.618620  1.0
  C  C137  1  0.694200  0.794600  0.363990  1.0
  C  C138  1  0.305800  0.205400  0.636010  1.0
  C  C139  1  0.899900  0.741600  0.452510  1.0
  C  C140  1  0.100100  0.258400  0.547490  1.0
  C  C141  1  0.495900  0.994600  0.059300  1.0
  C  C142  1  0.504100  0.005400  0.940700  1.0
  C  C143  1  0.579500  0.140900  0.090700  1.0
  C  C144  1  0.420500  0.859100  0.909300  1.0
  S  S145  1  0.682720  0.291360  0.412550  1
  S  S146  1  0.317280  0.708640  0.587450  1
  S  S147  1  0.248060  0.835920  0.240570  1
  S  S148  1  0.751940  0.164080  0.759430  1
  N  N149  1  0.967100  0.379400  0.258110  1.0
  N  N150  1  0.032900  0.620600  0.741890  1.0
  N  N151  1  0.888600  0.451100  0.053650  1.0
  N  N152  1  0.111400  0.548900  0.946350  1.0
  N  N153  1  0.752000  0.576300  0.260640  1.0
  N  N154  1  0.248000  0.423700  0.739360  1.0
  O  O155  1  0.781400  0.332200  0.464470  1
  O  O156  1  0.218600  0.667800  0.535530  1
  O  O157  1  0.636900  0.418100  0.390180  1
  O  O158  1  0.363100  0.581900  0.609820  1
  O  O159  1  0.730100  0.180100  0.372010  1
  O  O160  1  0.269900  0.819900  0.627990  1
  O  O161  1  0.342700  0.791100  0.283670  1
  O  O162  1  0.657300  0.208900  0.716330  1
  O  O163  1  0.116800  0.899700  0.255520  1
  O  O164  1  0.883200  0.100300  0.744480  1
  O  O165  1  0.214200  0.723500  0.189810  1
  O  O166  1  0.785800  0.276500  0.810190  1
  O  O167  1  0.500000  0.000000  0.000000  1
  F  F168  1  0.529200  0.064400  0.451380  1
  F  F169  1  0.470800  0.935600  0.548620  1
  F  F170  1  0.447100  0.276000  0.470360  1
  F  F171  1  0.552900  0.724000  0.529640  1
  F  F172  1  0.392800  0.146700  0.387990  1
  F  F173  1  0.607200  0.853300  0.612010  1
  F  F174  1  0.415400  0.113100  0.263160  1
  F  F175  1  0.584600  0.886900  0.736840  1
  F  F176  1  0.305800  0.051200  0.179710  1
  F  F177  1  0.694200  0.948800  0.820290  1
  F  F178  1  0.504400  0.957300  0.206400  1
  F  F179  1  0.495600  0.042700  0.793600  1
