# generated using pymatgen
data_P2H92RuC90N8(OF3)6
_symmetry_space_group_name_H-M   'P 1'
_cell_length_a   14.89130000
_cell_length_b   15.60770000
_cell_length_c   24.00960000
_cell_angle_alpha   98.04350000
_cell_angle_beta   90.08900000
_cell_angle_gamma   90.93630000
_symmetry_Int_Tables_number   1
_chemical_formula_structural   P2H92RuC90N8(OF3)6
_chemical_formula_sum   'P4 H184 Ru2 C180 N16 O12 F36'
_cell_volume   5524.60837406
_cell_formula_units_Z   2
loop_
 _symmetry_equiv_pos_site_id
 _symmetry_equiv_pos_as_xyz
  1  'x, y, z'
loop_
 _atom_site_type_symbol
 _atom_site_label
 _atom_site_symmetry_multiplicity
 _atom_site_fract_x
 _atom_site_fract_y
 _atom_site_fract_z
 _atom_site_occupancy
  P  P1  1  0.098370  0.204220  0.925040  1
  P  P2  1  0.901630  0.795780  0.074960  1
  P  P3  1  0.529200  0.220000  0.454790  1
  P  P4  1  0.470800  0.780000  0.545210  1
  H  H5  1  0.803800  0.313000  0.250900  1
  H  H6  1  0.196200  0.687000  0.749100  1
  H  H7  1  0.843000  0.227100  0.216500  1
  H  H8  1  0.157000  0.772900  0.783500  1
  H  H9  1  0.987500  0.286700  0.226900  1
  H  H10  1  0.012500  0.713300  0.773100  1
  H  H11  1  0.947500  0.373300  0.260900  1
  H  H12  1  0.052500  0.626700  0.739100  1
  H  H13  1  0.856900  0.385200  0.178900  1
  H  H14  1  0.143100  0.614800  0.821100  1
  H  H15  1  0.962600  0.401100  0.171000  1
  H  H16  1  0.037400  0.598900  0.829000  1
  H  H17  1  0.977800  0.258700  0.129400  1
  H  H18  1  0.022200  0.741300  0.870600  1
  H  H19  1  0.873800  0.239800  0.139400  1
  H  H20  1  0.126200  0.760200  0.860600  1
  H  H21  1  0.945100  0.344500  0.063300  1
  H  H22  1  0.054900  0.655500  0.936700  1
  H  H23  1  0.840200  0.340800  0.077300  1
  H  H24  1  0.159800  0.659200  0.922700  1
  H  H25  1  0.874600  0.246900  0.994700  1
  H  H26  1  0.125400  0.753100  0.005300  1
  H  H27  1  0.938900  0.193500  0.030900  1
  H  H28  1  0.061100  0.806500  0.969100  1
  H  H29  1  0.995100  0.850700  0.710000  1.0
  H  H30  1  0.004900  0.149300  0.290000  1.0
  H  H31  1  0.991000  0.732100  0.641300  1.0
  H  H32  1  0.009000  0.267900  0.358700  1.0
  H  H33  1  0.732200  0.779000  0.610900  1.0
  H  H34  1  0.267800  0.221000  0.389100  1.0
  H  H35  1  0.618500  0.878000  0.630600  1.0
  H  H36  1  0.381500  0.122000  0.369400  1.0
  H  H37  1  0.514200  0.980200  0.663800  1.0
  H  H38  1  0.485800  0.019800  0.336200  1.0
  H  H39  1  0.558400  0.104200  0.726300  1.0
  H  H40  1  0.441600  0.895800  0.273700  1.0
  H  H41  1  0.615100  0.206300  0.791300  1.0
  H  H42  1  0.384900  0.793700  0.208700  1.0
  H  H43  1  0.833900  0.293900  0.884100  1.0
  H  H44  1  0.166100  0.706100  0.115900  1.0
  H  H45  1  0.905100  0.169800  0.846800  1.0
  H  H46  1  0.094900  0.830200  0.153200  1.0
  H  H47  1  0.574600  0.448900  0.975500  1.0
  H  H48  1  0.425400  0.551100  0.024500  1.0
  H  H49  1  0.548000  0.498000  0.816400  1.0
  H  H50  1  0.452000  0.502000  0.183600  1.0
  H  H51  1  0.641100  0.323700  0.996100  1.0
  H  H52  1  0.358900  0.676300  0.003900  1.0
  H  H53  1  0.739900  0.328600  0.970400  1.0
  H  H54  1  0.260100  0.671400  0.029600  1.0
  H  H55  1  0.672700  0.250900  0.946700  1.0
  H  H56  1  0.327300  0.749100  0.053300  1.0
  H  H57  1  0.704000  0.344700  0.755500  1.0
  H  H58  1  0.296000  0.655300  0.244500  1.0
  H  H59  1  0.657800  0.433900  0.747100  1.0
  H  H60  1  0.342200  0.566100  0.252900  1.0
  H  H61  1  0.599100  0.346300  0.741200  1.0
  H  H62  1  0.400900  0.653700  0.258800  1.0
  H  H63  1  0.426600  0.648900  0.902800  1.0
  H  H64  1  0.573400  0.351100  0.097200  1.0
  H  H65  1  0.500600  0.615800  0.857100  1.0
  H  H66  1  0.499400  0.384200  0.142900  1.0
  H  H67  1  0.327700  0.488600  0.909000  1.0
  H  H68  1  0.672300  0.511400  0.091000  1.0
  H  H69  1  0.212300  0.421100  0.855000  1.0
  H  H70  1  0.787700  0.578900  0.145000  1.0
  H  H71  1  0.195500  0.445900  0.758700  1.0
  H  H72  1  0.804500  0.554100  0.241300  1.0
  H  H73  1  0.432400  0.570300  0.700200  1.0
  H  H74  1  0.567600  0.429700  0.299800  1.0
  H  H75  1  0.425400  0.605700  0.606100  1.0
  H  H76  1  0.574600  0.394300  0.393900  1.0
  H  H77  1  0.287500  0.596200  0.561900  1.0
  H  H78  1  0.712500  0.403800  0.438100  1.0
  H  H79  1  0.098000  0.500200  0.608000  1.0
  H  H80  1  0.902000  0.499800  0.392000  1.0
  H  H81  1  0.095500  0.603200  0.620700  1.0
  H  H82  1  0.904500  0.396800  0.379300  1.0
  H  H83  1  0.110800  0.544900  0.440000  1.0
  H  H84  1  0.889200  0.455100  0.560000  1.0
  H  H85  1  0.165900  0.398700  0.560000  1.0
  H  H86  1  0.834100  0.601300  0.440000  1.0
  H  H87  1  0.124000  0.493600  0.344500  1.0
  H  H88  1  0.876000  0.506400  0.655500  1.0
  H  H89  1  0.051500  0.416000  0.335600  1.0
  H  H90  1  0.948500  0.584000  0.664400  1.0
  H  H91  1  0.155700  0.396600  0.324800  1.0
  H  H92  1  0.844300  0.603400  0.675200  1.0
  H  H93  1  0.764500  0.777900  0.515200  1.0
  H  H94  1  0.235500  0.222100  0.484800  1.0
  H  H95  1  0.869700  0.799100  0.511800  1.0
  H  H96  1  0.130300  0.200900  0.488200  1.0
  H  H97  1  0.817900  0.749300  0.458000  1.0
  H  H98  1  0.182100  0.250700  0.542000  1.0
  H  H99  1  0.695800  0.929200  0.823700  1.0
  H  H100  1  0.304200  0.070800  0.176300  1.0
  H  H101  1  0.793200  0.885200  0.971800  1.0
  H  H102  1  0.206800  0.114800  0.028200  1.0
  H  H103  1  0.937800  0.905600  0.939300  1.0
  H  H104  1  0.062200  0.094400  0.060700  1.0
  H  H105  1  0.076600  0.921200  0.895900  1.0
  H  H106  1  0.923400  0.078800  0.104100  1.0
  H  H107  1  0.205900  0.955600  0.847100  1.0
  H  H108  1  0.794100  0.044400  0.152900  1.0
  H  H109  1  0.193400  0.018900  0.766400  1.0
  H  H110  1  0.806600  0.981100  0.233600  1.0
  H  H111  1  0.157000  0.081300  0.686200  1.0
  H  H112  1  0.843000  0.918700  0.313800  1.0
  H  H113  1  0.108600  0.132900  0.604100  1.0
  H  H114  1  0.891400  0.867100  0.395900  1.0
  H  H115  1  0.853800  0.091000  0.648200  1.0
  H  H116  1  0.146200  0.909000  0.351800  1.0
  H  H117  1  0.929600  0.307100  0.496400  1.0
  H  H118  1  0.070400  0.692900  0.503600  1.0
  H  H119  1  0.840200  0.062500  0.446800  1.0
  H  H120  1  0.159800  0.937500  0.553200  1.0
  H  H121  1  0.948600  0.305500  0.630400  1.0
  H  H122  1  0.051400  0.694500  0.369600  1.0
  H  H123  1  0.996500  0.350900  0.582200  1.0
  H  H124  1  0.003500  0.649100  0.417800  1.0
  H  H125  1  0.048000  0.278700  0.610600  1.0
  H  H126  1  0.952000  0.721300  0.389400  1.0
  H  H127  1  0.842100  0.982400  0.562700  1.0
  H  H128  1  0.157900  0.017600  0.437300  1.0
  H  H129  1  0.945600  0.965500  0.547900  1.0
  H  H130  1  0.054400  0.034500  0.452100  1.0
  H  H131  1  0.871300  0.949900  0.499200  1.0
  H  H132  1  0.128700  0.050100  0.500800  1.0
  H  H133  1  0.760300  0.125100  0.389100  1.0
  H  H134  1  0.239700  0.874900  0.610900  1.0
  H  H135  1  0.856300  0.107200  0.359600  1.0
  H  H136  1  0.143700  0.892800  0.640400  1.0
  H  H137  1  0.750800  0.158500  0.296000  1.0
  H  H138  1  0.249200  0.841500  0.704000  1.0
  H  H139  1  0.741700  0.246500  0.338800  1.0
  H  H140  1  0.258300  0.753500  0.661200  1.0
  H  H141  1  0.774800  0.299600  0.256300  1.0
  H  H142  1  0.225200  0.700400  0.743700  1.0
  H  H143  1  0.792000  0.202100  0.227200  1.0
  H  H144  1  0.208000  0.797900  0.772800  1.0
  H  H145  1  0.943400  0.243200  0.210900  1.0
  H  H146  1  0.056600  0.756800  0.789100  1.0
  H  H147  1  0.919100  0.341200  0.234700  1.0
  H  H148  1  0.080900  0.658800  0.765300  1.0
  H  H149  1  0.825900  0.247500  0.142200  1.0
  H  H150  1  0.174100  0.752500  0.857800  1.0
  H  H151  1  0.822300  0.349700  0.162200  1.0
  H  H152  1  0.177700  0.650300  0.837800  1.0
  H  H153  1  0.980600  0.264900  0.122700  1.0
  H  H154  1  0.019400  0.735100  0.877300  1.0
  H  H155  1  0.968700  0.367100  0.136400  1.0
  H  H156  1  0.031300  0.632900  0.863600  1.0
  H  H157  1  0.965700  0.337300  0.042700  1.0
  H  H158  1  0.034300  0.662700  0.957300  1.0
  H  H159  1  0.863800  0.356400  0.060700  1.0
  H  H160  1  0.136200  0.643600  0.939300  1.0
  H  H161  1  0.876400  0.236100  0.992900  1.0
  H  H162  1  0.123600  0.763900  0.007100  1.0
  H  H163  1  0.937400  0.191000  0.034400  1.0
  H  H164  1  0.062600  0.809000  0.965600  1.0
  H  H165  1  0.828400  0.062400  0.015300  1.0
  H  H166  1  0.171600  0.937600  0.984700  1.0
  H  H167  1  0.775200  0.118700  0.975300  1.0
  H  H168  1  0.224800  0.881300  0.024700  1.0
  H  H169  1  0.681100  0.015700  0.013700  1.0
  H  H170  1  0.318900  0.984300  0.986300  1.0
  H  H171  1  0.698900  0.069300  0.074900  1.0
  H  H172  1  0.301100  0.930700  0.925100  1.0
  H  H173  1  0.560700  0.001400  0.070700  1.0
  H  H174  1  0.439300  0.998600  0.929300  1.0
  H  H175  1  0.500500  0.229300  0.021000  1.0
  H  H176  1  0.499500  0.770700  0.979000  1.0
  H  H177  1  0.410700  0.963300  0.150000  1.0
  H  H178  1  0.589300  0.036700  0.850000  1.0
  H  H179  1  0.444200  0.908300  0.092700  1.0
  H  H180  1  0.555800  0.091700  0.907300  1.0
  H  H181  1  0.341800  0.937700  0.098900  1.0
  H  H182  1  0.658200  0.062300  0.901100  1.0
  H  H183  1  0.707300  0.767100  0.982200  1.0
  H  H184  1  0.292700  0.232900  0.017800  1.0
  H  H185  1  0.634000  0.698400  0.953900  1.0
  H  H186  1  0.366000  0.301600  0.046100  1.0
  H  H187  1  0.706100  0.739300  0.915500  1.0
  H  H188  1  0.293900  0.260700  0.084500  1.0
  Ru  Ru189  1  0.862180  0.000260  0.758041  1.0
  Ru  Ru190  1  0.137820  0.999740  0.241959  1.0
  C  C191  1  0.856000  0.274200  0.247700  1
  C  C192  1  0.144000  0.725800  0.752300  1
  C  C193  1  0.934300  0.324200  0.231100  1
  C  C194  1  0.065700  0.675800  0.768900  1
  C  C195  1  0.916200  0.357300  0.177400  1
  C  C196  1  0.083800  0.642700  0.822600  1
  C  C197  1  0.917400  0.284600  0.130800  1
  C  C198  1  0.082600  0.715400  0.869200  1
  C  C199  1  0.896200  0.307300  0.075000  1
  C  C200  1  0.103800  0.692700  0.925000  1
  C  C201  1  0.885000  0.230000  0.032400  1
  C  C202  1  0.115000  0.770000  0.967600  1
  C  C203  1  0.940600  0.836200  0.689900  1.0
  C  C204  1  0.059400  0.163800  0.310100  1.0
  C  C205  1  0.938300  0.765200  0.648800  1.0
  C  C206  1  0.061700  0.234800  0.351200  1.0
  C  C207  1  0.862600  0.741400  0.618700  1.0
  C  C208  1  0.137400  0.258600  0.381300  1.0
  C  C209  1  0.786900  0.793700  0.630600  1.0
  C  C210  1  0.213100  0.206300  0.369400  1.0
  C  C211  1  0.792100  0.867000  0.671000  1.0
  C  C212  1  0.207900  0.133000  0.329000  1.0
  C  C213  1  0.719500  0.926800  0.682900  1.0
  C  C214  1  0.280500  0.073200  0.317100  1.0
  C  C215  1  0.634800  0.923700  0.659500  1.0
  C  C216  1  0.365200  0.076300  0.340500  1.0
  C  C217  1  0.574100  0.985900  0.677700  1.0
  C  C218  1  0.425900  0.014100  0.322300  1.0
  C  C219  1  0.598900  0.058200  0.716400  1.0
  C  C220  1  0.401100  0.941800  0.283600  1.0
  C  C221  1  0.681500  0.060500  0.739000  1.0
  C  C222  1  0.318500  0.939500  0.261000  1.0
  C  C223  1  0.724700  0.129800  0.780000  1.0
  C  C224  1  0.275300  0.870200  0.220000  1.0
  C  C225  1  0.675900  0.201400  0.802400  1.0
  C  C226  1  0.324100  0.798600  0.197600  1.0
  C  C227  1  0.715000  0.265800  0.840800  1.0
  C  C228  1  0.285000  0.734200  0.159200  1.0
  C  C229  1  0.803700  0.252300  0.857500  1.0
  C  C230  1  0.196300  0.747700  0.142500  1.0
  C  C231  1  0.845400  0.178100  0.834900  1.0
  C  C232  1  0.154600  0.821900  0.165100  1.0
  C  C233  1  0.661600  0.344600  0.861300  1.0
  C  C234  1  0.338400  0.655400  0.138700  1.0
  C  C235  1  0.642800  0.364100  0.919600  1.0
  C  C236  1  0.357200  0.635900  0.080400  1.0
  C  C237  1  0.587000  0.434400  0.936500  1.0
  C  C238  1  0.413000  0.565600  0.063500  1.0
  C  C239  1  0.550200  0.482200  0.900200  1.0
  C  C240  1  0.449800  0.517800  0.099800  1.0
  C  C241  1  0.571700  0.463800  0.842500  1.0
  C  C242  1  0.428300  0.536200  0.157500  1.0
  C  C243  1  0.627900  0.395200  0.824100  1.0
  C  C244  1  0.372100  0.604800  0.175900  1.0
  C  C245  1  0.677000  0.312500  0.961700  1.0
  C  C246  1  0.323000  0.687500  0.038300  1.0
  C  C247  1  0.649100  0.378500  0.761400  1.0
  C  C248  1  0.350900  0.621500  0.238600  1.0
  C  C249  1  0.453200  0.596500  0.881600  1.0
  C  C250  1  0.546800  0.403500  0.118400  1.0
  C  C251  1  0.385100  0.550800  0.846800  1.0
  C  C252  1  0.614900  0.449200  0.153200  1.0
  C  C253  1  0.321900  0.497000  0.870700  1.0
  C  C254  1  0.678100  0.503000  0.129300  1.0
  C  C255  1  0.253500  0.457800  0.839100  1.0
  C  C256  1  0.746500  0.542200  0.160900  1.0
  C  C257  1  0.243400  0.471700  0.781700  1.0
  C  C258  1  0.756600  0.528300  0.218300  1.0
  C  C259  1  0.306800  0.524200  0.761900  1.0
  C  C260  1  0.693200  0.475800  0.238100  1.0
  C  C261  1  0.301700  0.541500  0.703500  1.0
  C  C262  1  0.698300  0.458500  0.296500  1.0
  C  C263  1  0.377100  0.566700  0.680100  1.0
  C  C264  1  0.622900  0.433300  0.319900  1.0
  C  C265  1  0.373100  0.588000  0.624400  1.0
  C  C266  1  0.626900  0.412000  0.375600  1.0
  C  C267  1  0.293100  0.582100  0.599000  1.0
  C  C268  1  0.706900  0.417900  0.401000  1.0
  C  C269  1  0.218200  0.555500  0.626400  1.0
  C  C270  1  0.781800  0.444500  0.373600  1.0
  C  C271  1  0.129400  0.554000  0.601000  1.0
  C  C272  1  0.870600  0.446000  0.399000  1.0
  C  C273  1  0.133300  0.482000  0.506400  1.0
  C  C274  1  0.866700  0.518000  0.493600  1.0
  C  C275  1  0.121400  0.489400  0.450500  1.0
  C  C276  1  0.878600  0.510600  0.549500  1.0
  C  C277  1  0.124200  0.419300  0.409300  1.0
  C  C278  1  0.875800  0.580700  0.590700  1.0
  C  C279  1  0.858300  0.663400  0.575000  1.0
  C  C280  1  0.141700  0.336600  0.425000  1.0
  C  C281  1  0.842900  0.669900  0.518700  1.0
  C  C282  1  0.157100  0.330100  0.481300  1.0
  C  C283  1  0.153800  0.403400  0.521700  1.0
  C  C284  1  0.846200  0.596600  0.478300  1.0
  C  C285  1  0.112800  0.432500  0.348100  1.0
  C  C286  1  0.887200  0.567500  0.651900  1.0
  C  C287  1  0.821900  0.756900  0.499200  1.0
  C  C288  1  0.178100  0.243100  0.500800  1.0
  C  C289  1  0.745100  0.927900  0.848700  1.0
  C  C290  1  0.254900  0.072100  0.151300  1.0
  C  C291  1  0.727600  0.908000  0.900300  1.0
  C  C292  1  0.272400  0.092000  0.099700  1.0
  C  C293  1  0.802000  0.899800  0.935100  1.0
  C  C294  1  0.198000  0.100200  0.064900  1.0
  C  C295  1  0.887600  0.912900  0.916000  1.0
  C  C296  1  0.112400  0.087100  0.084000  1.0
  C  C297  1  0.901200  0.936200  0.863900  1.0
  C  C298  1  0.098800  0.063800  0.136100  1.0
  C  C299  1  0.987900  0.958800  0.840300  1.0
  C  C300  1  0.012100  0.041200  0.159700  1.0
  C  C301  1  0.071300  0.945100  0.861800  1.0
  C  C302  1  0.928700  0.054900  0.138200  1.0
  C  C303  1  0.148200  0.966600  0.833100  1.0
  C  C304  1  0.851800  0.033400  0.166900  1.0
  C  C305  1  0.141100  0.003100  0.785400  1.0
  C  C306  1  0.858900  0.996900  0.214600  1.0
  C  C307  1  0.056200  0.017300  0.764600  1.0
  C  C308  1  0.943800  0.982700  0.235400  1.0
  C  C309  1  0.033500  0.053600  0.711500  1.0
  C  C310  1  0.966500  0.946400  0.288500  1.0
  C  C311  1  0.094800  0.082100  0.677400  1.0
  C  C312  1  0.905200  0.917900  0.322600  1.0
  C  C313  1  0.066200  0.112800  0.629100  1.0
  C  C314  1  0.933800  0.887200  0.370900  1.0
  C  C315  1  0.974600  0.114100  0.617400  1.0
  C  C316  1  0.025400  0.885900  0.382600  1.0
  C  C317  1  0.916300  0.086600  0.655200  1.0
  C  C318  1  0.083700  0.913400  0.344800  1.0
  C  C319  1  0.941400  0.141700  0.564800  1.0
  C  C320  1  0.058600  0.858300  0.435200  1.0
  C  C321  1  0.950800  0.227100  0.553900  1.0
  C  C322  1  0.049200  0.772900  0.446100  1.0
  C  C323  1  0.921900  0.249200  0.503700  1.0
  C  C324  1  0.078100  0.750800  0.496300  1.0
  C  C325  1  0.881100  0.187800  0.462700  1.0
  C  C326  1  0.118900  0.812200  0.537300  1.0
  C  C327  1  0.869500  0.104200  0.473600  1.0
  C  C328  1  0.130500  0.895800  0.526400  1.0
  C  C329  1  0.900600  0.080400  0.523900  1.0
  C  C330  1  0.099400  0.919600  0.476100  1.0
  C  C331  1  0.989400  0.296700  0.598200  1.0
  C  C332  1  0.010600  0.703300  0.401800  1.0
  C  C333  1  0.888800  0.986000  0.534400  1.0
  C  C334  1  0.111200  0.014000  0.465600  1.0
  C  C335  1  0.812700  0.152700  0.373000  1.0
  C  C336  1  0.187300  0.847300  0.627000  1.0
  C  C337  1  0.783100  0.199500  0.324600  1.0
  C  C338  1  0.216900  0.800500  0.675400  1.0
  C  C339  1  0.820800  0.254600  0.248100  1.0
  C  C340  1  0.179200  0.745400  0.751900  1.0
  C  C341  1  0.894500  0.285900  0.214900  1.0
  C  C342  1  0.105500  0.714100  0.785100  1.0
  C  C343  1  0.861700  0.298800  0.158700  1.0
  C  C344  1  0.138300  0.701200  0.841300  1.0
  C  C345  1  0.937500  0.312200  0.121400  1.0
  C  C346  1  0.062500  0.687800  0.878600  1.0
  C  C347  1  0.913000  0.315000  0.062300  1.0
  C  C348  1  0.087000  0.685000  0.937700  1.0
  C  C349  1  0.886000  0.230000  0.033000  1.0
  C  C350  1  0.114000  0.770000  0.967000  1.0
  C  C351  1  0.781600  0.106600  0.014500  1.0
  C  C352  1  0.218400  0.893400  0.985500  1.0
  C  C353  1  0.695200  0.073800  0.034300  1.0
  C  C354  1  0.304800  0.926200  0.965700  1.0
  C  C355  1  0.541600  0.118700  0.043900  1.0
  C  C356  1  0.458400  0.881300  0.956100  1.0
  C  C357  1  0.518000  0.045000  0.067400  1.0
  C  C358  1  0.482000  0.955000  0.932600  1.0
  C  C359  1  0.428200  0.036400  0.086400  1.0
  C  C360  1  0.571800  0.963600  0.913600  1.0
  C  C361  1  0.633000  0.897200  0.919100  1.0
  C  C362  1  0.367000  0.102800  0.080900  1.0
  C  C363  1  0.605000  0.824000  0.942900  1.0
  C  C364  1  0.395000  0.176000  0.057100  1.0
  C  C365  1  0.482000  0.180800  0.038300  1.0
  C  C366  1  0.518000  0.819200  0.961700  1.0
  C  C367  1  0.404100  0.954300  0.108900  1.0
  C  C368  1  0.595900  0.045700  0.891100  1.0
  C  C369  1  0.668800  0.750700  0.949200  1.0
  C  C370  1  0.331200  0.249300  0.050800  1.0
  N  N371  1  0.868900  0.885400  0.702500  1.0
  N  N372  1  0.131100  0.114600  0.297500  1.0
  N  N373  1  0.740900  0.995900  0.721770  1.0
  N  N374  1  0.259100  0.004100  0.278230  1.0
  N  N375  1  0.808200  0.115800  0.796800  1.0
  N  N376  1  0.191800  0.884200  0.203200  1.0
  N  N377  1  0.829000  0.946300  0.829500  1.0
  N  N378  1  0.171000  0.053700  0.170500  1.0
  N  N379  1  0.980600  0.993400  0.792660  1.0
  N  N380  1  0.019400  0.006600  0.207340  1.0
  N  N381  1  0.943600  0.050400  0.706400  1.0
  N  N382  1  0.056400  0.949600  0.293600  1.0
  N  N383  1  0.225300  0.535100  0.678000  1.0
  N  N384  1  0.774700  0.464900  0.322000  1.0
  N  N385  1  0.377400  0.561200  0.794600  1.0
  N  N386  1  0.622600  0.438800  0.205400  1.0
  O  O387  1  0.494900  0.546700  0.921700  1.0
  O  O388  1  0.505100  0.453300  0.078300  1.0
  O  O389  1  0.125800  0.558500  0.542080  1.0
  O  O390  1  0.874200  0.441500  0.457920  1.0
  O  O391  1  0.853700  0.216400  0.414830  1.0
  O  O392  1  0.146300  0.783600  0.585170  1.0
  O  O393  1  0.860700  0.235100  0.299580  1.0
  O  O394  1  0.139300  0.764900  0.700420  1.0
  O  O395  1  0.807700  0.184800  0.050700  1.0
  O  O396  1  0.192300  0.815200  0.949300  1.0
  O  O397  1  0.627300  0.132600  0.024260  1.0
  O  O398  1  0.372700  0.867400  0.975740  1.0
  F  F399  1  0.166200  0.278600  0.911900  1
  F  F400  1  0.833800  0.721400  0.088100  1
  F  F401  1  0.105900  0.237000  0.990800  1
  F  F402  1  0.894100  0.763000  0.009200  1
  F  F403  1  0.178700  0.139400  0.930000  1
  F  F404  1  0.821300  0.860600  0.070000  1
  F  F405  1  0.015600  0.265900  0.921600  1
  F  F406  1  0.984400  0.734100  0.078400  1
  F  F407  1  0.087900  0.169700  0.859780  1
  F  F408  1  0.912100  0.830300  0.140220  1
  F  F409  1  0.029900  0.130100  0.938900  1
  F  F410  1  0.970100  0.869900  0.061100  1
  F  F411  1  0.523200  0.208800  0.519550  1
  F  F412  1  0.476800  0.791200  0.480450  1
  F  F413  1  0.422300  0.222800  0.451500  1
  F  F414  1  0.577700  0.777200  0.548500  1
  F  F415  1  0.533000  0.322600  0.471300  1
  F  F416  1  0.467000  0.677400  0.528700  1
  F  F417  1  0.534600  0.231100  0.389690  1
  F  F418  1  0.465400  0.768900  0.610310  1
  F  F419  1  0.636100  0.217700  0.457900  1
  F  F420  1  0.363900  0.782300  0.542100  1
  F  F421  1  0.525500  0.117500  0.437900  1
  F  F422  1  0.474500  0.882500  0.562100  1
  F  F423  1  0.573000  0.161900  0.496900  1
  F  F424  1  0.427000  0.838100  0.503100  1
  F  F425  1  0.447900  0.151800  0.443200  1
  F  F426  1  0.552100  0.848200  0.556800  1
  F  F427  1  0.474800  0.271400  0.505700  1
  F  F428  1  0.525200  0.728600  0.494300  1
  F  F429  1  0.485300  0.277900  0.412600  1
  F  F430  1  0.514700  0.722100  0.587400  1
  F  F431  1  0.610400  0.288000  0.466400  1
  F  F432  1  0.389600  0.712000  0.533600  1
  F  F433  1  0.583500  0.168400  0.403900  1
  F  F434  1  0.416500  0.831600  0.596100  1
