# generated using pymatgen
data_H84Pd3C62S6N12(ClO2)6
_symmetry_space_group_name_H-M   'P 1'
_cell_length_a   20.19592740
_cell_length_b   20.19592740
_cell_length_c   33.51043681
_cell_angle_alpha   104.56627509
_cell_angle_beta   104.56627509
_cell_angle_gamma   99.51986994
_symmetry_Int_Tables_number   1
_chemical_formula_structural   H84Pd3C62S6N12(ClO2)6
_chemical_formula_sum   'H336 Pd12 C248 S24 N48 Cl24 O48'
_cell_volume   12416.30725409
_cell_formula_units_Z   4
loop_
 _symmetry_equiv_pos_site_id
 _symmetry_equiv_pos_as_xyz
  1  'x, y, z'
loop_
 _atom_site_type_symbol
 _atom_site_label
 _atom_site_symmetry_multiplicity
 _atom_site_fract_x
 _atom_site_fract_y
 _atom_site_fract_z
 _atom_site_occupancy
  C  C1  1  0.313100  0.739100  0.847200  1
  C  C2  1  0.034100  0.108100  0.847200  1
  C  C3  1  0.760900  0.186900  0.652800  1
  C  C4  1  0.391900  0.465900  0.652800  1
  C  C5  1  0.686900  0.260900  0.152800  1
  C  C6  1  0.965900  0.891900  0.152800  1
  C  C7  1  0.239100  0.813100  0.347200  1
  C  C8  1  0.608100  0.534100  0.347200  1
  C  C9  1  0.446700  0.823700  0.894000  1
  C  C10  1  0.947300  0.070300  0.894000  1
  C  C11  1  0.676300  0.053300  0.606000  1
  C  C12  1  0.429700  0.552700  0.606000  1
  C  C13  1  0.553300  0.176300  0.106000  1
  C  C14  1  0.052700  0.929700  0.106000  1
  C  C15  1  0.323700  0.946700  0.394000  1
  C  C16  1  0.570300  0.447300  0.394000  1
  C  C17  1  0.286500  0.858700  0.799800  1.0
  C  C18  1  0.013300  0.941100  0.799800  1.0
  C  C19  1  0.641300  0.213500  0.700200  1.0
  C  C20  1  0.558900  0.486700  0.700200  1.0
  C  C21  1  0.713500  0.141300  0.200200  1.0
  C  C22  1  0.986700  0.058900  0.200200  1.0
  C  C23  1  0.358700  0.786500  0.299800  1.0
  C  C24  1  0.441100  0.513300  0.299800  1.0
  C  C25  1  0.310720  0.990520  0.814640  1.0
  C  C26  1  0.003920  0.824120  0.814640  1.0
  C  C27  1  0.509480  0.189280  0.685360  1.0
  C  C28  1  0.675880  0.496080  0.685360  1.0
  C  C29  1  0.689280  0.009480  0.185360  1.0
  C  C30  1  0.996080  0.175880  0.185360  1.0
  C  C31  1  0.490520  0.810720  0.314640  1.0
  C  C32  1  0.324120  0.503920  0.314640  1.0
  C  C33  1  0.169140  0.528540  0.677680  1.0
  C  C34  1  0.008540  0.149140  0.677680  1.0
  C  C35  1  0.971460  0.330860  0.822320  1.0
  C  C36  1  0.350860  0.491460  0.822320  1.0
  C  C37  1  0.830860  0.471460  0.322320  1.0
  C  C38  1  0.991460  0.850860  0.322320  1.0
  C  C39  1  0.028540  0.669140  0.177680  1.0
  C  C40  1  0.649140  0.508540  0.177680  1.0
  C  C41  1  0.120150  0.541350  0.646100  1.0
  C  C42  1  0.025950  0.104750  0.646100  1.0
  C  C43  1  0.958650  0.379850  0.853900  1.0
  C  C44  1  0.395250  0.474050  0.853900  1.0
  C  C45  1  0.879850  0.458650  0.353900  1.0
  C  C46  1  0.974050  0.895250  0.353900  1.0
  C  C47  1  0.041350  0.620150  0.146100  1.0
  C  C48  1  0.604750  0.525950  0.146100  1.0
  C  C49  1  0.050120  0.508720  0.636040  1.0
  C  C50  1  0.085920  0.127320  0.636040  1.0
  C  C51  1  0.991280  0.449880  0.863960  1.0
  C  C52  1  0.372680  0.414080  0.863960  1.0
  C  C53  1  0.949880  0.491280  0.363960  1.0
  C  C54  1  0.914080  0.872680  0.363960  1.0
  C  C55  1  0.008720  0.550120  0.136040  1.0
  C  C56  1  0.627320  0.585920  0.136040  1.0
  C  C57  1  0.031210  0.463810  0.658820  1.0
  C  C58  1  0.127610  0.195010  0.658820  1.0
  C  C59  1  0.036190  0.468790  0.841180  1.0
  C  C60  1  0.304990  0.372390  0.841180  1.0
  C  C61  1  0.968790  0.536190  0.341180  1.0
  C  C62  1  0.872390  0.804990  0.341180  1.0
  C  C63  1  0.963810  0.531210  0.158820  1.0
  C  C64  1  0.695010  0.627610  0.158820  1.0
  C  C65  1  0.081790  0.453790  0.691980  1.0
  C  C66  1  0.110190  0.238190  0.691980  1.0
  C  C67  1  0.046210  0.418210  0.808020  1.0
  C  C68  1  0.261810  0.389810  0.808020  1.0
  C  C69  1  0.918210  0.546210  0.308020  1.0
  C  C70  1  0.889810  0.761810  0.308020  1.0
  C  C71  1  0.953790  0.581790  0.191980  1.0
  C  C72  1  0.738190  0.610190  0.191980  1.0
  C  C73  1  0.246170  0.562770  0.690340  1.0
  C  C74  1  0.944170  0.127570  0.690340  1.0
  C  C75  1  0.937230  0.253830  0.809660  1.0
  C  C76  1  0.372430  0.555830  0.809660  1.0
  C  C77  1  0.753830  0.437230  0.309660  1.0
  C  C78  1  0.055830  0.872430  0.309660  1.0
  C  C79  1  0.062770  0.746170  0.190340  1.0
  C  C80  1  0.627570  0.444170  0.190340  1.0
  C  C81  1  0.267330  0.676930  0.678260  1.0
  C  C82  1  0.910930  0.001330  0.678260  1.0
  C  C83  1  0.823070  0.232670  0.821740  1.0
  C  C84  1  0.498670  0.589070  0.821740  1.0
  C  C85  1  0.732670  0.323070  0.321740  1.0
  C  C86  1  0.089070  0.998670  0.321740  1.0
  C  C87  1  0.176930  0.767330  0.178260  1.0
  C  C88  1  0.501330  0.410930  0.178260  1.0
  C  C89  1  0.333320  0.698520  0.448640  1.0
  C  C90  1  0.615320  0.750120  0.448640  1.0
  C  C91  1  0.801480  0.166680  0.051360  1.0
  C  C92  1  0.749880  0.884680  0.051360  1.0
  C  C93  1  0.666680  0.301480  0.551360  1.0
  C  C94  1  0.384680  0.249880  0.551360  1.0
  C  C95  1  0.198520  0.833320  0.948640  1.0
  C  C96  1  0.250120  0.115320  0.948640  1.0
  C  C97  1  0.262800  0.682200  0.443600  1.0
  C  C98  1  0.680800  0.761400  0.443600  1.0
  C  C99  1  0.817800  0.237200  0.056400  1.0
  C  C100  1  0.738600  0.819200  0.056400  1.0
  C  C101  1  0.737200  0.317800  0.556400  1.0
  C  C102  1  0.319200  0.238600  0.556400  1.0
  C  C103  1  0.182200  0.762800  0.943600  1.0
  C  C104  1  0.261400  0.180800  0.943600  1.0
  C  C105  1  0.216600  0.661600  0.404800  1.0
  C  C106  1  0.688200  0.743200  0.404800  1.0
  C  C107  1  0.838400  0.283400  0.095200  1.0
  C  C108  1  0.756800  0.811800  0.095200  1.0
  C  C109  1  0.783400  0.338400  0.595200  1.0
  C  C110  1  0.311800  0.256800  0.595200  1.0
  C  C111  1  0.161600  0.716600  0.904800  1.0
  C  C112  1  0.243200  0.188200  0.904800  1.0
  C  C113  1  0.240220  0.655020  0.370840  1.0
  C  C114  1  0.630620  0.715820  0.370840  1.0
  C  C115  1  0.844980  0.259780  0.129160  1.0
  C  C116  1  0.784180  0.869380  0.129160  1.0
  C  C117  1  0.759780  0.344980  0.629160  1.0
  C  C118  1  0.369380  0.284180  0.629160  1.0
  C  C119  1  0.155020  0.740220  0.870840  1.0
  C  C120  1  0.215820  0.130620  0.870840  1.0
  C  C121  1  0.310810  0.670810  0.376220  1.0
  C  C122  1  0.565410  0.705410  0.376220  1.0
  C  C123  1  0.829190  0.189190  0.123780  1.0
  C  C124  1  0.794590  0.934590  0.123780  1.0
  C  C125  1  0.689190  0.329190  0.623780  1.0
  C  C126  1  0.434590  0.294590  0.623780  1.0
  C  C127  1  0.170810  0.810810  0.876220  1.0
  C  C128  1  0.205410  0.065410  0.876220  1.0
  C  C129  1  0.389390  0.720790  0.491980  1.0
  C  C130  1  0.602590  0.771190  0.491980  1.0
  C  C131  1  0.779210  0.110610  0.008020  1.0
  C  C132  1  0.728810  0.897410  0.008020  1.0
  C  C133  1  0.610610  0.279210  0.508020  1.0
  C  C134  1  0.397410  0.228810  0.508020  1.0
  C  C135  1  0.220790  0.889390  0.991980  1.0
  C  C136  1  0.271190  0.102590  0.991980  1.0
  C  C137  1  0.341730  0.702730  0.550060  1.0
  C  C138  1  0.708330  0.847330  0.550060  1.0
  C  C139  1  0.797270  0.158270  0.949940  1.0
  C  C140  1  0.652670  0.791670  0.949940  1.0
  C  C141  1  0.658270  0.297270  0.449940  1.0
  C  C142  1  0.291670  0.152670  0.449940  1.0
  C  C143  1  0.202730  0.841730  0.050060  1.0
  C  C144  1  0.347330  0.208330  0.050060  1.0
  C  C145  1  0.235100  0.029100  0.712400  1.0
  C  C146  1  0.977300  0.683300  0.712400  1.0
  C  C147  1  0.470900  0.264900  0.787600  1.0
  C  C148  1  0.816700  0.522700  0.787600  1.0
  C  C149  1  0.764900  0.970900  0.287600  1.0
  C  C150  1  0.022700  0.316700  0.287600  1.0
  C  C151  1  0.529100  0.735100  0.212400  1.0
  C  C152  1  0.183300  0.477300  0.212400  1.0
  C  C153  1  0.175600  0.977600  0.702600  1.0
  C  C154  1  0.027000  0.725000  0.702600  1.0
  C  C155  1  0.522400  0.324400  0.797400  1.0
  C  C156  1  0.775000  0.473000  0.797400  1.0
  C  C157  1  0.824400  0.022400  0.297400  1.0
  C  C158  1  0.973000  0.275000  0.297400  1.0
  C  C159  1  0.477600  0.675600  0.202600  1.0
  C  C160  1  0.225000  0.527000  0.202600  1.0
  C  C161  1  0.117570  0.989770  0.712340  1.0
  C  C162  1  0.094770  0.722570  0.712340  1.0
  C  C163  1  0.510230  0.382430  0.787660  1.0
  C  C164  1  0.777430  0.405230  0.787660  1.0
  C  C165  1  0.882430  0.010230  0.287660  1.0
  C  C166  1  0.905230  0.277430  0.287660  1.0
  C  C167  1  0.489770  0.617570  0.212340  1.0
  C  C168  1  0.222570  0.594770  0.212340  1.0
  C  C169  1  0.122290  0.060290  0.735580  1.0
  C  C170  1  0.113290  0.675290  0.735580  1.0
  C  C171  1  0.439710  0.377710  0.764420  1.0
  C  C172  1  0.824710  0.386710  0.764420  1.0
  C  C173  1  0.877710  0.939710  0.264420  1.0
  C  C174  1  0.886710  0.324710  0.264420  1.0
  C  C175  1  0.560290  0.622290  0.235580  1.0
  C  C176  1  0.175290  0.613290  0.235580  1.0
  C  C177  1  0.182610  0.111410  0.745020  1.0
  C  C178  1  0.062410  0.633610  0.745020  1.0
  C  C179  1  0.388590  0.317390  0.754980  1.0
  C  C180  1  0.866390  0.437590  0.754980  1.0
  C  C181  1  0.817390  0.888590  0.254980  1.0
  C  C182  1  0.937590  0.366390  0.254980  1.0
  C  C183  1  0.611410  0.682610  0.245020  1.0
  C  C184  1  0.133610  0.562410  0.245020  1.0
  C  C185  1  0.300940  0.015540  0.702280  1.0
  C  C186  1  0.901340  0.686740  0.702280  1.0
  C  C187  1  0.484460  0.199060  0.797720  1.0
  C  C188  1  0.813260  0.598660  0.797720  1.0
  C  C189  1  0.699060  0.984460  0.297720  1.0
  C  C190  1  0.098660  0.313260  0.297720  1.0
  C  C191  1  0.515540  0.800940  0.202280  1.0
  C  C192  1  0.186740  0.401340  0.202280  1.0
  C  C193  1  0.287000  0.907200  0.647600  1.0
  C  C194  1  0.860600  0.740400  0.647600  1.0
  C  C195  1  0.592800  0.213000  0.852400  1.0
  C  C196  1  0.759600  0.639400  0.852400  1.0
  C  C197  1  0.713000  0.092800  0.352400  1.0
  C  C198  1  0.139400  0.259600  0.352400  1.0
  C  C199  1  0.407200  0.787000  0.147600  1.0
  C  C200  1  0.240400  0.360600  0.147600  1.0
  C  C201  1  0.286640  0.720440  0.650880  1.0
  C  C202  1  0.864240  0.930440  0.650880  1.0
  C  C203  1  0.779560  0.213360  0.849120  1.0
  C  C204  1  0.569560  0.635760  0.849120  1.0
  C  C205  1  0.713360  0.279560  0.349120  1.0
  C  C206  1  0.135760  0.069560  0.349120  1.0
  C  C207  1  0.220440  0.786640  0.150880  1.0
  C  C208  1  0.430440  0.364240  0.150880  1.0
  C  C209  1  0.306160  0.693960  0.615520  1.0
  C  C210  1  0.809360  0.921560  0.615520  1.0
  C  C211  1  0.806040  0.193840  0.884480  1.0
  C  C212  1  0.578440  0.690640  0.884480  1.0
  C  C213  1  0.693840  0.306040  0.384480  1.0
  C  C214  1  0.190640  0.078440  0.384480  1.0
  C  C215  1  0.193960  0.806160  0.115520  1.0
  C  C216  1  0.421560  0.309360  0.115520  1.0
  C  C217  1  0.320950  0.736950  0.589300  1.0
  C  C218  1  0.768350  0.852350  0.589300  1.0
  C  C219  1  0.763050  0.179050  0.910700  1.0
  C  C220  1  0.647650  0.731650  0.910700  1.0
  C  C221  1  0.679050  0.263050  0.410700  1.0
  C  C222  1  0.231650  0.147650  0.410700  1.0
  C  C223  1  0.236950  0.820950  0.089300  1.0
  C  C224  1  0.352350  0.268350  0.089300  1.0
  C  C225  1  0.315410  0.804210  0.600820  1.0
  C  C226  1  0.785410  0.796610  0.600820  1.0
  C  C227  1  0.695790  0.184590  0.899180  1.0
  C  C228  1  0.703390  0.714590  0.899180  1.0
  C  C229  1  0.684590  0.195790  0.399180  1.0
  C  C230  1  0.214590  0.203390  0.399180  1.0
  C  C231  1  0.304210  0.815410  0.100820  1.0
  C  C232  1  0.296610  0.285410  0.100820  1.0
  C  C233  1  0.295280  0.831680  0.637960  1.0
  C  C234  1  0.842680  0.806280  0.637960  1.0
  C  C235  1  0.668320  0.204720  0.862040  1.0
  C  C236  1  0.693720  0.657320  0.862040  1.0
  C  C237  1  0.704720  0.168320  0.362040  1.0
  C  C238  1  0.157320  0.193720  0.362040  1.0
  C  C239  1  0.331680  0.795280  0.137960  1.0
  C  C240  1  0.306280  0.342680  0.137960  1.0
  C  C241  1  0.281130  0.790730  0.662060  1.0
  C  C242  1  0.880930  0.871330  0.662060  1.0
  C  C243  1  0.709270  0.218870  0.837940  1.0
  C  C244  1  0.628670  0.619070  0.837940  1.0
  C  C245  1  0.718870  0.209270  0.337940  1.0
  C  C246  1  0.119070  0.128670  0.337940  1.0
  C  C247  1  0.290730  0.781130  0.162060  1.0
  C  C248  1  0.371330  0.380930  0.162060  1.0
  Cl  Cl249  1  0.251650  0.389970  0.700900  1.0
  Cl  Cl250  1  0.949250  0.310930  0.700900  1.0
  Cl  Cl251  1  0.110030  0.248350  0.799100  1.0
  Cl  Cl252  1  0.189070  0.550750  0.799100  1.0
  Cl  Cl253  1  0.748350  0.610030  0.299100  1.0
  Cl  Cl254  1  0.050750  0.689070  0.299100  1.0
  Cl  Cl255  1  0.889970  0.751650  0.200900  1.0
  Cl  Cl256  1  0.810930  0.449250  0.200900  1.0
  Cl  Cl257  1  0.461040  0.824680  0.422340  1.0
  Cl  Cl258  1  0.461300  0.597660  0.422340  1.0
  Cl  Cl259  1  0.675320  0.038960  0.077660  1.0
  Cl  Cl260  1  0.902340  0.038700  0.077660  1.0
  Cl  Cl261  1  0.538960  0.175320  0.577660  1.0
  Cl  Cl262  1  0.538700  0.402340  0.577660  1.0
  Cl  Cl263  1  0.324680  0.961040  0.922340  1.0
  Cl  Cl264  1  0.097660  0.961300  0.922340  1.0
  Cl  Cl265  1  0.332280  0.190860  0.821440  1.0
  Cl  Cl266  1  0.989160  0.630580  0.821440  1.0
  Cl  Cl267  1  0.309140  0.167720  0.678560  1.0
  Cl  Cl268  1  0.869420  0.510840  0.678560  1.0
  Cl  Cl269  1  0.667720  0.809140  0.178560  1.0
  Cl  Cl270  1  0.010840  0.369420  0.178560  1.0
  Cl  Cl271  1  0.690860  0.832280  0.321440  1.0
  Cl  Cl272  1  0.130580  0.489160  0.321440  1.0
  H  H273  1  0.294200  0.780800  0.847400  1
  H  H274  1  0.053200  0.066600  0.847400  1
  H  H275  1  0.719200  0.205800  0.652600  1
  H  H276  1  0.433400  0.446800  0.652600  1
  H  H277  1  0.705800  0.219200  0.152600  1
  H  H278  1  0.946800  0.933400  0.152600  1
  H  H279  1  0.280800  0.794200  0.347400  1
  H  H280  1  0.566600  0.553200  0.347400  1
  H  H281  1  0.332900  0.728300  0.823200  1
  H  H282  1  0.990300  0.094900  0.823200  1
  H  H283  1  0.771700  0.167100  0.676800  1
  H  H284  1  0.405100  0.509700  0.676800  1
  H  H285  1  0.667100  0.271700  0.176800  1
  H  H286  1  0.009700  0.905100  0.176800  1
  H  H287  1  0.228300  0.832900  0.323200  1
  H  H288  1  0.594900  0.490300  0.323200  1
  H  H289  1  0.275100  0.698900  0.843600  1
  H  H290  1  0.068500  0.144700  0.843600  1
  H  H291  1  0.801100  0.224900  0.656400  1
  H  H292  1  0.355300  0.431500  0.656400  1
  H  H293  1  0.724900  0.301100  0.156400  1
  H  H294  1  0.931500  0.855300  0.156400  1
  H  H295  1  0.198900  0.775100  0.343600  1
  H  H296  1  0.644700  0.568500  0.343600  1
  H  H297  1  0.427400  0.865400  0.896400  1
  H  H298  1  0.969000  0.031000  0.896400  1
  H  H299  1  0.634600  0.072600  0.603600  1
  H  H300  1  0.469000  0.531000  0.603600  1
  H  H301  1  0.572600  0.134600  0.103600  1
  H  H302  1  0.031000  0.969000  0.103600  1
  H  H303  1  0.365400  0.927400  0.396400  1
  H  H304  1  0.531000  0.469000  0.396400  1
  H  H305  1  0.494300  0.836700  0.914400  1
  H  H306  1  0.920100  0.077700  0.914400  1
  H  H307  1  0.663300  0.005700  0.585600  1
  H  H308  1  0.422300  0.579900  0.585600  1
  H  H309  1  0.505700  0.163300  0.085600  1
  H  H310  1  0.079900  0.922300  0.085600  1
  H  H311  1  0.336700  0.994300  0.414400  1
  H  H312  1  0.577700  0.420100  0.414400  1
  H  H313  1  0.448500  0.805100  0.864400  1
  H  H314  1  0.915900  0.059300  0.864400  1
  H  H315  1  0.694900  0.051500  0.635600  1
  H  H316  1  0.440700  0.584100  0.635600  1
  H  H317  1  0.551500  0.194900  0.135600  1
  H  H318  1  0.084100  0.940700  0.135600  1
  H  H319  1  0.305100  0.948500  0.364400  1
  H  H320  1  0.559300  0.415900  0.364400  1
  H  H321  1  0.324900  0.855100  0.787000  1
  H  H322  1  0.962100  0.931900  0.787000  1
  H  H323  1  0.644900  0.175100  0.713000  1
  H  H324  1  0.568100  0.537900  0.713000  1
  H  H325  1  0.675100  0.144900  0.213000  1
  H  H326  1  0.037900  0.068100  0.213000  1
  H  H327  1  0.355100  0.824900  0.287000  1
  H  H328  1  0.431900  0.462100  0.287000  1
  H  H329  1  0.306200  0.878000  0.831400  1
  H  H330  1  0.025200  0.953400  0.831400  1
  H  H331  1  0.622000  0.193800  0.668600  1
  H  H332  1  0.546600  0.474800  0.668600  1
  H  H333  1  0.693800  0.122000  0.168600  1
  H  H334  1  0.974800  0.046600  0.168600  1
  H  H335  1  0.378000  0.806200  0.331400  1
  H  H336  1  0.453400  0.525200  0.331400  1
  H  H337  1  0.255200  0.811600  0.792000  1
  H  H338  1  0.036800  0.980400  0.792000  1
  H  H339  1  0.688400  0.244800  0.708000  1
  H  H340  1  0.519600  0.463200  0.708000  1
  H  H341  1  0.744800  0.188400  0.208000  1
  H  H342  1  0.963200  0.019600  0.208000  1
  H  H343  1  0.311600  0.755200  0.292000  1
  H  H344  1  0.480400  0.536800  0.292000  1
  H  H345  1  0.291300  0.028700  0.807200  1
  H  H346  1  0.015900  0.778500  0.807200  1
  H  H347  1  0.471300  0.208700  0.692800  1
  H  H348  1  0.721500  0.484100  0.692800  1
  H  H349  1  0.708700  0.971300  0.192800  1
  H  H350  1  0.984100  0.221500  0.192800  1
  H  H351  1  0.528700  0.791300  0.307200  1
  H  H352  1  0.278500  0.515900  0.307200  1
  H  H353  1  0.319700  0.997500  0.845800  1
  H  H354  1  0.026100  0.848300  0.845800  1
  H  H355  1  0.502500  0.180300  0.654200  1
  H  H356  1  0.651700  0.473900  0.654200  1
  H  H357  1  0.680300  0.002500  0.154200  1
  H  H358  1  0.973900  0.151700  0.154200  1
  H  H359  1  0.497500  0.819700  0.345800  1
  H  H360  1  0.348300  0.526100  0.345800  1
  H  H361  1  0.355000  0.991000  0.807600  1
  H  H362  1  0.952600  0.816600  0.807600  1
  H  H363  1  0.509000  0.145000  0.692400  1
  H  H364  1  0.683400  0.547400  0.692400  1
  H  H365  1  0.645000  0.009000  0.192400  1
  H  H366  1  0.047400  0.183400  0.192400  1
  H  H367  1  0.491000  0.855000  0.307600  1
  H  H368  1  0.316600  0.452600  0.307600  1
  H  H369  1  0.300100  0.813700  0.793200  1.0
  H  H370  1  0.993100  0.979500  0.793200  1.0
  H  H371  1  0.686300  0.199900  0.706800  1.0
  H  H372  1  0.520500  0.506900  0.706800  1.0
  H  H373  1  0.699900  0.186300  0.206800  1.0
  H  H374  1  0.006900  0.020500  0.206800  1.0
  H  H375  1  0.313700  0.800100  0.293200  1.0
  H  H376  1  0.479500  0.493100  0.293200  1.0
  H  H377  1  0.275500  0.867500  0.827200  1.0
  H  H378  1  0.051700  0.959700  0.827200  1.0
  H  H379  1  0.632500  0.224500  0.672800  1.0
  H  H380  1  0.540300  0.448300  0.672800  1.0
  H  H381  1  0.724500  0.132500  0.172800  1.0
  H  H382  1  0.948300  0.040300  0.172800  1.0
  H  H383  1  0.367500  0.775500  0.327200  1.0
  H  H384  1  0.459700  0.551700  0.327200  1.0
  H  H385  1  0.244600  0.856400  0.776400  1.0
  H  H386  1  0.031800  0.920000  0.776400  1.0
  H  H387  1  0.643600  0.255400  0.723600  1.0
  H  H388  1  0.580000  0.468200  0.723600  1.0
  H  H389  1  0.755400  0.143600  0.223600  1.0
  H  H390  1  0.968200  0.080000  0.223600  1.0
  H  H391  1  0.356400  0.744600  0.276400  1.0
  H  H392  1  0.420000  0.531800  0.276400  1.0
  H  H393  1  0.344000  0.034400  0.818000  1.0
  H  H394  1  0.974000  0.783600  0.818000  1.0
  H  H395  1  0.465600  0.156000  0.682000  1.0
  H  H396  1  0.716400  0.526000  0.682000  1.0
  H  H397  1  0.656000  0.965600  0.182000  1.0
  H  H398  1  0.026000  0.216400  0.182000  1.0
  H  H399  1  0.534400  0.844000  0.318000  1.0
  H  H400  1  0.283600  0.474000  0.318000  1.0
  H  H401  1  0.267800  0.983000  0.790800  1.0
  H  H402  1  0.023000  0.807800  0.790800  1.0
  H  H403  1  0.517000  0.232200  0.709200  1.0
  H  H404  1  0.692200  0.477000  0.709200  1.0
  H  H405  1  0.732200  0.017000  0.209200  1.0
  H  H406  1  0.977000  0.192200  0.209200  1.0
  H  H407  1  0.483000  0.767800  0.290800  1.0
  H  H408  1  0.307800  0.523000  0.290800  1.0
  H  H409  1  0.298700  0.994100  0.841600  1.0
  H  H410  1  0.042900  0.847500  0.841600  1.0
  H  H411  1  0.505900  0.201300  0.658400  1.0
  H  H412  1  0.652500  0.457100  0.658400  1.0
  H  H413  1  0.701300  0.005900  0.158400  1.0
  H  H414  1  0.957100  0.152500  0.158400  1.0
  H  H415  1  0.494100  0.798700  0.341600  1.0
  H  H416  1  0.347500  0.542900  0.341600  1.0
  H  H417  1  0.270200  0.590400  0.640400  1.0
  H  H418  1  0.870200  0.050000  0.640400  1.0
  H  H419  1  0.909600  0.229800  0.859600  1.0
  H  H420  1  0.450000  0.629800  0.859600  1.0
  H  H421  1  0.729800  0.409600  0.359600  1.0
  H  H422  1  0.129800  0.950000  0.359600  1.0
  H  H423  1  0.090400  0.770200  0.140400  1.0
  H  H424  1  0.550000  0.370200  0.140400  1.0
  H  H425  1  0.359500  0.790500  0.539000  1.0
  H  H426  1  0.679500  0.748500  0.539000  1.0
  H  H427  1  0.709500  0.140500  0.961000  1.0
  H  H428  1  0.751500  0.820500  0.961000  1.0
  H  H429  1  0.640500  0.209500  0.461000  1.0
  H  H430  1  0.320500  0.251500  0.461000  1.0
  H  H431  1  0.290500  0.859500  0.039000  1.0
  H  H432  1  0.248500  0.179500  0.039000  1.0
  H  H433  1  0.310500  0.919500  0.707000  1.0
  H  H434  1  0.896500  0.787500  0.707000  1.0
  H  H435  1  0.580500  0.189500  0.793000  1.0
  H  H436  1  0.712500  0.603500  0.793000  1.0
  H  H437  1  0.689500  0.080500  0.293000  1.0
  H  H438  1  0.103500  0.212500  0.293000  1.0
  H  H439  1  0.419500  0.810500  0.207000  1.0
  H  H440  1  0.287500  0.396500  0.207000  1.0
  H  H441  1  0.134400  0.572600  0.631200  1.0
  H  H442  1  0.996800  0.058600  0.631200  1.0
  H  H443  1  0.927400  0.365600  0.868800  1.0
  H  H444  1  0.441400  0.503200  0.868800  1.0
  H  H445  1  0.865600  0.427400  0.368800  1.0
  H  H446  1  0.003200  0.941400  0.368800  1.0
  H  H447  1  0.072600  0.634400  0.131200  1.0
  H  H448  1  0.558600  0.496800  0.131200  1.0
  H  H449  1  0.015400  0.516800  0.614000  1.0
  H  H450  1  0.098600  0.097200  0.614000  1.0
  H  H451  1  0.983200  0.484600  0.886000  1.0
  H  H452  1  0.402800  0.401400  0.886000  1.0
  H  H453  1  0.984600  0.483200  0.386000  1.0
  H  H454  1  0.901400  0.902800  0.386000  1.0
  H  H455  1  0.016800  0.515400  0.114000  1.0
  H  H456  1  0.597200  0.598600  0.114000  1.0
  H  H457  1  0.983300  0.439700  0.651600  1.0
  H  H458  1  0.168300  0.211900  0.651600  1.0
  H  H459  1  0.060300  0.516700  0.848400  1.0
  H  H460  1  0.288100  0.331700  0.848400  1.0
  H  H461  1  0.016700  0.560300  0.348400  1.0
  H  H462  1  0.831700  0.788100  0.348400  1.0
  H  H463  1  0.939700  0.483300  0.151600  1.0
  H  H464  1  0.711900  0.668300  0.151600  1.0
  H  H465  1  0.068700  0.423500  0.707800  1.0
  H  H466  1  0.139100  0.284300  0.707800  1.0
  H  H467  1  0.076500  0.431300  0.792200  1.0
  H  H468  1  0.215700  0.360900  0.792200  1.0
  H  H469  1  0.931300  0.576500  0.292200  1.0
  H  H470  1  0.860900  0.715700  0.292200  1.0
  H  H471  1  0.923500  0.568700  0.207800  1.0
  H  H472  1  0.784300  0.639100  0.207800  1.0
  H  H473  1  0.262600  0.590800  0.721400  1.0
  H  H474  1  0.958800  0.130600  0.721400  1.0
  H  H475  1  0.909200  0.237400  0.778600  1.0
  H  H476  1  0.369400  0.541200  0.778600  1.0
  H  H477  1  0.737400  0.409200  0.278600  1.0
  H  H478  1  0.041200  0.869400  0.278600  1.0
  H  H479  1  0.090800  0.762600  0.221400  1.0
  H  H480  1  0.630600  0.458800  0.221400  1.0
  H  H481  1  0.272400  0.525600  0.686800  1.0
  H  H482  1  0.914400  0.161200  0.686800  1.0
  H  H483  1  0.974400  0.227600  0.813200  1.0
  H  H484  1  0.338800  0.585600  0.813200  1.0
  H  H485  1  0.727600  0.474400  0.313200  1.0
  H  H486  1  0.085600  0.838800  0.313200  1.0
  H  H487  1  0.025600  0.772400  0.186800  1.0
  H  H488  1  0.661200  0.414400  0.186800  1.0
  H  H489  1  0.247100  0.685900  0.468400  1.0
  H  H490  1  0.721300  0.782500  0.468400  1.0
  H  H491  1  0.814100  0.252900  0.031600  1.0
  H  H492  1  0.717500  0.778700  0.031600  1.0
  H  H493  1  0.752900  0.314100  0.531600  1.0
  H  H494  1  0.278700  0.217500  0.531600  1.0
  H  H495  1  0.185900  0.747100  0.968400  1.0
  H  H496  1  0.282500  0.221300  0.968400  1.0
  H  H497  1  0.167400  0.651600  0.401200  1.0
  H  H498  1  0.733800  0.749600  0.401200  1.0
  H  H499  1  0.848400  0.332600  0.098800  1.0
  H  H500  1  0.750400  0.766200  0.098800  1.0
  H  H501  1  0.832600  0.348400  0.598800  1.0
  H  H502  1  0.266200  0.250400  0.598800  1.0
  H  H503  1  0.151600  0.667400  0.901200  1.0
  H  H504  1  0.249600  0.233800  0.901200  1.0
  H  H505  1  0.207600  0.639200  0.342400  1.0
  H  H506  1  0.634800  0.703200  0.342400  1.0
  H  H507  1  0.860800  0.292400  0.157600  1.0
  H  H508  1  0.796800  0.865200  0.157600  1.0
  H  H509  1  0.792400  0.360800  0.657600  1.0
  H  H510  1  0.365200  0.296800  0.657600  1.0
  H  H511  1  0.139200  0.707600  0.842400  1.0
  H  H512  1  0.203200  0.134800  0.842400  1.0
  H  H513  1  0.327400  0.666200  0.351800  1.0
  H  H514  1  0.524400  0.685600  0.351800  1.0
  H  H515  1  0.833800  0.172600  0.148200  1.0
  H  H516  1  0.814400  0.975600  0.148200  1.0
  H  H517  1  0.672600  0.333800  0.648200  1.0
  H  H518  1  0.475600  0.314400  0.648200  1.0
  H  H519  1  0.166200  0.827400  0.851800  1.0
  H  H520  1  0.185600  0.024400  0.851800  1.0
  H  H521  1  0.427700  0.759100  0.492800  1.0
  H  H522  1  0.565100  0.733700  0.492800  1.0
  H  H523  1  0.740900  0.072300  0.007200  1.0
  H  H524  1  0.766300  0.934900  0.007200  1.0
  H  H525  1  0.572300  0.240900  0.507200  1.0
  H  H526  1  0.434900  0.266300  0.507200  1.0
  H  H527  1  0.259100  0.927700  0.992800  1.0
  H  H528  1  0.233700  0.065100  0.992800  1.0
  H  H529  1  0.409800  0.680400  0.495200  1.0
  H  H530  1  0.585400  0.814800  0.495200  1.0
  H  H531  1  0.819600  0.090200  0.004800  1.0
  H  H532  1  0.685200  0.914600  0.004800  1.0
  H  H533  1  0.590200  0.319600  0.504800  1.0
  H  H534  1  0.414600  0.185200  0.504800  1.0
  H  H535  1  0.180400  0.909800  0.995200  1.0
  H  H536  1  0.314800  0.085400  0.995200  1.0
  H  H537  1  0.175200  0.930600  0.688000  1.0
  H  H538  1  0.012800  0.757400  0.688000  1.0
  H  H539  1  0.569400  0.324800  0.812000  1.0
  H  H540  1  0.742600  0.487200  0.812000  1.0
  H  H541  1  0.824800  0.069400  0.312000  1.0
  H  H542  1  0.987200  0.242600  0.312000  1.0
  H  H543  1  0.430600  0.675200  0.188000  1.0
  H  H544  1  0.257400  0.512800  0.188000  1.0
  H  H545  1  0.075900  0.953300  0.704200  1.0
  H  H546  1  0.128300  0.750900  0.704200  1.0
  H  H547  1  0.546700  0.424100  0.795800  1.0
  H  H548  1  0.749100  0.371700  0.795800  1.0
  H  H549  1  0.924100  0.046700  0.295800  1.0
  H  H550  1  0.871700  0.249100  0.295800  1.0
  H  H551  1  0.453300  0.575900  0.204200  1.0
  H  H552  1  0.250900  0.628300  0.204200  1.0
  H  H553  1  0.083600  0.072200  0.744600  1.0
  H  H554  1  0.161000  0.672400  0.744600  1.0
  H  H555  1  0.427800  0.416400  0.755400  1.0
  H  H556  1  0.827600  0.339000  0.755400  1.0
  H  H557  1  0.916400  0.927800  0.255400  1.0
  H  H558  1  0.839000  0.327600  0.255400  1.0
  H  H559  1  0.572200  0.583600  0.244600  1.0
  H  H560  1  0.172400  0.661000  0.244600  1.0
  H  H561  1  0.185200  0.158800  0.760200  1.0
  H  H562  1  0.075000  0.601400  0.760200  1.0
  H  H563  1  0.341200  0.314800  0.739800  1.0
  H  H564  1  0.898600  0.425000  0.739800  1.0
  H  H565  1  0.814800  0.841200  0.239800  1.0
  H  H566  1  0.925000  0.398600  0.239800  1.0
  H  H567  1  0.658800  0.685200  0.260200  1.0
  H  H568  1  0.101400  0.575000  0.260200  1.0
  H  H569  1  0.307400  0.037000  0.679600  1.0
  H  H570  1  0.872200  0.642600  0.679600  1.0
  H  H571  1  0.463000  0.192600  0.820400  1.0
  H  H572  1  0.857400  0.627800  0.820400  1.0
  H  H573  1  0.692600  0.963000  0.320400  1.0
  H  H574  1  0.127800  0.357400  0.320400  1.0
  H  H575  1  0.537000  0.807400  0.179600  1.0
  H  H576  1  0.142600  0.372200  0.179600  1.0
  H  H577  1  0.341800  0.039400  0.728600  1.0
  H  H578  1  0.886800  0.689200  0.728600  1.0
  H  H579  1  0.460600  0.158200  0.771400  1.0
  H  H580  1  0.810800  0.613200  0.771400  1.0
  H  H581  1  0.658200  0.960600  0.271400  1.0
  H  H582  1  0.113200  0.310800  0.271400  1.0
  H  H583  1  0.539400  0.841800  0.228600  1.0
  H  H584  1  0.189200  0.386800  0.228600  1.0
  H  H585  1  0.310000  0.646400  0.608000  1.0
  H  H586  1  0.798000  0.961600  0.608000  1.0
  H  H587  1  0.853600  0.190000  0.892000  1.0
  H  H588  1  0.538400  0.702000  0.892000  1.0
  H  H589  1  0.690000  0.353600  0.392000  1.0
  H  H590  1  0.202000  0.038400  0.392000  1.0
  H  H591  1  0.146400  0.810000  0.108000  1.0
  H  H592  1  0.461600  0.298000  0.108000  1.0
  H  H593  1  0.325200  0.833600  0.583800  1.0
  H  H594  1  0.758600  0.750200  0.583800  1.0
  H  H595  1  0.666400  0.174800  0.916200  1.0
  H  H596  1  0.749800  0.741400  0.916200  1.0
  H  H597  1  0.674800  0.166400  0.416200  1.0
  H  H598  1  0.241400  0.249800  0.416200  1.0
  H  H599  1  0.333600  0.825200  0.083800  1.0
  H  H600  1  0.250200  0.258600  0.083800  1.0
  H  H601  1  0.267300  0.809300  0.686800  1.0
  H  H602  1  0.919500  0.877500  0.686800  1.0
  H  H603  1  0.690700  0.232700  0.813200  1.0
  H  H604  1  0.622500  0.580500  0.813200  1.0
  H  H605  1  0.732700  0.190700  0.313200  1.0
  H  H606  1  0.080500  0.122500  0.313200  1.0
  H  H607  1  0.309300  0.767300  0.186800  1.0
  H  H608  1  0.377500  0.419500  0.186800  1.0
  N  N609  1  0.150280  0.487940  0.701420  1.0
  N  N610  1  0.051140  0.213480  0.701420  1.0
  N  N611  1  0.012060  0.349720  0.798580  1.0
  N  N612  1  0.286520  0.448860  0.798580  1.0
  N  N613  1  0.849720  0.512060  0.298580  1.0
  N  N614  1  0.948860  0.786520  0.298580  1.0
  N  N615  1  0.987940  0.650280  0.201420  1.0
  N  N616  1  0.713480  0.551140  0.201420  1.0
  N  N617  1  0.262850  0.608710  0.665160  1.0
  N  N618  1  0.902310  0.056450  0.665160  1.0
  N  N619  1  0.891290  0.237150  0.834840  1.0
  N  N620  1  0.443550  0.597690  0.834840  1.0
  N  N621  1  0.737150  0.391290  0.334840  1.0
  N  N622  1  0.097690  0.943550  0.334840  1.0
  N  N623  1  0.108710  0.762850  0.165160  1.0
  N  N624  1  0.556450  0.402310  0.165160  1.0
  N  N625  1  0.357060  0.692860  0.416520  1.0
  N  N626  1  0.559460  0.723660  0.416520  1.0
  N  N627  1  0.807140  0.142940  0.083480  1.0
  N  N628  1  0.776340  0.940540  0.083480  1.0
  N  N629  1  0.642940  0.307140  0.583480  1.0
  N  N630  1  0.440540  0.276340  0.583480  1.0
  N  N631  1  0.192860  0.857060  0.916520  1.0
  N  N632  1  0.223660  0.059460  0.916520  1.0
  N  N633  1  0.361670  0.746270  0.530340  1.0
  N  N634  1  0.668670  0.784070  0.530340  1.0
  N  N635  1  0.753730  0.138330  0.969660  1.0
  N  N636  1  0.715930  0.831330  0.969660  1.0
  N  N637  1  0.638330  0.253730  0.469660  1.0
  N  N638  1  0.331330  0.215930  0.469660  1.0
  N  N639  1  0.246270  0.861670  0.030340  1.0
  N  N640  1  0.284070  0.168670  0.030340  1.0
  N  N641  1  0.238080  0.095060  0.733080  1.0
  N  N642  1  0.995000  0.638020  0.733080  1.0
  N  N643  1  0.404940  0.261920  0.766920  1.0
  N  N644  1  0.861980  0.505000  0.766920  1.0
  N  N645  1  0.761920  0.904940  0.266920  1.0
  N  N646  1  0.005000  0.361980  0.266920  1.0
  N  N647  1  0.595060  0.738080  0.233080  1.0
  N  N648  1  0.138020  0.495000  0.233080  1.0
  N  N649  1  0.300720  0.941720  0.687640  1.0
  N  N650  1  0.886920  0.745920  0.687640  1.0
  N  N651  1  0.558280  0.199280  0.812360  1.0
  N  N652  1  0.754080  0.613080  0.812360  1.0
  N  N653  1  0.699280  0.058280  0.312360  1.0
  N  N654  1  0.113080  0.254080  0.312360  1.0
  N  N655  1  0.441720  0.800720  0.187640  1.0
  N  N656  1  0.245920  0.386920  0.187640  1.0
  O  O657  1  0.419200  0.691600  0.903000  1
  O  O658  1  0.983800  0.211400  0.903000  1
  O  O659  1  0.808400  0.080800  0.597000  1
  O  O660  1  0.288600  0.516200  0.597000  1
  O  O661  1  0.580800  0.308400  0.097000  1
  O  O662  1  0.016200  0.788600  0.097000  1
  O  O663  1  0.191600  0.919200  0.403000  1
  O  O664  1  0.711400  0.483800  0.403000  1
  O  O665  1  0.187100  0.907100  0.805000  1
  O  O666  1  0.117900  0.897900  0.805000  1
  O  O667  1  0.592900  0.312900  0.695000  1
  O  O668  1  0.602100  0.382100  0.695000  1
  O  O669  1  0.812900  0.092900  0.195000  1
  O  O670  1  0.882100  0.102100  0.195000  1
  O  O671  1  0.407100  0.687100  0.305000  1
  O  O672  1  0.397900  0.617900  0.305000  1
  O  O673  1  0.392780  0.921180  0.758160  1.0
  O  O674  1  0.865380  0.836980  0.758160  1.0
  O  O675  1  0.578820  0.107220  0.741840  1.0
  O  O676  1  0.663020  0.634620  0.741840  1.0
  O  O677  1  0.607220  0.078820  0.241840  1.0
  O  O678  1  0.134620  0.163020  0.241840  1.0
  O  O679  1  0.421180  0.892780  0.258160  1.0
  O  O680  1  0.336980  0.365380  0.258160  1.0
  O  O681  1  0.254630  0.706250  0.711540  1.0
  O  O682  1  0.956910  0.005290  0.711540  1.0
  O  O683  1  0.793750  0.245370  0.788460  1.0
  O  O684  1  0.494710  0.543090  0.788460  1.0
  O  O685  1  0.745370  0.293750  0.288460  1.0
  O  O686  1  0.043090  0.994710  0.288460  1.0
  O  O687  1  0.206250  0.754630  0.211540  1.0
  O  O688  1  0.505290  0.456910  0.211540  1.0
  O  O689  1  0.341350  0.641150  0.539100  1.0
  O  O690  1  0.697750  0.897950  0.539100  1.0
  O  O691  1  0.858850  0.158650  0.960900  1.0
  O  O692  1  0.602050  0.802250  0.960900  1.0
  O  O693  1  0.658650  0.358850  0.460900  1.0
  O  O694  1  0.302250  0.102050  0.460900  1.0
  O  O695  1  0.141150  0.841350  0.039100  1.0
  O  O696  1  0.397950  0.197750  0.039100  1.0
  O  O697  1  0.266290  0.930490  0.615780  1.0
  O  O698  1  0.849490  0.685290  0.615780  1.0
  O  O699  1  0.569510  0.233710  0.884220  1.0
  O  O700  1  0.814710  0.650510  0.884220  1.0
  O  O701  1  0.733710  0.069510  0.384220  1.0
  O  O702  1  0.150510  0.314710  0.384220  1.0
  O  O703  1  0.430490  0.766290  0.115780  1.0
  O  O704  1  0.185290  0.349490  0.115780  1.0
  Pd  Pd705  1  0.220630  0.470630  0.750000  1.0
  Pd  Pd706  1  0.029370  0.279370  0.750000  1.0
  Pd  Pd707  1  0.779370  0.529370  0.250000  1.0
  Pd  Pd708  1  0.970630  0.720630  0.250000  1.0
  Pd  Pd709  1  0.459700  0.709700  0.419400  1.0
  Pd  Pd710  1  0.790300  0.040300  0.080600  1.0
  Pd  Pd711  1  0.540300  0.290300  0.580600  1.0
  Pd  Pd712  1  0.209700  0.959700  0.919400  1.0
  Pd  Pd713  1  0.322650  0.177350  0.750000  1.0
  Pd  Pd714  1  0.927350  0.572650  0.750000  1.0
  Pd  Pd715  1  0.677350  0.822650  0.250000  1.0
  Pd  Pd716  1  0.072650  0.427350  0.250000  1.0
  S  S717  1  0.392590  0.758990  0.905980  1
  S  S718  1  0.013390  0.146990  0.905980  1
  S  S719  1  0.741010  0.107410  0.594020  1
  S  S720  1  0.353010  0.486610  0.594020  1
  S  S721  1  0.607410  0.241010  0.094020  1
  S  S722  1  0.986610  0.853010  0.094020  1
  S  S723  1  0.258990  0.892590  0.405980  1
  S  S724  1  0.646990  0.513390  0.405980  1
  S  S725  1  0.246670  0.904470  0.783340  1
  S  S726  1  0.036670  0.878870  0.783340  1
  S  S727  1  0.595530  0.253330  0.716660  1
  S  S728  1  0.621130  0.463330  0.716660  1
  S  S729  1  0.753330  0.095530  0.216660  1
  S  S730  1  0.963330  0.121130  0.216660  1
  S  S731  1  0.404470  0.746670  0.283340  1
  S  S732  1  0.378870  0.536670  0.283340  1
  S  S733  1  0.349210  0.920210  0.803420  1.0
  S  S734  1  0.954210  0.883210  0.803420  1.0
  S  S735  1  0.579790  0.150790  0.696580  1.0
  S  S736  1  0.616790  0.545790  0.696580  1.0
  S  S737  1  0.650790  0.079790  0.196580  1.0
  S  S738  1  0.045790  0.116790  0.196580  1.0
  S  S739  1  0.420210  0.849210  0.303420  1.0
  S  S740  1  0.383210  0.454210  0.303420  1.0
