# generated using pymatgen
data_Fe2P8H145Pd2Pt2C132S4N4O17F12
_symmetry_space_group_name_H-M   'P 1'
_cell_length_a   13.68200000
_cell_length_b   20.07700000
_cell_length_c   26.28000000
_cell_angle_alpha   94.76000000
_cell_angle_beta   93.90000000
_cell_angle_gamma   94.29000000
_symmetry_Int_Tables_number   1
_chemical_formula_structural   Fe2P8H145Pd2Pt2C132S4N4O17F12
_chemical_formula_sum   'Fe4 P16 H290 Pd4 Pt4 C264 S8 N8 O34 F24'
_cell_volume   7153.85389766
_cell_formula_units_Z   2
loop_
 _symmetry_equiv_pos_site_id
 _symmetry_equiv_pos_as_xyz
  1  'x, y, z'
loop_
 _atom_site_type_symbol
 _atom_site_label
 _atom_site_symmetry_multiplicity
 _atom_site_fract_x
 _atom_site_fract_y
 _atom_site_fract_z
 _atom_site_occupancy
  Fe  Fe1  1  0.013450  0.433630  0.817480  1.0
  Fe  Fe2  1  0.986550  0.566370  0.182520  1.0
  Fe  Fe3  1  0.681430  0.678430  0.347480  1.0
  Fe  Fe4  1  0.318570  0.321570  0.652520  1.0
  P  P5  1  0.841400  0.422800  0.902690  1.0
  P  P6  1  0.158600  0.577200  0.097310  1.0
  P  P7  1  0.797700  0.354390  0.775360  1.0
  P  P8  1  0.202300  0.645610  0.224640  1.0
  P  P9  1  0.861700  0.745140  0.433430  1.0
  P  P10  1  0.138300  0.254860  0.566570  1.0
  P  P11  1  0.635300  0.674660  0.469630  1.0
  P  P12  1  0.364700  0.325340  0.530370  1.0
  P  P13  1  0.148800  0.019100  0.767460  1.0
  P  P14  1  0.851200  0.980900  0.232540  1.0
  P  P15  1  0.394400  0.961100  0.664820  1.0
  P  P16  1  0.605600  0.038900  0.335180  1.0
  P  P17  1  0.697300  0.797600  0.869910  1.0
  P  P18  1  0.302700  0.202400  0.130090  1.0
  P  P19  1  0.390300  0.714100  0.802230  1.0
  P  P20  1  0.609700  0.285900  0.197770  1.0
  H  H21  1  0.624900  0.777300  0.119000  1
  H  H22  1  0.375100  0.222700  0.881000  1
  H  H23  1  0.767500  0.732200  0.109300  1
  H  H24  1  0.232500  0.267800  0.890700  1
  H  H25  1  0.806000  0.799500  0.085900  1
  H  H26  1  0.194000  0.200500  0.914100  1
  H  H27  1  0.749800  0.739000  0.049200  1
  H  H28  1  0.250200  0.261000  0.950800  1
  H  H29  1  0.503200  0.848500  0.100300  1
  H  H30  1  0.496800  0.151500  0.899700  1
  H  H31  1  0.448300  0.924300  0.053200  1
  H  H32  1  0.551700  0.075700  0.946800  1
  H  H33  1  0.498500  0.887500  0.006500  1
  H  H34  1  0.501500  0.112500  0.993500  1
  H  H35  1  0.560100  0.945500  0.043500  1
  H  H36  1  0.439900  0.054500  0.956500  1
  H  H37  1  0.969600  0.554200  0.713400  1
  H  H38  1  0.030400  0.445800  0.286600  1
  H  H39  1  0.001800  0.523200  0.629600  1
  H  H40  1  0.998200  0.476800  0.370400  1
  H  H41  1  0.081800  0.586200  0.634200  1
  H  H42  1  0.918200  0.413800  0.365800  1
  H  H43  1  0.969600  0.595300  0.616700  1
  H  H44  1  0.030400  0.404700  0.383300  1
  H  H45  1  0.993500  0.655200  0.781400  1
  H  H46  1  0.006500  0.344800  0.218600  1
  H  H47  1  0.019400  0.761000  0.800800  1
  H  H48  1  0.980600  0.239000  0.199200  1
  H  H49  1  0.972700  0.771000  0.744700  1
  H  H50  1  0.027300  0.229000  0.255300  1
  H  H51  1  0.088200  0.764200  0.754000  1
  H  H52  1  0.911800  0.235800  0.246000  1
  H  H53  1  0.783200  0.649400  0.599200  1.0
  H  H54  1  0.216800  0.350600  0.400800  1.0
  H  H55  1  0.652900  0.811000  0.568500  1.0
  H  H56  1  0.347100  0.189000  0.431500  1.0
  H  H57  1  0.598900  0.820700  0.652200  1.0
  H  H58  1  0.401100  0.179300  0.347800  1.0
  H  H59  1  0.734900  0.655700  0.680900  1.0
  H  H60  1  0.265100  0.344300  0.319100  1.0
  H  H61  1  0.698900  0.216100  0.013700  1.0
  H  H62  1  0.301100  0.783900  0.986300  1.0
  H  H63  1  0.496300  0.347000  0.988900  1.0
  H  H64  1  0.503700  0.653000  0.011100  1.0
  H  H65  1  0.776900  0.250100  0.942400  1.0
  H  H66  1  0.223100  0.749900  0.057600  1.0
  H  H67  1  0.571400  0.373600  0.916300  1.0
  H  H68  1  0.428600  0.626400  0.083700  1.0
  H  H69  1  0.528300  0.320000  0.821200  1.0
  H  H70  1  0.471700  0.680000  0.178800  1.0
  H  H71  1  0.733000  0.192200  0.815000  1.0
  H  H72  1  0.267000  0.807800  0.185000  1.0
  H  H73  1  0.406900  0.234200  0.796700  1.0
  H  H74  1  0.593100  0.765800  0.203300  1.0
  H  H75  1  0.962700  0.922700  0.606100  1.0
  H  H76  1  0.037300  0.077300  0.393900  1.0
  H  H77  1  0.980300  0.697500  0.556100  1.0
  H  H78  1  0.019700  0.302500  0.443900  1.0
  H  H79  1  0.847900  0.863300  0.547700  1.0
  H  H80  1  0.152100  0.136700  0.452300  1.0
  H  H81  1  0.104000  0.753000  0.611300  1.0
  H  H82  1  0.896000  0.247000  0.388700  1.0
  H  H83  1  0.616400  0.102800  0.787000  1.0
  H  H84  1  0.383600  0.897200  0.213000  1.0
  H  H85  1  0.640900  0.462500  0.886200  1.0
  H  H86  1  0.359100  0.537500  0.113800  1.0
  H  H87  1  0.888800  0.542800  0.967900  1.0
  H  H88  1  0.111200  0.457200  0.032100  1.0
  H  H89  1  0.564000  0.557600  0.909700  1.0
  H  H90  1  0.436000  0.442400  0.090300  1.0
  H  H91  1  0.804500  0.635900  0.995200  1.0
  H  H92  1  0.195500  0.364100  0.004800  1.0
  H  H93  1  0.642900  0.642500  0.963500  1.0
  H  H94  1  0.357100  0.357500  0.036500  1.0
  H  H95  1  0.982300  0.330700  0.918700  1.0
  H  H96  1  0.017700  0.669300  0.081300  1.0
  H  H97  1  0.038900  0.270500  0.984600  1.0
  H  H98  1  0.961100  0.729500  0.015400  1.0
  H  H99  1  0.984700  0.289100  0.067400  1.0
  H  H100  1  0.015300  0.710900  0.932600  1.0
  H  H101  1  0.875100  0.371800  0.081400  1.0
  H  H102  1  0.124900  0.628200  0.918600  1.0
  H  H103  1  0.812000  0.432200  0.013000  1.0
  H  H104  1  0.188000  0.567800  0.987000  1.0
  H  H105  1  0.646400  0.432500  0.804200  1.0
  H  H106  1  0.353600  0.567500  0.195800  1.0
  H  H107  1  0.570700  0.523700  0.773900  1.0
  H  H108  1  0.429300  0.476300  0.226100  1.0
  H  H109  1  0.818200  0.429300  0.685400  1.0
  H  H110  1  0.181800  0.570700  0.314600  1.0
  H  H111  1  0.740200  0.518100  0.653700  1.0
  H  H112  1  0.259800  0.481900  0.346300  1.0
  H  H113  1  0.619800  0.566900  0.698800  1.0
  H  H114  1  0.380200  0.433100  0.301200  1.0
  H  H115  1  0.883900  0.237200  0.738500  1.0
  H  H116  1  0.116100  0.762800  0.261500  1.0
  H  H117  1  0.625500  0.314400  0.708100  1.0
  H  H118  1  0.374500  0.685600  0.291900  1.0
  H  H119  1  0.835200  0.146900  0.678700  1.0
  H  H120  1  0.164800  0.853100  0.321300  1.0
  H  H121  1  0.681800  0.137800  0.634700  1.0
  H  H122  1  0.318200  0.862200  0.365300  1.0
  H  H123  1  0.575400  0.218400  0.648800  1.0
  H  H124  1  0.424600  0.781600  0.351200  1.0
  H  H125  1  0.896500  0.618800  0.469200  1.0
  H  H126  1  0.103500  0.381200  0.530800  1.0
  H  H127  1  0.030000  0.738700  0.374600  1.0
  H  H128  1  0.970000  0.261300  0.625400  1.0
  H  H129  1  0.152000  0.663800  0.365000  1.0
  H  H130  1  0.848000  0.336200  0.635000  1.0
  H  H131  1  0.013100  0.542600  0.457600  1.0
  H  H132  1  0.986900  0.457400  0.542400  1.0
  H  H133  1  0.139600  0.562900  0.404000  1.0
  H  H134  1  0.860400  0.437100  0.596000  1.0
  H  H135  1  0.825000  0.878600  0.413700  1.0
  H  H136  1  0.175000  0.121400  0.586300  1.0
  H  H137  1  0.062000  0.793600  0.471400  1.0
  H  H138  1  0.938000  0.206400  0.528600  1.0
  H  H139  1  0.914400  0.984300  0.425100  1.0
  H  H140  1  0.085600  0.015700  0.574900  1.0
  H  H141  1  0.148300  0.898500  0.485500  1.0
  H  H142  1  0.851700  0.101500  0.514500  1.0
  H  H143  1  0.515800  0.659900  0.556600  1.0
  H  H144  1  0.484200  0.340100  0.443400  1.0
  H  H145  1  0.689800  0.542600  0.475400  1.0
  H  H146  1  0.310200  0.457400  0.524600  1.0
  H  H147  1  0.658500  0.457300  0.530400  1.0
  H  H148  1  0.341500  0.542700  0.469600  1.0
  H  H149  1  0.482800  0.571000  0.609700  1.0
  H  H150  1  0.517200  0.429000  0.390300  1.0
  H  H151  1  0.617200  0.817600  0.479100  1.0
  H  H152  1  0.382800  0.182400  0.520900  1.0
  H  H153  1  0.420400  0.655800  0.462600  1.0
  H  H154  1  0.579600  0.344200  0.537400  1.0
  H  H155  1  0.489900  0.888800  0.480400  1.0
  H  H156  1  0.510100  0.111200  0.519600  1.0
  H  H157  1  0.295500  0.727700  0.463900  1.0
  H  H158  1  0.704500  0.272300  0.536100  1.0
  H  H159  1  0.331200  0.841700  0.472800  1.0
  H  H160  1  0.668800  0.158300  0.527200  1.0
  H  H161  1  0.557500  0.471000  0.594500  1.0
  H  H162  1  0.442500  0.529000  0.405500  1.0
  H  H163  1  0.074900  0.992700  0.461700  1.0
  H  H164  1  0.925100  0.007300  0.538300  1.0
  H  H165  1  0.570800  0.983800  0.680000  1.0
  H  H166  1  0.429200  0.016200  0.320000  1.0
  H  H167  1  0.599400  0.944200  0.756500  1.0
  H  H168  1  0.400600  0.055800  0.243500  1.0
  H  H169  1  0.507100  0.890700  0.741300  1.0
  H  H170  1  0.492900  0.109300  0.258700  1.0
  H  H171  1  0.491400  0.962700  0.769200  1.0
  H  H172  1  0.508600  0.037300  0.230800  1.0
  H  H173  1  0.315200  0.895000  0.595600  1.0
  H  H174  1  0.684800  0.105000  0.404400  1.0
  H  H175  1  0.431400  0.892000  0.594900  1.0
  H  H176  1  0.568600  0.108000  0.405100  1.0
  H  H177  1  0.358500  0.790100  0.609500  1.0
  H  H178  1  0.641500  0.209900  0.390500  1.0
  H  H179  1  0.312300  0.822800  0.659100  1.0
  H  H180  1  0.687700  0.177200  0.340900  1.0
  H  H181  1  0.428800  0.819900  0.658500  1.0
  H  H182  1  0.571200  0.180100  0.341500  1.0
  H  H183  1  0.070000  0.904700  0.759900  1.0
  H  H184  1  0.930000  0.095300  0.240100  1.0
  H  H185  1  0.954900  0.910600  0.819500  1.0
  H  H186  1  0.045100  0.089400  0.180500  1.0
  H  H187  1  0.949100  0.987800  0.809700  1.0
  H  H188  1  0.050900  0.012200  0.190300  1.0
  H  H189  1  0.027800  0.966900  0.852100  1.0
  H  H190  1  0.972200  0.033100  0.147900  1.0
  H  H191  1  0.222300  0.105100  0.826000  1.0
  H  H192  1  0.777700  0.894900  0.174000  1.0
  H  H193  1  0.124800  0.072500  0.847500  1.0
  H  H194  1  0.875200  0.927500  0.152500  1.0
  H  H195  1  0.258600  0.049900  0.894000  1.0
  H  H196  1  0.741400  0.950100  0.106000  1.0
  H  H197  1  0.301100  0.015100  0.844000  1.0
  H  H198  1  0.698900  0.984900  0.156000  1.0
  H  H199  1  0.203600  0.982400  0.865600  1.0
  H  H200  1  0.796400  0.017600  0.134400  1.0
  H  H201  1  0.994000  0.058500  0.734600  1.0
  H  H202  1  0.006000  0.941500  0.265400  1.0
  H  H203  1  0.045000  0.151400  0.704900  1.0
  H  H204  1  0.955000  0.848600  0.295100  1.0
  H  H205  1  0.141400  0.115400  0.691000  1.0
  H  H206  1  0.858600  0.884600  0.309000  1.0
  H  H207  1  0.137800  0.155600  0.745900  1.0
  H  H208  1  0.862200  0.844400  0.254100  1.0
  H  H209  1  0.672300  0.818900  0.956300  1.0
  H  H210  1  0.327700  0.181100  0.043700  1.0
  H  H211  1  0.729400  0.752800  0.947600  1.0
  H  H212  1  0.270600  0.247200  0.052400  1.0
  H  H213  1  0.838300  0.840000  0.995900  1.0
  H  H214  1  0.161700  0.160000  0.004100  1.0
  H  H215  1  0.825200  0.888100  0.950700  1.0
  H  H216  1  0.174800  0.111900  0.049300  1.0
  H  H217  1  0.882400  0.821900  0.942000  1.0
  H  H218  1  0.117600  0.178100  0.058000  1.0
  H  H219  1  0.779600  0.903900  0.868000  1.0
  H  H220  1  0.220400  0.096100  0.132000  1.0
  H  H221  1  0.705200  0.887200  0.818200  1.0
  H  H222  1  0.294800  0.112800  0.181800  1.0
  H  H223  1  0.652300  0.975600  0.870400  1.0
  H  H224  1  0.347700  0.024400  0.129600  1.0
  H  H225  1  0.647200  0.929400  0.917100  1.0
  H  H226  1  0.352800  0.070600  0.082900  1.0
  H  H227  1  0.572600  0.912600  0.867300  1.0
  H  H228  1  0.427400  0.087400  0.132700  1.0
  H  H229  1  0.798100  0.768700  0.804300  1.0
  H  H230  1  0.201900  0.231300  0.195700  1.0
  H  H231  1  0.862800  0.784100  0.857500  1.0
  H  H232  1  0.137200  0.215900  0.142500  1.0
  H  H233  1  0.281600  0.717700  0.866500  1.0
  H  H234  1  0.718400  0.282300  0.133500  1.0
  H  H235  1  0.242100  0.661400  0.821800  1.0
  H  H236  1  0.757900  0.338600  0.178200  1.0
  H  H237  1  0.289900  0.605600  0.899800  1.0
  H  H238  1  0.710100  0.394400  0.100200  1.0
  H  H239  1  0.399600  0.639700  0.900800  1.0
  H  H240  1  0.600400  0.360300  0.099200  1.0
  H  H241  1  0.359700  0.583300  0.856100  1.0
  H  H242  1  0.640300  0.416700  0.143900  1.0
  H  H243  1  0.405200  0.587200  0.712500  1.0
  H  H244  1  0.594800  0.412800  0.287500  1.0
  H  H245  1  0.363100  0.594500  0.767900  1.0
  H  H246  1  0.636900  0.405500  0.232100  1.0
  H  H247  1  0.474400  0.620600  0.760900  1.0
  H  H248  1  0.525600  0.379400  0.239100  1.0
  H  H249  1  0.304400  0.683700  0.720000  1.0
  H  H250  1  0.695600  0.316300  0.280000  1.0
  H  H251  1  0.417700  0.710300  0.712900  1.0
  H  H252  1  0.582300  0.289700  0.287100  1.0
  H  H253  1  0.429900  0.075600  0.648900  1.0
  H  H254  1  0.570100  0.924400  0.351100  1.0
  H  H255  1  0.488100  0.027900  0.611400  1.0
  H  H256  1  0.511900  0.972100  0.388600  1.0
  H  H257  1  0.348700  0.069200  0.561500  1.0
  H  H258  1  0.651300  0.930800  0.438500  1.0
  H  H259  1  0.273900  0.036800  0.598600  1.0
  H  H260  1  0.726100  0.963200  0.401400  1.0
  H  H261  1  0.331900  0.989400  0.561200  1.0
  H  H262  1  0.668100  0.010600  0.438800  1.0
  H  H263  1  0.861900  0.668500  0.829200  1.0
  H  H264  1  0.138100  0.331500  0.170800  1.0
  H  H265  1  0.744500  0.660300  0.828700  1.0
  H  H266  1  0.255500  0.339700  0.171300  1.0
  H  H267  1  0.809700  0.675700  0.881800  1.0
  H  H268  1  0.190300  0.324300  0.118200  1.0
  H  H269  1  0.374100  0.805800  0.753000  1.0
  H  H270  1  0.625900  0.194200  0.247000  1.0
  H  H271  1  0.267900  0.771500  0.761400  1.0
  H  H272  1  0.732100  0.228500  0.238600  1.0
  H  H273  1  0.290700  0.872600  0.800200  1.0
  H  H274  1  0.709300  0.127400  0.199800  1.0
  H  H275  1  0.385900  0.852500  0.832300  1.0
  H  H276  1  0.614100  0.147500  0.167700  1.0
  H  H277  1  0.279700  0.818000  0.840900  1.0
  H  H278  1  0.720300  0.182000  0.159100  1.0
  H  H279  1  0.078200  0.444000  0.917600  1.0
  H  H280  1  0.921800  0.556000  0.082400  1.0
  H  H281  1  0.871900  0.521600  0.821600  1.0
  H  H282  1  0.128100  0.478400  0.178400  1.0
  H  H283  1  0.040100  0.566200  0.800400  1.0
  H  H284  1  0.959900  0.433800  0.199600  1.0
  H  H285  1  0.165800  0.518600  0.860400  1.0
  H  H286  1  0.834200  0.481400  0.139600  1.0
  H  H287  1  0.973800  0.301900  0.832500  1.0
  H  H288  1  0.026200  0.698100  0.167500  1.0
  H  H289  1  0.148500  0.339100  0.817100  1.0
  H  H290  1  0.851500  0.660900  0.182900  1.0
  H  H291  1  0.146600  0.413500  0.745900  1.0
  H  H292  1  0.853400  0.586500  0.254100  1.0
  H  H293  1  0.965400  0.432100  0.717700  1.0
  H  H294  1  0.034600  0.567900  0.282300  1.0
  H  H295  1  0.755900  0.582600  0.399300  1.0
  H  H296  1  0.244100  0.417400  0.600700  1.0
  H  H297  1  0.492100  0.663000  0.371600  1.0
  H  H298  1  0.507900  0.337000  0.628400  1.0
  H  H299  1  0.694600  0.551500  0.306000  1.0
  H  H300  1  0.305400  0.448500  0.694000  1.0
  H  H301  1  0.535400  0.603000  0.289700  1.0
  H  H302  1  0.464600  0.397000  0.710300  1.0
  H  H303  1  0.865700  0.692300  0.318300  1.0
  H  H304  1  0.134300  0.307700  0.681700  1.0
  H  H305  1  0.668400  0.801000  0.392200  1.0
  H  H306  1  0.331600  0.199000  0.607800  1.0
  H  H307  1  0.728400  0.712200  0.253900  1.0
  H  H308  1  0.271600  0.287800  0.746100  1.0
  H  H309  1  0.609500  0.782700  0.300700  1.0
  H  H310  1  0.390500  0.217300  0.699300  1.0
  Pd  Pd311  1  0.743520  0.338030  0.855070  1.0
  Pd  Pd312  1  0.256480  0.661970  0.144930  1.0
  Pd  Pd313  1  0.780130  0.729040  0.505140  1.0
  Pd  Pd314  1  0.219870  0.270960  0.494860  1.0
  Pt  Pt315  1  0.271720  0.988100  0.717210  1.0
  Pt  Pt316  1  0.728280  0.011900  0.282790  1.0
  Pt  Pt317  1  0.544960  0.750390  0.837810  1.0
  Pt  Pt318  1  0.455040  0.249610  0.162190  1.0
  C  C319  1  0.661300  0.790800  0.091600  1
  C  C320  1  0.338700  0.209200  0.908400  1
  C  C321  1  0.753500  0.763200  0.083300  1
  C  C322  1  0.246500  0.236800  0.916700  1
  C  C323  1  0.540200  0.861200  0.072900  1
  C  C324  1  0.459800  0.138800  0.927100  1
  C  C325  1  0.510000  0.907900  0.041800  1
  C  C326  1  0.490000  0.092100  0.958200  1
  C  C327  1  0.993000  0.586600  0.691900  1
  C  C328  1  0.007000  0.413400  0.308100  1
  C  C329  1  0.013000  0.571600  0.638800  1
  C  C330  1  0.987000  0.428400  0.361200  1
  C  C331  1  0.008000  0.681400  0.753900  1
  C  C332  1  0.992000  0.318600  0.246100  1
  C  C333  1  0.023000  0.749000  0.764000  1
  C  C334  1  0.977000  0.251000  0.236000  1
  C  C335  1  0.238900  0.017100  0.369900  1
  C  C336  1  0.761100  0.982900  0.630100  1
  C  C337  1  0.234000  0.600000  0.608500  1
  C  C338  1  0.766000  0.400000  0.391500  1
  C  C339  1  0.347700  0.442700  0.898300  1
  C  C340  1  0.652300  0.557300  0.101700  1
  C  C341  1  0.857000  0.105900  0.911100  1
  C  C342  1  0.143000  0.894100  0.088900  1
  C  C343  1  0.744500  0.684700  0.609800  1.0
  C  C344  1  0.255500  0.315300  0.390200  1.0
  C  C345  1  0.668900  0.778600  0.591400  1.0
  C  C346  1  0.331100  0.221400  0.408600  1.0
  C  C347  1  0.636400  0.784600  0.642200  1.0
  C  C348  1  0.363600  0.215400  0.357800  1.0
  C  C349  1  0.715800  0.688200  0.658700  1.0
  C  C350  1  0.284200  0.311800  0.341300  1.0
  C  C351  1  0.658400  0.739200  0.676800  1.0
  C  C352  1  0.341600  0.260800  0.323200  1.0
  C  C353  1  0.625200  0.743200  0.725600  1.0
  C  C354  1  0.374800  0.256800  0.274400  1.0
  C  C355  1  0.594300  0.747900  0.770000  1.0
  C  C356  1  0.405700  0.252100  0.230000  1.0
  C  C357  1  0.672400  0.249400  0.994300  1.0
  C  C358  1  0.327600  0.750600  0.005700  1.0
  C  C359  1  0.552700  0.325500  0.979600  1.0
  C  C360  1  0.447300  0.674500  0.020400  1.0
  C  C361  1  0.589300  0.277600  0.008500  1.0
  C  C362  1  0.410700  0.722400  0.991500  1.0
  C  C363  1  0.718400  0.269300  0.951500  1.0
  C  C364  1  0.281600  0.730700  0.048500  1.0
  C  C365  1  0.599200  0.342000  0.936700  1.0
  C  C366  1  0.400800  0.658000  0.063300  1.0
  C  C367  1  0.492200  0.748400  0.907400  1.0
  C  C368  1  0.507800  0.251600  0.092600  1.0
  C  C369  1  0.545900  0.275300  0.815000  1.0
  C  C370  1  0.454100  0.724700  0.185000  1.0
  C  C371  1  0.665600  0.200700  0.811000  1.0
  C  C372  1  0.334400  0.799300  0.189000  1.0
  C  C373  1  0.473800  0.224400  0.799200  1.0
  C  C374  1  0.526200  0.775600  0.200800  1.0
  C  C375  1  0.496800  0.160500  0.787100  1.0
  C  C376  1  0.503200  0.839500  0.212900  1.0
  C  C377  1  0.423200  0.107600  0.770000  1.0
  C  C378  1  0.576800  0.892400  0.230000  1.0
  C  C379  1  0.364900  0.060200  0.752100  1.0
  C  C380  1  0.635100  0.939800  0.247900  1.0
  C  C381  1  0.176900  0.919200  0.678600  1.0
  C  C382  1  0.823100  0.080800  0.321400  1.0
  C  C383  1  0.121800  0.881600  0.650000  1.0
  C  C384  1  0.878200  0.118400  0.350000  1.0
  C  C385  1  0.049400  0.845600  0.615200  1.0
  C  C386  1  0.950600  0.154400  0.384800  1.0
  C  C387  1  0.969600  0.876900  0.596000  1.0
  C  C388  1  0.030400  0.123100  0.404000  1.0
  C  C389  1  0.977900  0.743900  0.566100  1.0
  C  C390  1  0.022100  0.256100  0.433900  1.0
  C  C391  1  0.900600  0.840800  0.561900  1.0
  C  C392  1  0.099400  0.159200  0.438100  1.0
  C  C393  1  0.051100  0.776900  0.599100  1.0
  C  C394  1  0.948900  0.223100  0.400900  1.0
  C  C395  1  0.596700  0.146900  0.793800  1.0
  C  C396  1  0.403300  0.853100  0.206200  1.0
  C  C397  1  0.543600  0.260100  0.054200  1.0
  C  C398  1  0.456400  0.739900  0.945800  1.0
  C  C399  1  0.774800  0.493400  0.925400  1.0
  C  C400  1  0.225200  0.506600  0.074600  1.0
  C  C401  1  0.675500  0.498000  0.907800  1.0
  C  C402  1  0.324500  0.502000  0.092200  1.0
  C  C403  1  0.821700  0.544700  0.956500  1.0
  C  C404  1  0.178300  0.455300  0.043500  1.0
  C  C405  1  0.630000  0.554100  0.922200  1.0
  C  C406  1  0.370000  0.445900  0.077800  1.0
  C  C407  1  0.772300  0.600800  0.972200  1.0
  C  C408  1  0.227700  0.399200  0.027800  1.0
  C  C409  1  0.676500  0.604200  0.953800  1.0
  C  C410  1  0.323500  0.395800  0.046200  1.0
  C  C411  1  0.958900  0.339300  0.951700  1.0
  C  C412  1  0.041100  0.660700  0.048300  1.0
  C  C413  1  0.892800  0.386900  0.958200  1.0
  C  C414  1  0.107200  0.613100  0.041800  1.0
  C  C415  1  0.993400  0.303100  0.991200  1.0
  C  C416  1  0.006600  0.696900  0.008800  1.0
  C  C417  1  0.962100  0.313900  0.040300  1.0
  C  C418  1  0.037900  0.686100  0.959700  1.0
  C  C419  1  0.896200  0.362600  0.048000  1.0
  C  C420  1  0.103800  0.637400  0.952000  1.0
  C  C421  1  0.858300  0.400000  0.007100  1.0
  C  C422  1  0.141700  0.600000  0.992900  1.0
  C  C423  1  0.742500  0.423100  0.749900  1.0
  C  C424  1  0.257500  0.576900  0.250100  1.0
  C  C425  1  0.667500  0.450600  0.774200  1.0
  C  C426  1  0.332500  0.549400  0.225800  1.0
  C  C427  1  0.621200  0.504600  0.755900  1.0
  C  C428  1  0.378800  0.495400  0.244100  1.0
  C  C429  1  0.768400  0.448600  0.703800  1.0
  C  C430  1  0.231600  0.551400  0.296200  1.0
  C  C431  1  0.722100  0.501500  0.684800  1.0
  C  C432  1  0.277900  0.498500  0.315200  1.0
  C  C433  1  0.650100  0.529800  0.711200  1.0
  C  C434  1  0.349900  0.470200  0.288800  1.0
  C  C435  1  0.760800  0.284400  0.728100  1.0
  C  C436  1  0.239200  0.715600  0.271900  1.0
  C  C437  1  0.821400  0.234900  0.720100  1.0
  C  C438  1  0.178600  0.765100  0.279900  1.0
  C  C439  1  0.668600  0.280000  0.702300  1.0
  C  C440  1  0.331400  0.720000  0.297700  1.0
  C  C441  1  0.791700  0.180900  0.684900  1.0
  C  C442  1  0.208300  0.819100  0.315100  1.0
  C  C443  1  0.700500  0.175400  0.658600  1.0
  C  C444  1  0.299500  0.824600  0.341400  1.0
  C  C445  1  0.638700  0.222500  0.666500  1.0
  C  C446  1  0.361300  0.777500  0.333500  1.0
  C  C447  1  0.950100  0.685200  0.422600  1.0
  C  C448  1  0.049900  0.314800  0.577400  1.0
  C  C449  1  0.947300  0.627600  0.447200  1.0
  C  C450  1  0.052700  0.372400  0.552800  1.0
  C  C451  1  0.027000  0.698700  0.391500  1.0
  C  C452  1  0.973000  0.301300  0.608500  1.0
  C  C453  1  0.098900  0.654000  0.385300  1.0
  C  C454  1  0.901100  0.346000  0.614700  1.0
  C  C455  1  0.016800  0.582500  0.440600  1.0
  C  C456  1  0.983200  0.417500  0.559400  1.0
  C  C457  1  0.092500  0.594800  0.409200  1.0
  C  C458  1  0.907500  0.405200  0.590800  1.0
  C  C459  1  0.933400  0.825800  0.441600  1.0
  C  C460  1  0.066600  0.174200  0.558400  1.0
  C  C461  1  0.891100  0.882300  0.428000  1.0
  C  C462  1  0.108900  0.117700  0.572000  1.0
  C  C463  1  0.031200  0.832400  0.462500  1.0
  C  C464  1  0.968800  0.167600  0.537500  1.0
  C  C465  1  0.943800  0.945500  0.435000  1.0
  C  C466  1  0.056200  0.054500  0.565000  1.0
  C  C467  1  0.082800  0.894300  0.470400  1.0
  C  C468  1  0.917200  0.105700  0.529600  1.0
  C  C469  1  0.602000  0.608300  0.510500  1.0
  C  C470  1  0.398000  0.391700  0.489500  1.0
  C  C471  1  0.543500  0.618300  0.550400  1.0
  C  C472  1  0.456500  0.381700  0.449600  1.0
  C  C473  1  0.647500  0.548800  0.502300  1.0
  C  C474  1  0.352500  0.451200  0.497700  1.0
  C  C475  1  0.628500  0.498200  0.535300  1.0
  C  C476  1  0.371500  0.501800  0.464700  1.0
  C  C477  1  0.524800  0.565700  0.582500  1.0
  C  C478  1  0.475200  0.434300  0.417500  1.0
  C  C479  1  0.537100  0.729400  0.470200  1.0
  C  C480  1  0.462900  0.270600  0.529800  1.0
  C  C481  1  0.551400  0.798100  0.475700  1.0
  C  C482  1  0.448600  0.201900  0.524300  1.0
  C  C483  1  0.436100  0.703000  0.466000  1.0
  C  C484  1  0.563900  0.297000  0.534000  1.0
  C  C485  1  0.476200  0.841500  0.476700  1.0
  C  C486  1  0.523800  0.158500  0.523300  1.0
  C  C487  1  0.362200  0.745500  0.466900  1.0
  C  C488  1  0.637800  0.254500  0.533100  1.0
  C  C489  1  0.383800  0.813300  0.472300  1.0
  C  C490  1  0.616200  0.186700  0.527700  1.0
  C  C491  1  0.569300  0.506500  0.573300  1.0
  C  C492  1  0.430700  0.493500  0.426700  1.0
  C  C493  1  0.038900  0.950100  0.456400  1.0
  C  C494  1  0.961100  0.049900  0.543600  1.0
  C  C495  1  0.516100  0.964700  0.695800  1.0
  C  C496  1  0.483900  0.035300  0.304200  1.0
  C  C497  1  0.529500  0.938500  0.744600  1.0
  C  C498  1  0.470500  0.061500  0.255400  1.0
  C  C499  1  0.376000  0.890500  0.617300  1.0
  C  C500  1  0.624000  0.109500  0.382700  1.0
  C  C501  1  0.368300  0.825600  0.637800  1.0
  C  C502  1  0.631700  0.174400  0.362200  1.0
  C  C503  1  0.066300  0.946600  0.779000  1.0
  C  C504  1  0.933700  0.053400  0.221000  1.0
  C  C505  1  0.993000  0.953600  0.818500  1.0
  C  C506  1  0.007000  0.046400  0.181500  1.0
  C  C507  1  0.184600  0.062100  0.830200  1.0
  C  C508  1  0.815400  0.937900  0.169800  1.0
  C  C509  1  0.241000  0.024700  0.860600  1.0
  C  C510  1  0.759000  0.975300  0.139400  1.0
  C  C511  1  0.063000  0.070800  0.737200  1.0
  C  C512  1  0.937000  0.929200  0.262800  1.0
  C  C513  1  0.099200  0.127100  0.718500  1.0
  C  C514  1  0.900800  0.872900  0.281500  1.0
  C  C515  1  0.726400  0.799400  0.938400  1.0
  C  C516  1  0.273600  0.200600  0.061600  1.0
  C  C517  1  0.828000  0.841500  0.958700  1.0
  C  C518  1  0.172000  0.158500  0.041300  1.0
  C  C519  1  0.712100  0.885400  0.855800  1.0
  C  C520  1  0.287900  0.114600  0.144200  1.0
  C  C521  1  0.639700  0.929600  0.879800  1.0
  C  C522  1  0.360300  0.070400  0.120200  1.0
  C  C523  1  0.801000  0.760600  0.841100  1.0
  C  C524  1  0.199000  0.239400  0.158900  1.0
  C  C525  1  0.301400  0.680500  0.843300  1.0
  C  C526  1  0.698600  0.319500  0.156700  1.0
  C  C527  1  0.342000  0.621100  0.878700  1.0
  C  C528  1  0.658000  0.378900  0.121300  1.0
  C  C529  1  0.407000  0.615500  0.744900  1.0
  C  C530  1  0.593000  0.384500  0.255100  1.0
  C  C531  1  0.373000  0.685000  0.734200  1.0
  C  C532  1  0.627000  0.315000  0.265800  1.0
  C  C533  1  0.424700  0.032900  0.626800  1.0
  C  C534  1  0.575300  0.967100  0.373200  1.0
  C  C535  1  0.336000  0.032000  0.582700  1.0
  C  C536  1  0.664000  0.968000  0.417300  1.0
  C  C537  1  0.804600  0.684200  0.845600  1.0
  C  C538  1  0.195400  0.315800  0.154400  1.0
  C  C539  1  0.333100  0.786900  0.778800  1.0
  C  C540  1  0.666900  0.213100  0.221200  1.0
  C  C541  1  0.322000  0.835800  0.815500  1.0
  C  C542  1  0.678000  0.164200  0.184500  1.0
  C  C543  1  0.942600  0.467400  0.877900  1.0
  C  C544  1  0.057400  0.532600  0.122100  1.0
  C  C545  1  0.048200  0.467700  0.891700  1.0
  C  C546  1  0.951800  0.532300  0.108300  1.0
  C  C547  1  0.932500  0.511300  0.837700  1.0
  C  C548  1  0.067500  0.488700  0.162300  1.0
  C  C549  1  0.026200  0.536700  0.825900  1.0
  C  C550  1  0.973800  0.463300  0.174100  1.0
  C  C551  1  0.096500  0.509500  0.859800  1.0
  C  C552  1  0.903500  0.490500  0.140200  1.0
  C  C553  1  0.929900  0.363300  0.774100  1.0
  C  C554  1  0.070100  0.636700  0.225900  1.0
  C  C555  1  0.993700  0.331600  0.808100  1.0
  C  C556  1  0.006300  0.668400  0.191900  1.0
  C  C557  1  0.091200  0.352000  0.799200  1.0
  C  C558  1  0.908800  0.648000  0.200800  1.0
  C  C559  1  0.090000  0.394200  0.759900  1.0
  C  C560  1  0.910000  0.605800  0.240100  1.0
  C  C561  1  0.987900  0.404600  0.743100  1.0
  C  C562  1  0.012100  0.595400  0.256900  1.0
  C  C563  1  0.696700  0.595000  0.383000  1.0
  C  C564  1  0.303300  0.405000  0.617000  1.0
  C  C565  1  0.549500  0.639900  0.367100  1.0
  C  C566  1  0.450500  0.360100  0.632900  1.0
  C  C567  1  0.626800  0.633900  0.406400  1.0
  C  C568  1  0.373200  0.366100  0.593600  1.0
  C  C569  1  0.662400  0.577700  0.330500  1.0
  C  C570  1  0.337600  0.422300  0.669500  1.0
  C  C571  1  0.573400  0.606100  0.321500  1.0
  C  C572  1  0.426600  0.393900  0.678500  1.0
  C  C573  1  0.810100  0.716400  0.325100  1.0
  C  C574  1  0.189900  0.283600  0.674900  1.0
  C  C575  1  0.789900  0.746900  0.373200  1.0
  C  C576  1  0.210100  0.253100  0.626800  1.0
  C  C577  1  0.700200  0.777200  0.366200  1.0
  C  C578  1  0.299800  0.222800  0.633800  1.0
  C  C579  1  0.734300  0.727600  0.289300  1.0
  C  C580  1  0.265700  0.272400  0.710700  1.0
  C  C581  1  0.667400  0.766700  0.315700  1.0
  C  C582  1  0.332600  0.233300  0.684300  1.0
  S  S583  1  0.311300  0.026100  0.429200  1
  S  S584  1  0.688700  0.973900  0.570800  1
  S  S585  1  0.159100  0.596200  0.549900  1
  S  S586  1  0.840900  0.403800  0.450100  1
  S  S587  1  0.375500  0.421000  0.835190  1
  S  S588  1  0.624500  0.579000  0.164810  1
  S  S589  1  0.924500  0.158800  0.875800  1
  S  S590  1  0.075500  0.841200  0.124200  1
  N  N591  1  0.720600  0.728900  0.576000  1.0
  N  N592  1  0.279400  0.271100  0.424000  1.0
  N  N593  1  0.680300  0.316100  0.922500  1.0
  N  N594  1  0.319700  0.683900  0.077500  1.0
  N  N595  1  0.641800  0.262000  0.821900  1.0
  N  N596  1  0.358200  0.738000  0.178100  1.0
  N  N597  1  0.904200  0.775800  0.548000  1.0
  N  N598  1  0.095800  0.224200  0.452000  1.0
  O  O599  1  0.627700  0.832800  0.062900  1
  O  O600  1  0.372300  0.167200  0.937100  1
  O  O601  1  0.011000  0.649000  0.705900  1
  O  O602  1  0.989000  0.351000  0.294100  1
  O  O603  1  0.397600  0.071300  0.418100  1
  O  O604  1  0.602400  0.928700  0.581900  1
  O  O605  1  0.333333  0.956700  0.437300  1
  O  O606  1  0.666667  0.043300  0.562700  1
  O  O607  1  0.249800  0.057900  0.462600  1
  O  O608  1  0.750200  0.942100  0.537400  1
  O  O609  1  0.060600  0.594400  0.571000  1
  O  O610  1  0.939400  0.405600  0.429000  1
  O  O611  1  0.195300  0.665000  0.536000  1
  O  O612  1  0.804700  0.335000  0.464000  1
  O  O613  1  0.178000  0.536100  0.524100  1
  O  O614  1  0.822000  0.463900  0.475900  1
  O  O615  1  0.343000  0.349900  0.826500  1
  O  O616  1  0.657000  0.650100  0.173500  1
  O  O617  1  0.319900  0.463200  0.806200  1
  O  O618  1  0.680100  0.536800  0.193800  1
  O  O619  1  0.479700  0.432900  0.838700  1
  O  O620  1  0.520300  0.567100  0.161300  1
  O  O621  1  0.907000  0.116700  0.823000  1
  O  O622  1  0.093000  0.883300  0.177000  1
  O  O623  1  0.875300  0.217100  0.870600  1
  O  O624  1  0.124700  0.782900  0.129400  1
  O  O625  1  0.021400  0.157400  0.886900  1
  O  O626  1  0.978600  0.842600  0.113100  1
  O  O627  1  0.135800  0.434100  0.442200  1
  O  O628  1  0.864200  0.565900  0.557800  1
  O  O629  1  0.902000  0.150800  0.083100  1
  O  O630  1  0.098000  0.849200  0.916900  1
  O  O631  1  0.761000  0.081000  0.034800  1
  O  O632  1  0.239000  0.919000  0.965200  1
  F  F633  1  0.152100  0.980900  0.368700  1
  F  F634  1  0.847900  0.019100  0.631300  1
  F  F635  1  0.218400  0.076200  0.350700  1
  F  F636  1  0.781600  0.923800  0.649300  1
  F  F637  1  0.287400  0.984800  0.330200  1
  F  F638  1  0.712600  0.015200  0.669800  1
  F  F639  1  0.324200  0.603100  0.595200  1
  F  F640  1  0.675800  0.396900  0.404800  1
  F  F641  1  0.192000  0.552300  0.635400  1
  F  F642  1  0.808000  0.447700  0.364600  1
  F  F643  1  0.227500  0.665900  0.628900  1
  F  F644  1  0.772500  0.334100  0.371100  1
  F  F645  1  0.365300  0.507500  0.912900  1
  F  F646  1  0.634700  0.492500  0.087100  1
  F  F647  1  0.405400  0.414400  0.933800  1
  F  F648  1  0.594600  0.585600  0.066200  1
  F  F649  1  0.254100  0.425700  0.906900  1
  F  F650  1  0.745900  0.574300  0.093100  1
  F  F651  1  0.762600  0.101700  0.898800  1
  F  F652  1  0.237400  0.898300  0.101200  1
  F  F653  1  0.872400  0.039100  0.905300  1
  F  F654  1  0.127600  0.960900  0.094700  1
  F  F655  1  0.875000  0.138700  0.958500  1
  F  F656  1  0.125000  0.861300  0.041500  1
