# generated using pymatgen
data_B6H118Pd3C81N18(O11F12)2
_symmetry_space_group_name_H-M   'P 1'
_cell_length_a   15.52090000
_cell_length_b   15.52090000
_cell_length_c   16.01689736
_cell_angle_alpha   61.01920463
_cell_angle_beta   61.01920463
_cell_angle_gamma   60.00000000
_symmetry_Int_Tables_number   1
_chemical_formula_structural   B6H118Pd3C81N18(O11F12)2
_chemical_formula_sum   'B6 H118 Pd3 C81 N18 O22 F24'
_cell_volume   2769.60982857
_cell_formula_units_Z   1
loop_
 _symmetry_equiv_pos_site_id
 _symmetry_equiv_pos_as_xyz
  1  'x, y, z'
loop_
 _atom_site_type_symbol
 _atom_site_label
 _atom_site_symmetry_multiplicity
 _atom_site_fract_x
 _atom_site_fract_y
 _atom_site_fract_z
 _atom_site_occupancy
  B  B1  1  0.931100  0.090800  0.535600  1
  B  B2  1  0.442500  0.931100  0.535600  1
  B  B3  1  0.090800  0.442500  0.535600  1
  B  B4  1  0.908100  0.908167  0.275600  1
  B  B5  1  0.412967  0.412967  0.761100  1
  B  B6  1  0.566000  0.565900  0.302100  1
  C  C7  1  0.423200  0.869000  0.093400  1
  C  C8  1  0.614400  0.423200  0.093400  1
  C  C9  1  0.869000  0.614400  0.093400  1
  C  C10  1  0.498000  0.885900  0.007000  1
  C  C11  1  0.609100  0.498000  0.007000  1
  C  C12  1  0.885900  0.609100  0.007000  1
  C  C13  1  0.503700  0.890700  0.923900  1
  C  C14  1  0.681700  0.503700  0.923900  1
  C  C15  1  0.890700  0.681700  0.923900  1
  C  C16  1  0.970100  0.384800  0.388000  1.0
  C  C17  1  0.257100  0.970100  0.388000  1.0
  C  C18  1  0.384800  0.257100  0.388000  1.0
  C  C19  1  0.023000  0.325200  0.325600  1.0
  C  C20  1  0.326200  0.023000  0.325600  1.0
  C  C21  1  0.325200  0.326200  0.325600  1.0
  C  C22  1  0.965900  0.316000  0.286600  1.0
  C  C23  1  0.431500  0.965900  0.286600  1.0
  C  C24  1  0.316000  0.431500  0.286600  1.0
  C  C25  1  0.857600  0.366700  0.314200  1.0
  C  C26  1  0.461500  0.857600  0.314200  1.0
  C  C27  1  0.366700  0.461500  0.314200  1.0
  C  C28  1  0.811100  0.423400  0.377800  1.0
  C  C29  1  0.387700  0.811100  0.377800  1.0
  C  C30  1  0.423400  0.387700  0.377800  1.0
  C  C31  1  0.015400  0.253400  0.217000  1.0
  C  C32  1  0.514200  0.015400  0.217000  1.0
  C  C33  1  0.253400  0.514200  0.217000  1.0
  C  C34  1  0.179100  0.148300  0.130300  1.0
  C  C35  1  0.542300  0.179100  0.130300  1.0
  C  C36  1  0.148300  0.542300  0.130300  1.0
  C  C37  1  0.215600  0.221600  0.028900  1.0
  C  C38  1  0.533900  0.215600  0.028900  1.0
  C  C39  1  0.221600  0.533900  0.028900  1.0
  C  C40  1  0.375200  0.217900  0.028900  1.0
  C  C41  1  0.378000  0.375200  0.028900  1.0
  C  C42  1  0.217900  0.378000  0.028900  1.0
  C  C43  1  0.875000  0.307700  0.653500  1.0
  C  C44  1  0.163800  0.875000  0.653500  1.0
  C  C45  1  0.307700  0.163800  0.653500  1.0
  C  C46  1  0.879800  0.208800  0.722500  1.0
  C  C47  1  0.188900  0.879800  0.722500  1.0
  C  C48  1  0.208800  0.188900  0.722500  1.0
  C  C49  1  0.793300  0.178600  0.763900  1.0
  C  C50  1  0.264200  0.793300  0.763900  1.0
  C  C51  1  0.178600  0.264200  0.763900  1.0
  C  C52  1  0.706400  0.248800  0.735700  1.0
  C  C53  1  0.309100  0.706400  0.735700  1.0
  C  C54  1  0.248800  0.309100  0.735700  1.0
  C  C55  1  0.706000  0.344800  0.667000  1.0
  C  C56  1  0.282200  0.706000  0.667000  1.0
  C  C57  1  0.344800  0.282200  0.667000  1.0
  C  C58  1  0.794700  0.072100  0.834100  1.0
  C  C59  1  0.299100  0.794700  0.834100  1.0
  C  C60  1  0.072100  0.299100  0.834100  1.0
  C  C61  1  0.896600  0.905800  0.917200  1.0
  C  C62  1  0.280400  0.896600  0.917200  1.0
  C  C63  1  0.905800  0.280400  0.917200  1.0
  C  C64  1  0.871100  0.907400  0.021300  1.0
  C  C65  1  0.200200  0.871100  0.021300  1.0
  C  C66  1  0.907400  0.200200  0.021300  1.0
  C  C67  1  0.035900  0.889600  0.018900  1.0
  C  C68  1  0.055600  0.035900  0.018900  1.0
  C  C69  1  0.889600  0.055600  0.018900  1.0
  C  C70  1  0.745900  0.678000  0.320800  1.0
  C  C71  1  0.255300  0.745900  0.320800  1.0
  C  C72  1  0.678000  0.255300  0.320800  1.0
  C  C73  1  0.896800  0.654400  0.340000  1.0
  C  C74  1  0.108800  0.896800  0.340000  1.0
  C  C75  1  0.654400  0.108800  0.340000  1.0
  C  C76  1  0.725600  0.738400  0.443200  1.0
  C  C77  1  0.092800  0.725600  0.443200  1.0
  C  C78  1  0.738400  0.092800  0.443200  1.0
  C  C79  1  0.732900  0.708500  0.532900  1.0
  C  C80  1  0.025700  0.732900  0.532900  1.0
  C  C81  1  0.708500  0.025700  0.532900  1.0
  C  C82  1  0.605900  0.608200  0.662500  1.0
  C  C83  1  0.123400  0.605900  0.662500  1.0
  C  C84  1  0.608200  0.123400  0.662500  1.0
  C  C85  1  0.769400  0.557000  0.684400  1.0
  C  C86  1  0.989200  0.769400  0.684400  1.0
  C  C87  1  0.557000  0.989200  0.684400  1.0
  F  F88  1  0.852400  0.180800  0.526000  1
  F  F89  1  0.440800  0.852400  0.526000  1
  F  F90  1  0.180800  0.440800  0.526000  1
  F  F91  1  0.960300  0.052500  0.468700  1
  F  F92  1  0.518500  0.960300  0.468700  1
  F  F93  1  0.052500  0.518500  0.468700  1
  F  F94  1  0.898700  0.025900  0.628000  1
  F  F95  1  0.447400  0.898700  0.628000  1
  F  F96  1  0.025900  0.447400  0.628000  1
  F  F97  1  0.015500  0.101000  0.526000  1
  F  F98  1  0.357500  0.015500  0.526000  1
  F  F99  1  0.101000  0.357500  0.526000  1
  F  F100  1  0.873600  0.873667  0.379100  1
  F  F101  1  0.443567  0.443567  0.669300  1
  F  F102  1  0.532600  0.532500  0.402300  1
  F  F103  1  0.836100  0.918900  0.240800  1.0
  F  F104  1  0.004200  0.836100  0.240800  1.0
  F  F105  1  0.918900  0.004200  0.240800  1.0
  F  F106  1  0.443300  0.304700  0.799500  1.0
  F  F107  1  0.452500  0.443300  0.799500  1.0
  F  F108  1  0.304700  0.452500  0.799500  1.0
  F  F109  1  0.482600  0.611400  0.272100  1.0
  F  F110  1  0.633900  0.482600  0.272100  1.0
  F  F111  1  0.611400  0.633900  0.272100  1.0
  H  H112  1  0.432600  0.880000  0.142000  1
  H  H113  1  0.545400  0.432600  0.142000  1
  H  H114  1  0.880000  0.545400  0.142000  1
  H  H115  1  0.426300  0.797900  0.116800  1
  H  H116  1  0.659000  0.426300  0.116800  1
  H  H117  1  0.797900  0.659000  0.116800  1
  H  H118  1  0.356100  0.916400  0.084700  1
  H  H119  1  0.642800  0.356100  0.084700  1
  H  H120  1  0.916400  0.642800  0.084700  1
  H  H121  1  0.565800  0.905600  0.872900  1
  H  H122  1  0.655700  0.565800  0.872900  1
  H  H123  1  0.905600  0.655700  0.872900  1
  H  H124  1  0.442800  0.946900  0.905900  1
  H  H125  1  0.704400  0.442800  0.905900  1
  H  H126  1  0.946900  0.704400  0.905900  1
  H  H127  1  0.506100  0.825900  0.929000  1
  H  H128  1  0.739000  0.506100  0.929000  1
  H  H129  1  0.825900  0.739000  0.929000  1
  H  H130  1  0.187200  0.187200  0.438400  1
  H  H131  1  0.115100  0.146800  0.522100  1
  H  H132  1  0.216000  0.115100  0.522100  1
  H  H133  1  0.146800  0.216000  0.522100  1
  H  H134  1  0.008000  0.393300  0.412300  1.0
  H  H135  1  0.186400  0.008000  0.412300  1.0
  H  H136  1  0.393300  0.186400  0.412300  1.0
  H  H137  1  0.095400  0.291400  0.309700  1.0
  H  H138  1  0.303500  0.095400  0.309700  1.0
  H  H139  1  0.291400  0.303500  0.309700  1.0
  H  H140  1  0.817400  0.362100  0.289300  1.0
  H  H141  1  0.531200  0.817400  0.289300  1.0
  H  H142  1  0.362100  0.531200  0.289300  1.0
  H  H143  1  0.738800  0.457600  0.395500  1.0
  H  H144  1  0.408100  0.738800  0.395500  1.0
  H  H145  1  0.457600  0.408100  0.395500  1.0
  H  H146  1  0.135900  0.120900  0.128800  1.0
  H  H147  1  0.614400  0.135900  0.128800  1.0
  H  H148  1  0.120900  0.614400  0.128800  1.0
  H  H149  1  0.239300  0.089700  0.148300  1.0
  H  H150  1  0.522700  0.239300  0.148300  1.0
  H  H151  1  0.089700  0.522700  0.148300  1.0
  H  H152  1  0.262100  0.182600  0.981500  1.0
  H  H153  1  0.573800  0.262100  0.981500  1.0
  H  H154  1  0.182600  0.573800  0.981500  1.0
  H  H155  1  0.155500  0.273500  0.006400  1.0
  H  H156  1  0.564600  0.155500  0.006400  1.0
  H  H157  1  0.273500  0.564600  0.006400  1.0
  H  H158  1  0.933100  0.327900  0.625300  1.0
  H  H159  1  0.113700  0.933100  0.625300  1.0
  H  H160  1  0.327900  0.113700  0.625300  1.0
  H  H161  1  0.940000  0.163100  0.741100  1.0
  H  H162  1  0.155800  0.940000  0.741100  1.0
  H  H163  1  0.163100  0.155800  0.741100  1.0
  H  H164  1  0.646900  0.230800  0.763900  1.0
  H  H165  1  0.358400  0.646900  0.763900  1.0
  H  H166  1  0.230800  0.358400  0.763900  1.0
  H  H167  1  0.646200  0.390600  0.648100  1.0
  H  H168  1  0.315100  0.646200  0.648100  1.0
  H  H169  1  0.390600  0.315100  0.648100  1.0
  H  H170  1  0.966800  0.856500  0.897400  1.0
  H  H171  1  0.279300  0.966800  0.897400  1.0
  H  H172  1  0.856500  0.279300  0.897400  1.0
  H  H173  1  0.847500  0.882700  0.919600  1.0
  H  H174  1  0.350200  0.847500  0.919600  1.0
  H  H175  1  0.882700  0.350200  0.919600  1.0
  H  H176  1  0.797500  0.947800  0.045300  1.0
  H  H177  1  0.209400  0.797500  0.045300  1.0
  H  H178  1  0.947800  0.209400  0.045300  1.0
  H  H179  1  0.883600  0.836300  0.067500  1.0
  H  H180  1  0.212600  0.883600  0.067500  1.0
  H  H181  1  0.836300  0.212600  0.067500  1.0
  H  H182  1  0.785100  0.622700  0.291400  1.0
  H  H183  1  0.300800  0.785100  0.291400  1.0
  H  H184  1  0.622700  0.300800  0.291400  1.0
  H  H185  1  0.749200  0.743600  0.269200  1.0
  H  H186  1  0.238000  0.749200  0.269200  1.0
  H  H187  1  0.743600  0.238000  0.269200  1.0
  H  H188  1  0.674000  0.681500  0.354400  1.0
  H  H189  1  0.290100  0.674000  0.354400  1.0
  H  H190  1  0.681500  0.290100  0.354400  1.0
  H  H191  1  0.936200  0.595700  0.315100  1.0
  H  H192  1  0.153000  0.936200  0.315100  1.0
  H  H193  1  0.595700  0.153000  0.315100  1.0
  H  H194  1  0.929000  0.648100  0.382000  1.0
  H  H195  1  0.040900  0.929000  0.382000  1.0
  H  H196  1  0.648100  0.040900  0.382000  1.0
  H  H197  1  0.895700  0.718400  0.284500  1.0
  H  H198  1  0.101400  0.895700  0.284500  1.0
  H  H199  1  0.718400  0.101400  0.284500  1.0
  H  H200  1  0.745700  0.800100  0.399700  1.0
  H  H201  1  0.054500  0.745700  0.399700  1.0
  H  H202  1  0.800100  0.054500  0.399700  1.0
  H  H203  1  0.653300  0.757100  0.450100  1.0
  H  H204  1  0.139500  0.653300  0.450100  1.0
  H  H205  1  0.757100  0.139500  0.450100  1.0
  H  H206  1  0.681500  0.763100  0.563500  1.0
  H  H207  1  0.991900  0.681500  0.563500  1.0
  H  H208  1  0.763100  0.991900  0.563500  1.0
  H  H209  1  0.801800  0.702900  0.523600  1.0
  H  H210  1  0.971700  0.801800  0.523600  1.0
  H  H211  1  0.702900  0.971700  0.523600  1.0
  H  H212  1  0.571800  0.633700  0.614500  1.0
  H  H213  1  0.180000  0.571800  0.614500  1.0
  H  H214  1  0.633700  0.180000  0.614500  1.0
  H  H215  1  0.572000  0.656300  0.699700  1.0
  H  H216  1  0.072000  0.572000  0.699700  1.0
  H  H217  1  0.656300  0.072000  0.699700  1.0
  H  H218  1  0.601300  0.540600  0.708100  1.0
  H  H219  1  0.150000  0.601300  0.708100  1.0
  H  H220  1  0.540600  0.150000  0.708100  1.0
  H  H221  1  0.840800  0.554600  0.649300  1.0
  H  H222  1  0.955300  0.840800  0.649300  1.0
  H  H223  1  0.554600  0.955300  0.649300  1.0
  H  H224  1  0.768200  0.487500  0.726700  1.0
  H  H225  1  0.017600  0.768200  0.726700  1.0
  H  H226  1  0.487500  0.017600  0.726700  1.0
  H  H227  1  0.734100  0.601700  0.725200  1.0
  H  H228  1  0.939000  0.734100  0.725200  1.0
  H  H229  1  0.601700  0.939000  0.725200  1.0
  N  N230  1  0.865000  0.431700  0.415300  1.0
  N  N231  1  0.288000  0.865000  0.415300  1.0
  N  N232  1  0.431700  0.288000  0.415300  1.0
  N  N233  1  0.271600  0.276200  0.028600  1.0
  N  N234  1  0.423600  0.271600  0.028600  1.0
  N  N235  1  0.276200  0.423600  0.028600  1.0
  N  N236  1  0.788400  0.376100  0.625600  1.0
  N  N237  1  0.209900  0.788400  0.625600  1.0
  N  N238  1  0.376100  0.209900  0.625600  1.0
  N  N239  1  0.935100  0.953400  0.019500  1.0
  N  N240  1  0.092000  0.935100  0.019500  1.0
  N  N241  1  0.953400  0.092000  0.019500  1.0
  N  N242  1  0.793000  0.655300  0.397300  1.0
  N  N243  1  0.154400  0.793000  0.397300  1.0
  N  N244  1  0.655300  0.154400  0.397300  1.0
  N  N245  1  0.715400  0.599100  0.610300  1.0
  N  N246  1  0.075200  0.715400  0.610300  1.0
  N  N247  1  0.599100  0.075200  0.610300  1.0
  O  O248  1  0.166400  0.166400  0.500800  1
  O  O249  1  0.594300  0.862500  0.021100  1
  O  O250  1  0.522100  0.594300  0.021100  1
  O  O251  1  0.862500  0.522100  0.021100  1
  O  O252  1  0.968800  0.252300  0.177700  1.0
  O  O253  1  0.601200  0.968800  0.177700  1.0
  O  O254  1  0.252300  0.601200  0.177700  1.0
  O  O255  1  0.118600  0.202800  0.205000  1.0
  O  O256  1  0.473600  0.118600  0.205000  1.0
  O  O257  1  0.202800  0.473600  0.205000  1.0
  O  O258  1  0.415900  0.127400  0.034600  1.0
  O  O259  1  0.422100  0.415900  0.034600  1.0
  O  O260  1  0.127400  0.422100  0.034600  1.0
  O  O261  1  0.718300  0.046600  0.876700  1.0
  O  O262  1  0.358400  0.718300  0.876700  1.0
  O  O263  1  0.046600  0.358400  0.876700  1.0
  O  O264  1  0.890000  0.007500  0.845500  1.0
  O  O265  1  0.257000  0.890000  0.845500  1.0
  O  O266  1  0.007500  0.257000  0.845500  1.0
  O  O267  1  0.073400  0.801100  0.017100  1.0
  O  O268  1  0.108400  0.073400  0.017100  1.0
  O  O269  1  0.801100  0.108400  0.017100  1.0
  Pd  Pd270  1  0.790680  0.514310  0.513100  1.0
  Pd  Pd271  1  0.181910  0.790680  0.513100  1.0
  Pd  Pd272  1  0.514310  0.181910  0.513100  1.0
