# generated using pymatgen
data_H118Pd3C81N18Cl6O47
_symmetry_space_group_name_H-M   'P 1'
_cell_length_a   15.52570000
_cell_length_b   15.52570000
_cell_length_c   16.25289925
_cell_angle_alpha   61.46936171
_cell_angle_beta   61.46936171
_cell_angle_gamma   60.00000000
_symmetry_Int_Tables_number   1
_chemical_formula_structural   H118Pd3C81N18Cl6O47
_chemical_formula_sum   'H118 Pd3 C81 N18 Cl6 O47'
_cell_volume   2830.18458124
_cell_formula_units_Z   1
loop_
 _symmetry_equiv_pos_site_id
 _symmetry_equiv_pos_as_xyz
  1  'x, y, z'
loop_
 _atom_site_type_symbol
 _atom_site_label
 _atom_site_symmetry_multiplicity
 _atom_site_fract_x
 _atom_site_fract_y
 _atom_site_fract_z
 _atom_site_occupancy
  C  C1  1  0.621600  0.854900  0.011500  1
  C  C2  1  0.512000  0.621600  0.011500  1
  C  C3  1  0.854900  0.512000  0.011500  1
  C  C4  1  0.507000  0.884200  0.030100  1
  C  C5  1  0.578700  0.507000  0.030100  1
  C  C6  1  0.884200  0.578700  0.030100  1
  C  C7  1  0.502900  0.938300  0.925700  1
  C  C8  1  0.633100  0.502900  0.925700  1
  C  C9  1  0.938300  0.633100  0.925700  1
  C  C10  1  0.818050  0.409550  0.370450  1.0
  C  C11  1  0.401950  0.818050  0.370450  1.0
  C  C12  1  0.409550  0.401950  0.370450  1.0
  C  C13  1  0.864930  0.353230  0.308710  1.0
  C  C14  1  0.473130  0.864930  0.308710  1.0
  C  C15  1  0.353230  0.473130  0.308710  1.0
  C  C16  1  0.972120  0.302420  0.284740  1.0
  C  C17  1  0.440720  0.972120  0.284740  1.0
  C  C18  1  0.302420  0.440720  0.284740  1.0
  C  C19  1  0.023890  0.313390  0.325030  1.0
  C  C20  1  0.337690  0.023890  0.325030  1.0
  C  C21  1  0.313390  0.337690  0.325030  1.0
  C  C22  1  0.969290  0.373990  0.385330  1.0
  C  C23  1  0.271390  0.969290  0.385330  1.0
  C  C24  1  0.373990  0.271390  0.385330  1.0
  C  C25  1  0.024640  0.238840  0.217780  1.0
  C  C26  1  0.518740  0.024640  0.217780  1.0
  C  C27  1  0.238840  0.518740  0.217780  1.0
  C  C28  1  0.187210  0.133910  0.133570  1.0
  C  C29  1  0.545310  0.187210  0.133570  1.0
  C  C30  1  0.133910  0.545310  0.133570  1.0
  C  C31  1  0.222510  0.211210  0.035170  1.0
  C  C32  1  0.531110  0.222510  0.035170  1.0
  C  C33  1  0.211210  0.531110  0.035170  1.0
  C  C34  1  0.374030  0.215730  0.041110  1.0
  C  C35  1  0.369130  0.374030  0.041110  1.0
  C  C36  1  0.215730  0.369130  0.041110  1.0
  C  C37  1  0.700530  0.346630  0.657910  1.0
  C  C38  1  0.294930  0.700530  0.657910  1.0
  C  C39  1  0.346630  0.294930  0.657910  1.0
  C  C40  1  0.696800  0.253000  0.730600  1.0
  C  C41  1  0.319600  0.696800  0.730600  1.0
  C  C42  1  0.253000  0.319600  0.730600  1.0
  C  C43  1  0.784720  0.185020  0.761140  1.0
  C  C44  1  0.269120  0.784720  0.761140  1.0
  C  C45  1  0.185020  0.269120  0.761140  1.0
  C  C46  1  0.868660  0.215360  0.720820  1.0
  C  C47  1  0.195160  0.868660  0.720820  1.0
  C  C48  1  0.215360  0.195160  0.720820  1.0
  C  C49  1  0.864990  0.312390  0.648430  1.0
  C  C50  1  0.174190  0.864990  0.648430  1.0
  C  C51  1  0.312390  0.174190  0.648430  1.0
  C  C52  1  0.783290  0.082090  0.835330  1.0
  C  C53  1  0.299290  0.783290  0.835330  1.0
  C  C54  1  0.082090  0.299290  0.835330  1.0
  C  C55  1  0.886770  0.916370  0.918490  1.0
  C  C56  1  0.278370  0.886770  0.918490  1.0
  C  C57  1  0.916370  0.278370  0.918490  1.0
  C  C58  1  0.865770  0.916970  0.018390  1.0
  C  C59  1  0.198870  0.865770  0.018390  1.0
  C  C60  1  0.916970  0.198870  0.018390  1.0
  C  C61  1  0.891110  0.058710  0.015270  1.0
  C  C62  1  0.034910  0.891110  0.015270  1.0
  C  C63  1  0.058710  0.034910  0.015270  1.0
  C  C64  1  0.753710  0.664910  0.304270  1.0
  C  C65  1  0.277110  0.753710  0.304270  1.0
  C  C66  1  0.664910  0.277110  0.304270  1.0
  C  C67  1  0.899490  0.649890  0.334930  1.0
  C  C68  1  0.115690  0.899490  0.334930  1.0
  C  C69  1  0.649890  0.115690  0.334930  1.0
  C  C70  1  0.720000  0.734600  0.427000  1.0
  C  C71  1  0.118400  0.720000  0.427000  1.0
  C  C72  1  0.734600  0.118400  0.427000  1.0
  C  C73  1  0.597550  0.617050  0.632650  1.0
  C  C74  1  0.152750  0.597550  0.632650  1.0
  C  C75  1  0.617050  0.152750  0.632650  1.0
  C  C76  1  0.754060  0.560260  0.671020  1.0
  C  C77  1  0.014660  0.754060  0.671020  1.0
  C  C78  1  0.560260  0.014660  0.671020  1.0
  C  C79  1  0.729000  0.705100  0.522400  1.0
  C  C80  1  0.043500  0.729000  0.522400  1.0
  C  C81  1  0.705100  0.043500  0.522400  1.0
  Cl  Cl82  1  0.935730  0.083130  0.541030  1
  Cl  Cl83  1  0.440110  0.935730  0.541030  1
  Cl  Cl84  1  0.083130  0.440110  0.541030  1
  Cl  Cl85  1  0.908027  0.907993  0.275920  1
  Cl  Cl86  1  0.520223  0.520223  0.439330  1
  Cl  Cl87  1  0.404183  0.404183  0.787450  1
  H  H88  1  0.638600  0.808500  0.071200  1
  H  H89  1  0.481700  0.638600  0.071200  1
  H  H90  1  0.808500  0.481700  0.071200  1
  H  H91  1  0.636300  0.917100  0.989300  1
  H  H92  1  0.457300  0.636300  0.989300  1
  H  H93  1  0.917100  0.457300  0.989300  1
  H  H94  1  0.662900  0.820700  0.961700  1
  H  H95  1  0.554700  0.662900  0.961700  1
  H  H96  1  0.820700  0.554700  0.961700  1
  H  H97  1  0.432500  0.961800  0.926300  1
  H  H98  1  0.679400  0.432500  0.926300  1
  H  H99  1  0.961800  0.679400  0.926300  1
  H  H100  1  0.548600  0.890000  0.888500  1
  H  H101  1  0.672900  0.548600  0.888500  1
  H  H102  1  0.890000  0.672900  0.888500  1
  H  H103  1  0.525000  0.997100  0.896000  1
  H  H104  1  0.581900  0.525000  0.896000  1
  H  H105  1  0.997100  0.581900  0.896000  1
  H  H106  1  0.748767  0.748767  0.753700  1
  H  H107  1  0.673500  0.776200  0.834700  1
  H  H108  1  0.715600  0.673500  0.834700  1
  H  H109  1  0.776200  0.715600  0.834700  1
  H  H110  1  0.745500  0.441300  0.388000  1.0
  H  H111  1  0.425200  0.745500  0.388000  1.0
  H  H112  1  0.441300  0.425200  0.388000  1.0
  H  H113  1  0.825900  0.348700  0.282700  1.0
  H  H114  1  0.542700  0.825900  0.282700  1.0
  H  H115  1  0.348700  0.542700  0.282700  1.0
  H  H116  1  0.096000  0.279800  0.311500  1.0
  H  H117  1  0.312700  0.096000  0.311500  1.0
  H  H118  1  0.279800  0.312700  0.311500  1.0
  H  H119  1  0.006500  0.380600  0.411700  1.0
  H  H120  1  0.201200  0.006500  0.411700  1.0
  H  H121  1  0.380600  0.201200  0.411700  1.0
  H  H122  1  0.144700  0.107300  0.130000  1.0
  H  H123  1  0.618000  0.144700  0.130000  1.0
  H  H124  1  0.107300  0.618000  0.130000  1.0
  H  H125  1  0.247600  0.075100  0.151000  1.0
  H  H126  1  0.526300  0.247600  0.151000  1.0
  H  H127  1  0.075100  0.526300  0.151000  1.0
  H  H128  1  0.272100  0.174200  0.987200  1.0
  H  H129  1  0.566500  0.272100  0.987200  1.0
  H  H130  1  0.174200  0.566500  0.987200  1.0
  H  H131  1  0.162600  0.261700  0.012400  1.0
  H  H132  1  0.563300  0.162600  0.012400  1.0
  H  H133  1  0.261700  0.563300  0.012400  1.0
  H  H134  1  0.642100  0.391500  0.636700  1.0
  H  H135  1  0.329700  0.642100  0.636700  1.0
  H  H136  1  0.391500  0.329700  0.636700  1.0
  H  H137  1  0.637200  0.235700  0.758500  1.0
  H  H138  1  0.368600  0.637200  0.758500  1.0
  H  H139  1  0.235700  0.368600  0.758500  1.0
  H  H140  1  0.927700  0.171900  0.741400  1.0
  H  H141  1  0.159000  0.927700  0.741400  1.0
  H  H142  1  0.171900  0.159000  0.741400  1.0
  H  H143  1  0.922400  0.332900  0.621700  1.0
  H  H144  1  0.123000  0.922400  0.621700  1.0
  H  H145  1  0.332900  0.123000  0.621700  1.0
  H  H146  1  0.956900  0.867800  0.897100  1.0
  H  H147  1  0.278200  0.956900  0.897100  1.0
  H  H148  1  0.867800  0.278200  0.897100  1.0
  H  H149  1  0.837500  0.892600  0.922300  1.0
  H  H150  1  0.347600  0.837500  0.922300  1.0
  H  H151  1  0.892600  0.347600  0.922300  1.0
  H  H152  1  0.793200  0.959400  0.042600  1.0
  H  H153  1  0.204800  0.793200  0.042600  1.0
  H  H154  1  0.959400  0.204800  0.042600  1.0
  H  H155  1  0.876700  0.846100  0.063600  1.0
  H  H156  1  0.213600  0.876700  0.063600  1.0
  H  H157  1  0.846100  0.213600  0.063600  1.0
  H  H158  1  0.799600  0.610000  0.274600  1.0
  H  H159  1  0.315800  0.799600  0.274600  1.0
  H  H160  1  0.610000  0.315800  0.274600  1.0
  H  H161  1  0.754000  0.731400  0.254500  1.0
  H  H162  1  0.260100  0.754000  0.254500  1.0
  H  H163  1  0.731400  0.260100  0.254500  1.0
  H  H164  1  0.683900  0.663600  0.333700  1.0
  H  H165  1  0.318800  0.683900  0.333700  1.0
  H  H166  1  0.663600  0.318800  0.333700  1.0
  H  H167  1  0.944800  0.590600  0.311200  1.0
  H  H168  1  0.153400  0.944800  0.311200  1.0
  H  H169  1  0.590600  0.153400  0.311200  1.0
  H  H170  1  0.923800  0.646700  0.381100  1.0
  H  H171  1  0.048400  0.923800  0.381100  1.0
  H  H172  1  0.646700  0.048400  0.381100  1.0
  H  H173  1  0.900100  0.713300  0.280300  1.0
  H  H174  1  0.106300  0.900100  0.280300  1.0
  H  H175  1  0.713300  0.106300  0.280300  1.0
  H  H176  1  0.737400  0.797300  0.383200  1.0
  H  H177  1  0.082100  0.737400  0.383200  1.0
  H  H178  1  0.797300  0.082100  0.383200  1.0
  H  H179  1  0.648500  0.749800  0.434200  1.0
  H  H180  1  0.167500  0.648500  0.434200  1.0
  H  H181  1  0.749800  0.167500  0.434200  1.0
  H  H182  1  0.569300  0.647400  0.579700  1.0
  H  H183  1  0.203600  0.569300  0.579700  1.0
  H  H184  1  0.647400  0.203600  0.579700  1.0
  H  H185  1  0.561300  0.662700  0.672100  1.0
  H  H186  1  0.103900  0.561300  0.672100  1.0
  H  H187  1  0.662700  0.103900  0.672100  1.0
  H  H188  1  0.589400  0.550400  0.672700  1.0
  H  H189  1  0.187500  0.589400  0.672700  1.0
  H  H190  1  0.550400  0.187500  0.672700  1.0
  H  H191  1  0.827000  0.551500  0.643000  1.0
  H  H192  1  0.978500  0.827000  0.643000  1.0
  H  H193  1  0.551500  0.978500  0.643000  1.0
  H  H194  1  0.746300  0.493800  0.713500  1.0
  H  H195  1  0.046400  0.746300  0.713500  1.0
  H  H196  1  0.493800  0.046400  0.713500  1.0
  H  H197  1  0.717900  0.608000  0.708400  1.0
  H  H198  1  0.965700  0.717900  0.708400  1.0
  H  H199  1  0.608000  0.965700  0.708400  1.0
  H  H200  1  0.678500  0.760300  0.552100  1.0
  H  H201  1  0.009100  0.678500  0.552100  1.0
  H  H202  1  0.760300  0.009100  0.552100  1.0
  H  H203  1  0.798400  0.697300  0.514000  1.0
  H  H204  1  0.990300  0.798400  0.514000  1.0
  H  H205  1  0.697300  0.990300  0.514000  1.0
  N  N206  1  0.868120  0.423220  0.408640  1.0
  N  N207  1  0.300020  0.868120  0.408640  1.0
  N  N208  1  0.423220  0.300020  0.408640  1.0
  N  N209  1  0.272020  0.267020  0.041140  1.0
  N  N210  1  0.419820  0.272020  0.041140  1.0
  N  N211  1  0.267020  0.419820  0.041140  1.0
  N  N212  1  0.782690  0.377190  0.615730  1.0
  N  N213  1  0.224390  0.782690  0.615730  1.0
  N  N214  1  0.377190  0.224390  0.615730  1.0
  N  N215  1  0.932860  0.957860  0.016620  1.0
  N  N216  1  0.092660  0.932860  0.016620  1.0
  N  N217  1  0.957860  0.092660  0.016620  1.0
  N  N218  1  0.791930  0.648430  0.384310  1.0
  N  N219  1  0.175330  0.791930  0.384310  1.0
  N  N220  1  0.648430  0.175330  0.384310  1.0
  N  N221  1  0.709440  0.602640  0.591580  1.0
  N  N222  1  0.096340  0.709440  0.591580  1.0
  N  N223  1  0.602640  0.096340  0.591580  1.0
  O  O224  1  0.856730  0.181030  0.523510  1
  O  O225  1  0.438730  0.856730  0.523510  1
  O  O226  1  0.181030  0.438730  0.523510  1
  O  O227  1  0.022000  0.096500  0.534700  1
  O  O228  1  0.346800  0.022000  0.534700  1
  O  O229  1  0.096500  0.346800  0.534700  1
  O  O230  1  0.899260  0.019360  0.637420  1
  O  O231  1  0.443960  0.899260  0.637420  1
  O  O232  1  0.019360  0.443960  0.637420  1
  O  O233  1  0.970200  0.039200  0.474400  1
  O  O234  1  0.516200  0.970200  0.474400  1
  O  O235  1  0.039200  0.516200  0.474400  1
  O  O236  1  0.872707  0.872673  0.381880  1
  O  O237  1  0.554833  0.554833  0.335500  1
  O  O238  1  0.438233  0.438233  0.685300  1
  O  O239  1  0.728767  0.728767  0.813700  1
  O  O240  1  0.418100  0.880900  0.073300  1
  O  O241  1  0.627700  0.418100  0.073300  1
  O  O242  1  0.880900  0.627700  0.073300  1
  O  O243  1  0.183100  0.183100  0.450700  1
  O  O244  1  0.126360  0.187360  0.207820  1.0
  O  O245  1  0.478460  0.126360  0.207820  1.0
  O  O246  1  0.187360  0.478460  0.207820  1.0
  O  O247  1  0.979900  0.237700  0.174400  1.0
  O  O248  1  0.608000  0.979900  0.174400  1.0
  O  O249  1  0.237700  0.608000  0.174400  1.0
  O  O250  1  0.419600  0.123000  0.045700  1.0
  O  O251  1  0.411700  0.419600  0.045700  1.0
  O  O252  1  0.123000  0.411700  0.045700  1.0
  O  O253  1  0.877000  0.021000  0.846400  1.0
  O  O254  1  0.255600  0.877000  0.846400  1.0
  O  O255  1  0.021000  0.255600  0.846400  1.0
  O  O256  1  0.708560  0.056760  0.875320  1.0
  O  O257  1  0.359360  0.708560  0.875320  1.0
  O  O258  1  0.056760  0.359360  0.875320  1.0
  O  O259  1  0.802900  0.116600  0.013800  1.0
  O  O260  1  0.066700  0.802900  0.013800  1.0
  O  O261  1  0.116600  0.066700  0.013800  1.0
  O  O262  1  0.833590  0.919590  0.241030  1.0
  O  O263  1  0.005790  0.833590  0.241030  1.0
  O  O264  1  0.919590  0.005790  0.241030  1.0
  O  O265  1  0.558370  0.408370  0.472990  1.0
  O  O266  1  0.560270  0.558370  0.472990  1.0
  O  O267  1  0.408370  0.560270  0.472990  1.0
  O  O268  1  0.431690  0.292290  0.822130  1.0
  O  O269  1  0.453890  0.431690  0.822130  1.0
  O  O270  1  0.292290  0.453890  0.822130  1.0
  Pd  Pd271  1  0.788749  0.511079  0.500413  1.0
  Pd  Pd272  1  0.199759  0.788749  0.500413  1.0
  Pd  Pd273  1  0.511079  0.199759  0.500413  1.0
