# generated using pymatgen
data_Na12Cu3H24C44(IO27)2
_symmetry_space_group_name_H-M   'P 1'
_cell_length_a   25.88795708
_cell_length_b   25.88795708
_cell_length_c   25.88795708
_cell_angle_alpha   60.00000000
_cell_angle_beta   60.00000000
_cell_angle_gamma   60.00000000
_symmetry_Int_Tables_number   1
_chemical_formula_structural   Na12Cu3H24C44(IO27)2
_chemical_formula_sum   'Na48 Cu12 H96 C176 I8 O216'
_cell_volume   12268.12921946
_cell_formula_units_Z   4
loop_
 _symmetry_equiv_pos_site_id
 _symmetry_equiv_pos_as_xyz
  1  'x, y, z'
loop_
 _atom_site_type_symbol
 _atom_site_label
 _atom_site_symmetry_multiplicity
 _atom_site_fract_x
 _atom_site_fract_y
 _atom_site_fract_z
 _atom_site_occupancy
  C  C1  1  0.309000  0.309000  0.573000  1
  C  C2  1  0.309000  0.573000  0.309000  1
  C  C3  1  0.573000  0.309000  0.309000  1
  C  C4  1  0.309000  0.309000  0.309000  1
  C  C5  1  0.691000  0.691000  0.427000  1
  C  C6  1  0.691000  0.427000  0.691000  1
  C  C7  1  0.691000  0.691000  0.691000  1
  C  C8  1  0.427000  0.691000  0.691000  1
  C  C9  1  0.286000  0.286000  0.763020  1.0
  C  C10  1  0.164980  0.763020  0.286000  1.0
  C  C11  1  0.763020  0.164980  0.286000  1.0
  C  C12  1  0.286000  0.286000  0.164980  1.0
  C  C13  1  0.286000  0.763020  0.286000  1.0
  C  C14  1  0.763020  0.286000  0.164980  1.0
  C  C15  1  0.164980  0.286000  0.763020  1.0
  C  C16  1  0.286000  0.164980  0.286000  1.0
  C  C17  1  0.763020  0.286000  0.286000  1.0
  C  C18  1  0.286000  0.164980  0.763020  1.0
  C  C19  1  0.286000  0.763020  0.164980  1.0
  C  C20  1  0.164980  0.286000  0.286000  1.0
  C  C21  1  0.835020  0.714000  0.236980  1.0
  C  C22  1  0.714000  0.236980  0.714000  1.0
  C  C23  1  0.714000  0.835020  0.714000  1.0
  C  C24  1  0.236980  0.714000  0.835020  1.0
  C  C25  1  0.835020  0.236980  0.714000  1.0
  C  C26  1  0.714000  0.714000  0.835020  1.0
  C  C27  1  0.714000  0.714000  0.236980  1.0
  C  C28  1  0.236980  0.835020  0.714000  1.0
  C  C29  1  0.835020  0.714000  0.714000  1.0
  C  C30  1  0.714000  0.835020  0.236980  1.0
  C  C31  1  0.714000  0.236980  0.835020  1.0
  C  C32  1  0.236980  0.714000  0.714000  1.0
  C  C33  1  0.446840  0.230640  0.647900  1.0
  C  C34  1  0.174620  0.647900  0.230640  1.0
  C  C35  1  0.647900  0.174620  0.446840  1.0
  C  C36  1  0.230640  0.446840  0.174620  1.0
  C  C37  1  0.230640  0.647900  0.446840  1.0
  C  C38  1  0.647900  0.230640  0.174620  1.0
  C  C39  1  0.174620  0.446840  0.647900  1.0
  C  C40  1  0.446840  0.174620  0.230640  1.0
  C  C41  1  0.647900  0.446840  0.230640  1.0
  C  C42  1  0.230640  0.174620  0.647900  1.0
  C  C43  1  0.446840  0.647900  0.174620  1.0
  C  C44  1  0.174620  0.230640  0.446840  1.0
  C  C45  1  0.825380  0.769360  0.352100  1.0
  C  C46  1  0.553160  0.352100  0.769360  1.0
  C  C47  1  0.769360  0.825380  0.553160  1.0
  C  C48  1  0.352100  0.553160  0.825380  1.0
  C  C49  1  0.825380  0.352100  0.553160  1.0
  C  C50  1  0.553160  0.769360  0.825380  1.0
  C  C51  1  0.769360  0.553160  0.352100  1.0
  C  C52  1  0.352100  0.825380  0.769360  1.0
  C  C53  1  0.825380  0.553160  0.769360  1.0
  C  C54  1  0.553160  0.825380  0.352100  1.0
  C  C55  1  0.769360  0.352100  0.825380  1.0
  C  C56  1  0.352100  0.769360  0.553160  1.0
  C  C57  1  0.553160  0.769360  0.352100  1.0
  C  C58  1  0.825380  0.352100  0.769360  1.0
  C  C59  1  0.352100  0.825380  0.553160  1.0
  C  C60  1  0.769360  0.553160  0.825380  1.0
  C  C61  1  0.769360  0.352100  0.553160  1.0
  C  C62  1  0.352100  0.769360  0.825380  1.0
  C  C63  1  0.825380  0.553160  0.352100  1.0
  C  C64  1  0.553160  0.825380  0.769360  1.0
  C  C65  1  0.352100  0.553160  0.769360  1.0
  C  C66  1  0.769360  0.825380  0.352100  1.0
  C  C67  1  0.553160  0.352100  0.825380  1.0
  C  C68  1  0.825380  0.769360  0.553160  1.0
  C  C69  1  0.174620  0.230640  0.647900  1.0
  C  C70  1  0.446840  0.647900  0.230640  1.0
  C  C71  1  0.230640  0.174620  0.446840  1.0
  C  C72  1  0.647900  0.446840  0.174620  1.0
  C  C73  1  0.174620  0.647900  0.446840  1.0
  C  C74  1  0.446840  0.230640  0.174620  1.0
  C  C75  1  0.230640  0.446840  0.647900  1.0
  C  C76  1  0.647900  0.174620  0.230640  1.0
  C  C77  1  0.174620  0.446840  0.230640  1.0
  C  C78  1  0.446840  0.174620  0.647900  1.0
  C  C79  1  0.230640  0.647900  0.174620  1.0
  C  C80  1  0.647900  0.230640  0.446840  1.0
  C  C81  1  0.341570  0.243030  0.725770  1.0
  C  C82  1  0.189630  0.725770  0.243030  1.0
  C  C83  1  0.725770  0.189630  0.341570  1.0
  C  C84  1  0.243030  0.341570  0.189630  1.0
  C  C85  1  0.243030  0.725770  0.341570  1.0
  C  C86  1  0.725770  0.243030  0.189630  1.0
  C  C87  1  0.189630  0.341570  0.725770  1.0
  C  C88  1  0.341570  0.189630  0.243030  1.0
  C  C89  1  0.725770  0.341570  0.243030  1.0
  C  C90  1  0.243030  0.189630  0.725770  1.0
  C  C91  1  0.341570  0.725770  0.189630  1.0
  C  C92  1  0.189630  0.243030  0.341570  1.0
  C  C93  1  0.810370  0.756970  0.274230  1.0
  C  C94  1  0.658430  0.274230  0.756970  1.0
  C  C95  1  0.756970  0.810370  0.658430  1.0
  C  C96  1  0.274230  0.658430  0.810370  1.0
  C  C97  1  0.810370  0.274230  0.658430  1.0
  C  C98  1  0.658430  0.756970  0.810370  1.0
  C  C99  1  0.756970  0.658430  0.274230  1.0
  C  C100  1  0.274230  0.810370  0.756970  1.0
  C  C101  1  0.810370  0.658430  0.756970  1.0
  C  C102  1  0.658430  0.810370  0.274230  1.0
  C  C103  1  0.756970  0.274230  0.810370  1.0
  C  C104  1  0.274230  0.756970  0.658430  1.0
  C  C105  1  0.658430  0.756970  0.274230  1.0
  C  C106  1  0.810370  0.274230  0.756970  1.0
  C  C107  1  0.274230  0.810370  0.658430  1.0
  C  C108  1  0.756970  0.658430  0.810370  1.0
  C  C109  1  0.756970  0.274230  0.658430  1.0
  C  C110  1  0.274230  0.756970  0.810370  1.0
  C  C111  1  0.810370  0.658430  0.274230  1.0
  C  C112  1  0.658430  0.810370  0.756970  1.0
  C  C113  1  0.274230  0.658430  0.756970  1.0
  C  C114  1  0.756970  0.810370  0.274230  1.0
  C  C115  1  0.658430  0.274230  0.810370  1.0
  C  C116  1  0.810370  0.756970  0.658430  1.0
  C  C117  1  0.189630  0.243030  0.725770  1.0
  C  C118  1  0.341570  0.725770  0.243030  1.0
  C  C119  1  0.243030  0.189630  0.341570  1.0
  C  C120  1  0.725770  0.341570  0.189630  1.0
  C  C121  1  0.189630  0.725770  0.341570  1.0
  C  C122  1  0.341570  0.243030  0.189630  1.0
  C  C123  1  0.243030  0.341570  0.725770  1.0
  C  C124  1  0.725770  0.189630  0.243030  1.0
  C  C125  1  0.189630  0.341570  0.243030  1.0
  C  C126  1  0.341570  0.189630  0.725770  1.0
  C  C127  1  0.243030  0.725770  0.189630  1.0
  C  C128  1  0.725770  0.243030  0.341570  1.0
  C  C129  1  0.395250  0.262310  0.687030  1.0
  C  C130  1  0.155410  0.687030  0.262310  1.0
  C  C131  1  0.687030  0.155410  0.395250  1.0
  C  C132  1  0.262310  0.395250  0.155410  1.0
  C  C133  1  0.262310  0.687030  0.395250  1.0
  C  C134  1  0.687030  0.262310  0.155410  1.0
  C  C135  1  0.155410  0.395250  0.687030  1.0
  C  C136  1  0.395250  0.155410  0.262310  1.0
  C  C137  1  0.687030  0.395250  0.262310  1.0
  C  C138  1  0.262310  0.155410  0.687030  1.0
  C  C139  1  0.395250  0.687030  0.155410  1.0
  C  C140  1  0.155410  0.262310  0.395250  1.0
  C  C141  1  0.844590  0.737690  0.312970  1.0
  C  C142  1  0.604750  0.312970  0.737690  1.0
  C  C143  1  0.737690  0.844590  0.604750  1.0
  C  C144  1  0.312970  0.604750  0.844590  1.0
  C  C145  1  0.844590  0.312970  0.604750  1.0
  C  C146  1  0.604750  0.737690  0.844590  1.0
  C  C147  1  0.737690  0.604750  0.312970  1.0
  C  C148  1  0.312970  0.844590  0.737690  1.0
  C  C149  1  0.844590  0.604750  0.737690  1.0
  C  C150  1  0.604750  0.844590  0.312970  1.0
  C  C151  1  0.737690  0.312970  0.844590  1.0
  C  C152  1  0.312970  0.737690  0.604750  1.0
  C  C153  1  0.604750  0.737690  0.312970  1.0
  C  C154  1  0.844590  0.312970  0.737690  1.0
  C  C155  1  0.312970  0.844590  0.604750  1.0
  C  C156  1  0.737690  0.604750  0.844590  1.0
  C  C157  1  0.737690  0.312970  0.604750  1.0
  C  C158  1  0.312970  0.737690  0.844590  1.0
  C  C159  1  0.844590  0.604750  0.312970  1.0
  C  C160  1  0.604750  0.844590  0.737690  1.0
  C  C161  1  0.312970  0.604750  0.737690  1.0
  C  C162  1  0.737690  0.844590  0.312970  1.0
  C  C163  1  0.604750  0.312970  0.844590  1.0
  C  C164  1  0.844590  0.737690  0.604750  1.0
  C  C165  1  0.155410  0.262310  0.687030  1.0
  C  C166  1  0.395250  0.687030  0.262310  1.0
  C  C167  1  0.262310  0.155410  0.395250  1.0
  C  C168  1  0.687030  0.395250  0.155410  1.0
  C  C169  1  0.155410  0.687030  0.395250  1.0
  C  C170  1  0.395250  0.262310  0.155410  1.0
  C  C171  1  0.262310  0.395250  0.687030  1.0
  C  C172  1  0.687030  0.155410  0.262310  1.0
  C  C173  1  0.155410  0.395250  0.262310  1.0
  C  C174  1  0.395250  0.155410  0.687030  1.0
  C  C175  1  0.262310  0.687030  0.155410  1.0
  C  C176  1  0.687030  0.262310  0.395250  1.0
  Cu  Cu177  1  0.553260  0.196740  0.553260  1.0
  Cu  Cu178  1  0.196740  0.553260  0.196740  1.0
  Cu  Cu179  1  0.196740  0.553260  0.553260  1.0
  Cu  Cu180  1  0.553260  0.196740  0.196740  1.0
  Cu  Cu181  1  0.553260  0.553260  0.196740  1.0
  Cu  Cu182  1  0.196740  0.196740  0.553260  1.0
  Cu  Cu183  1  0.803260  0.803260  0.446740  1.0
  Cu  Cu184  1  0.446740  0.446740  0.803260  1.0
  Cu  Cu185  1  0.803260  0.446740  0.446740  1.0
  Cu  Cu186  1  0.446740  0.803260  0.803260  1.0
  Cu  Cu187  1  0.803260  0.446740  0.803260  1.0
  Cu  Cu188  1  0.446740  0.803260  0.446740  1.0
  H  H189  1  0.260700  0.260700  0.801500  1.0
  H  H190  1  0.177100  0.801500  0.260700  1.0
  H  H191  1  0.801500  0.177100  0.260700  1.0
  H  H192  1  0.260700  0.260700  0.177100  1.0
  H  H193  1  0.260700  0.801500  0.260700  1.0
  H  H194  1  0.801500  0.260700  0.177100  1.0
  H  H195  1  0.177100  0.260700  0.801500  1.0
  H  H196  1  0.260700  0.177100  0.260700  1.0
  H  H197  1  0.801500  0.260700  0.260700  1.0
  H  H198  1  0.260700  0.177100  0.801500  1.0
  H  H199  1  0.260700  0.801500  0.177100  1.0
  H  H200  1  0.177100  0.260700  0.260700  1.0
  H  H201  1  0.822900  0.739300  0.198500  1.0
  H  H202  1  0.739300  0.198500  0.739300  1.0
  H  H203  1  0.739300  0.822900  0.739300  1.0
  H  H204  1  0.198500  0.739300  0.822900  1.0
  H  H205  1  0.822900  0.198500  0.739300  1.0
  H  H206  1  0.739300  0.739300  0.822900  1.0
  H  H207  1  0.739300  0.739300  0.198500  1.0
  H  H208  1  0.198500  0.822900  0.739300  1.0
  H  H209  1  0.822900  0.739300  0.739300  1.0
  H  H210  1  0.739300  0.822900  0.198500  1.0
  H  H211  1  0.739300  0.198500  0.822900  1.0
  H  H212  1  0.198500  0.739300  0.739300  1.0
  H  H213  1  0.302600  0.302600  0.776600  1.0
  H  H214  1  0.118200  0.776600  0.302600  1.0
  H  H215  1  0.776600  0.118200  0.302600  1.0
  H  H216  1  0.302600  0.302600  0.118200  1.0
  H  H217  1  0.302600  0.776600  0.302600  1.0
  H  H218  1  0.776600  0.302600  0.118200  1.0
  H  H219  1  0.118200  0.302600  0.776600  1.0
  H  H220  1  0.302600  0.118200  0.302600  1.0
  H  H221  1  0.776600  0.302600  0.302600  1.0
  H  H222  1  0.302600  0.118200  0.776600  1.0
  H  H223  1  0.302600  0.776600  0.118200  1.0
  H  H224  1  0.118200  0.302600  0.302600  1.0
  H  H225  1  0.881800  0.697400  0.223400  1.0
  H  H226  1  0.697400  0.223400  0.697400  1.0
  H  H227  1  0.697400  0.881800  0.697400  1.0
  H  H228  1  0.223400  0.697400  0.881800  1.0
  H  H229  1  0.881800  0.223400  0.697400  1.0
  H  H230  1  0.697400  0.697400  0.881800  1.0
  H  H231  1  0.697400  0.697400  0.223400  1.0
  H  H232  1  0.223400  0.881800  0.697400  1.0
  H  H233  1  0.881800  0.697400  0.697400  1.0
  H  H234  1  0.697400  0.881800  0.223400  1.0
  H  H235  1  0.697400  0.223400  0.881800  1.0
  H  H236  1  0.223400  0.697400  0.697400  1.0
  H  H237  1  0.395600  0.298200  0.688200  1.0
  H  H238  1  0.118000  0.688200  0.298200  1.0
  H  H239  1  0.688200  0.118000  0.395600  1.0
  H  H240  1  0.298200  0.395600  0.118000  1.0
  H  H241  1  0.298200  0.688200  0.395600  1.0
  H  H242  1  0.688200  0.298200  0.118000  1.0
  H  H243  1  0.118000  0.395600  0.688200  1.0
  H  H244  1  0.395600  0.118000  0.298200  1.0
  H  H245  1  0.688200  0.395600  0.298200  1.0
  H  H246  1  0.298200  0.118000  0.688200  1.0
  H  H247  1  0.395600  0.688200  0.118000  1.0
  H  H248  1  0.118000  0.298200  0.395600  1.0
  H  H249  1  0.882000  0.701800  0.311800  1.0
  H  H250  1  0.604400  0.311800  0.701800  1.0
  H  H251  1  0.701800  0.882000  0.604400  1.0
  H  H252  1  0.311800  0.604400  0.882000  1.0
  H  H253  1  0.882000  0.311800  0.604400  1.0
  H  H254  1  0.604400  0.701800  0.882000  1.0
  H  H255  1  0.701800  0.604400  0.311800  1.0
  H  H256  1  0.311800  0.882000  0.701800  1.0
  H  H257  1  0.882000  0.604400  0.701800  1.0
  H  H258  1  0.604400  0.882000  0.311800  1.0
  H  H259  1  0.701800  0.311800  0.882000  1.0
  H  H260  1  0.311800  0.701800  0.604400  1.0
  H  H261  1  0.604400  0.701800  0.311800  1.0
  H  H262  1  0.882000  0.311800  0.701800  1.0
  H  H263  1  0.311800  0.882000  0.604400  1.0
  H  H264  1  0.701800  0.604400  0.882000  1.0
  H  H265  1  0.701800  0.311800  0.604400  1.0
  H  H266  1  0.311800  0.701800  0.882000  1.0
  H  H267  1  0.882000  0.604400  0.311800  1.0
  H  H268  1  0.604400  0.882000  0.701800  1.0
  H  H269  1  0.311800  0.604400  0.701800  1.0
  H  H270  1  0.701800  0.882000  0.311800  1.0
  H  H271  1  0.604400  0.311800  0.882000  1.0
  H  H272  1  0.882000  0.701800  0.604400  1.0
  H  H273  1  0.118000  0.298200  0.688200  1.0
  H  H274  1  0.395600  0.688200  0.298200  1.0
  H  H275  1  0.298200  0.118000  0.395600  1.0
  H  H276  1  0.688200  0.395600  0.118000  1.0
  H  H277  1  0.118000  0.688200  0.395600  1.0
  H  H278  1  0.395600  0.298200  0.118000  1.0
  H  H279  1  0.298200  0.395600  0.688200  1.0
  H  H280  1  0.688200  0.118000  0.298200  1.0
  H  H281  1  0.118000  0.395600  0.298200  1.0
  H  H282  1  0.395600  0.118000  0.688200  1.0
  H  H283  1  0.298200  0.688200  0.118000  1.0
  H  H284  1  0.688200  0.298200  0.395600  1.0
  I  I285  1  0.514100  0.995300  0.995300  1.0
  I  I286  1  0.995300  0.995300  0.995300  1.0
  I  I287  1  0.995300  0.995300  0.514100  1.0
  I  I288  1  0.995300  0.514100  0.995300  1.0
  I  I289  1  0.004700  0.004700  0.004700  1.0
  I  I290  1  0.485900  0.004700  0.004700  1.0
  I  I291  1  0.004700  0.004700  0.485900  1.0
  I  I292  1  0.004700  0.485900  0.004700  1.0
  Na  Na293  1  0.441500  0.356500  0.543900  1.0
  Na  Na294  1  0.158100  0.543900  0.356500  1.0
  Na  Na295  1  0.543900  0.158100  0.441500  1.0
  Na  Na296  1  0.356500  0.441500  0.158100  1.0
  Na  Na297  1  0.356500  0.543900  0.441500  1.0
  Na  Na298  1  0.543900  0.356500  0.158100  1.0
  Na  Na299  1  0.158100  0.441500  0.543900  1.0
  Na  Na300  1  0.441500  0.158100  0.356500  1.0
  Na  Na301  1  0.543900  0.441500  0.356500  1.0
  Na  Na302  1  0.356500  0.158100  0.543900  1.0
  Na  Na303  1  0.441500  0.543900  0.158100  1.0
  Na  Na304  1  0.158100  0.356500  0.441500  1.0
  Na  Na305  1  0.841900  0.643500  0.456100  1.0
  Na  Na306  1  0.558500  0.456100  0.643500  1.0
  Na  Na307  1  0.643500  0.841900  0.558500  1.0
  Na  Na308  1  0.456100  0.558500  0.841900  1.0
  Na  Na309  1  0.841900  0.456100  0.558500  1.0
  Na  Na310  1  0.558500  0.643500  0.841900  1.0
  Na  Na311  1  0.643500  0.558500  0.456100  1.0
  Na  Na312  1  0.456100  0.841900  0.643500  1.0
  Na  Na313  1  0.841900  0.558500  0.643500  1.0
  Na  Na314  1  0.558500  0.841900  0.456100  1.0
  Na  Na315  1  0.643500  0.456100  0.841900  1.0
  Na  Na316  1  0.456100  0.643500  0.558500  1.0
  Na  Na317  1  0.558500  0.643500  0.456100  1.0
  Na  Na318  1  0.841900  0.456100  0.643500  1.0
  Na  Na319  1  0.456100  0.841900  0.558500  1.0
  Na  Na320  1  0.643500  0.558500  0.841900  1.0
  Na  Na321  1  0.643500  0.456100  0.558500  1.0
  Na  Na322  1  0.456100  0.643500  0.841900  1.0
  Na  Na323  1  0.841900  0.558500  0.456100  1.0
  Na  Na324  1  0.558500  0.841900  0.643500  1.0
  Na  Na325  1  0.456100  0.558500  0.643500  1.0
  Na  Na326  1  0.643500  0.841900  0.456100  1.0
  Na  Na327  1  0.558500  0.456100  0.841900  1.0
  Na  Na328  1  0.841900  0.643500  0.558500  1.0
  Na  Na329  1  0.158100  0.356500  0.543900  1.0
  Na  Na330  1  0.441500  0.543900  0.356500  1.0
  Na  Na331  1  0.356500  0.158100  0.441500  1.0
  Na  Na332  1  0.543900  0.441500  0.158100  1.0
  Na  Na333  1  0.158100  0.543900  0.441500  1.0
  Na  Na334  1  0.441500  0.356500  0.158100  1.0
  Na  Na335  1  0.356500  0.441500  0.543900  1.0
  Na  Na336  1  0.543900  0.158100  0.356500  1.0
  Na  Na337  1  0.158100  0.441500  0.356500  1.0
  Na  Na338  1  0.441500  0.158100  0.543900  1.0
  Na  Na339  1  0.356500  0.543900  0.158100  1.0
  Na  Na340  1  0.543900  0.356500  0.441500  1.0
  O  O341  1  0.457500  0.457500  0.585100  1
  O  O342  1  0.999900  0.585100  0.457500  1
  O  O343  1  0.585100  0.999900  0.457500  1
  O  O344  1  0.457500  0.457500  0.999900  1
  O  O345  1  0.457500  0.585100  0.457500  1
  O  O346  1  0.585100  0.457500  0.999900  1
  O  O347  1  0.999900  0.457500  0.585100  1
  O  O348  1  0.457500  0.999900  0.457500  1
  O  O349  1  0.585100  0.457500  0.457500  1
  O  O350  1  0.457500  0.999900  0.585100  1
  O  O351  1  0.457500  0.585100  0.999900  1
  O  O352  1  0.999900  0.457500  0.457500  1
  O  O353  1  0.000100  0.542500  0.414900  1
  O  O354  1  0.542500  0.414900  0.542500  1
  O  O355  1  0.542500  0.000100  0.542500  1
  O  O356  1  0.414900  0.542500  0.000100  1
  O  O357  1  0.000100  0.414900  0.542500  1
  O  O358  1  0.542500  0.542500  0.000100  1
  O  O359  1  0.542500  0.542500  0.414900  1
  O  O360  1  0.414900  0.000100  0.542500  1
  O  O361  1  0.000100  0.542500  0.542500  1
  O  O362  1  0.542500  0.000100  0.414900  1
  O  O363  1  0.542500  0.414900  0.000100  1
  O  O364  1  0.414900  0.542500  0.542500  1
  O  O365  1  0.435600  0.350800  0.735400  1
  O  O366  1  0.978200  0.735400  0.350800  1
  O  O367  1  0.735400  0.978200  0.435600  1
  O  O368  1  0.350800  0.435600  0.978200  1
  O  O369  1  0.350800  0.735400  0.435600  1
  O  O370  1  0.735400  0.350800  0.978200  1
  O  O371  1  0.978200  0.435600  0.735400  1
  O  O372  1  0.435600  0.978200  0.350800  1
  O  O373  1  0.735400  0.435600  0.350800  1
  O  O374  1  0.350800  0.978200  0.735400  1
  O  O375  1  0.435600  0.735400  0.978200  1
  O  O376  1  0.978200  0.350800  0.435600  1
  O  O377  1  0.021800  0.649200  0.264600  1
  O  O378  1  0.564400  0.264600  0.649200  1
  O  O379  1  0.649200  0.021800  0.564400  1
  O  O380  1  0.264600  0.564400  0.021800  1
  O  O381  1  0.021800  0.264600  0.564400  1
  O  O382  1  0.564400  0.649200  0.021800  1
  O  O383  1  0.649200  0.564400  0.264600  1
  O  O384  1  0.264600  0.021800  0.649200  1
  O  O385  1  0.021800  0.564400  0.649200  1
  O  O386  1  0.564400  0.021800  0.264600  1
  O  O387  1  0.649200  0.264600  0.021800  1
  O  O388  1  0.264600  0.649200  0.564400  1
  O  O389  1  0.564400  0.649200  0.264600  1
  O  O390  1  0.021800  0.264600  0.649200  1
  O  O391  1  0.264600  0.021800  0.564400  1
  O  O392  1  0.649200  0.564400  0.021800  1
  O  O393  1  0.649200  0.264600  0.564400  1
  O  O394  1  0.264600  0.649200  0.021800  1
  O  O395  1  0.021800  0.564400  0.264600  1
  O  O396  1  0.564400  0.021800  0.649200  1
  O  O397  1  0.264600  0.564400  0.649200  1
  O  O398  1  0.649200  0.021800  0.264600  1
  O  O399  1  0.564400  0.264600  0.021800  1
  O  O400  1  0.021800  0.649200  0.564400  1
  O  O401  1  0.978200  0.350800  0.735400  1
  O  O402  1  0.435600  0.735400  0.350800  1
  O  O403  1  0.350800  0.978200  0.435600  1
  O  O404  1  0.735400  0.435600  0.978200  1
  O  O405  1  0.978200  0.735400  0.435600  1
  O  O406  1  0.435600  0.350800  0.978200  1
  O  O407  1  0.350800  0.435600  0.735400  1
  O  O408  1  0.735400  0.978200  0.350800  1
  O  O409  1  0.978200  0.435600  0.350800  1
  O  O410  1  0.435600  0.978200  0.735400  1
  O  O411  1  0.350800  0.735400  0.978200  1
  O  O412  1  0.735400  0.350800  0.435600  1
  O  O413  1  0.472200  0.375000  0.681600  1
  O  O414  1  0.971200  0.681600  0.375000  1
  O  O415  1  0.681600  0.971200  0.472200  1
  O  O416  1  0.375000  0.472200  0.971200  1
  O  O417  1  0.375000  0.681600  0.472200  1
  O  O418  1  0.681600  0.375000  0.971200  1
  O  O419  1  0.971200  0.472200  0.681600  1
  O  O420  1  0.472200  0.971200  0.375000  1
  O  O421  1  0.681600  0.472200  0.375000  1
  O  O422  1  0.375000  0.971200  0.681600  1
  O  O423  1  0.472200  0.681600  0.971200  1
  O  O424  1  0.971200  0.375000  0.472200  1
  O  O425  1  0.028800  0.625000  0.318400  1
  O  O426  1  0.527800  0.318400  0.625000  1
  O  O427  1  0.625000  0.028800  0.527800  1
  O  O428  1  0.318400  0.527800  0.028800  1
  O  O429  1  0.028800  0.318400  0.527800  1
  O  O430  1  0.527800  0.625000  0.028800  1
  O  O431  1  0.625000  0.527800  0.318400  1
  O  O432  1  0.318400  0.028800  0.625000  1
  O  O433  1  0.028800  0.527800  0.625000  1
  O  O434  1  0.527800  0.028800  0.318400  1
  O  O435  1  0.625000  0.318400  0.028800  1
  O  O436  1  0.318400  0.625000  0.527800  1
  O  O437  1  0.527800  0.625000  0.318400  1
  O  O438  1  0.028800  0.318400  0.625000  1
  O  O439  1  0.318400  0.028800  0.527800  1
  O  O440  1  0.625000  0.527800  0.028800  1
  O  O441  1  0.625000  0.318400  0.527800  1
  O  O442  1  0.318400  0.625000  0.028800  1
  O  O443  1  0.028800  0.527800  0.318400  1
  O  O444  1  0.527800  0.028800  0.625000  1
  O  O445  1  0.318400  0.527800  0.625000  1
  O  O446  1  0.625000  0.028800  0.318400  1
  O  O447  1  0.527800  0.318400  0.028800  1
  O  O448  1  0.028800  0.625000  0.527800  1
  O  O449  1  0.971200  0.375000  0.681600  1
  O  O450  1  0.472200  0.681600  0.375000  1
  O  O451  1  0.375000  0.971200  0.472200  1
  O  O452  1  0.681600  0.472200  0.971200  1
  O  O453  1  0.971200  0.681600  0.472200  1
  O  O454  1  0.472200  0.375000  0.971200  1
  O  O455  1  0.375000  0.472200  0.681600  1
  O  O456  1  0.681600  0.971200  0.375000  1
  O  O457  1  0.971200  0.472200  0.375000  1
  O  O458  1  0.472200  0.971200  0.681600  1
  O  O459  1  0.375000  0.681600  0.971200  1
  O  O460  1  0.681600  0.375000  0.472200  1
  O  O461  1  0.467600  0.375400  0.546600  1.0
  O  O462  1  0.110400  0.546600  0.375400  1.0
  O  O463  1  0.546600  0.110400  0.467600  1.0
  O  O464  1  0.375400  0.467600  0.110400  1.0
  O  O465  1  0.375400  0.546600  0.467600  1.0
  O  O466  1  0.546600  0.375400  0.110400  1.0
  O  O467  1  0.110400  0.467600  0.546600  1.0
  O  O468  1  0.467600  0.110400  0.375400  1.0
  O  O469  1  0.546600  0.467600  0.375400  1.0
  O  O470  1  0.375400  0.110400  0.546600  1.0
  O  O471  1  0.467600  0.546600  0.110400  1.0
  O  O472  1  0.110400  0.375400  0.467600  1.0
  O  O473  1  0.889600  0.624600  0.453400  1.0
  O  O474  1  0.532400  0.453400  0.624600  1.0
  O  O475  1  0.624600  0.889600  0.532400  1.0
  O  O476  1  0.453400  0.532400  0.889600  1.0
  O  O477  1  0.889600  0.453400  0.532400  1.0
  O  O478  1  0.532400  0.624600  0.889600  1.0
  O  O479  1  0.624600  0.532400  0.453400  1.0
  O  O480  1  0.453400  0.889600  0.624600  1.0
  O  O481  1  0.889600  0.532400  0.624600  1.0
  O  O482  1  0.532400  0.889600  0.453400  1.0
  O  O483  1  0.624600  0.453400  0.889600  1.0
  O  O484  1  0.453400  0.624600  0.532400  1.0
  O  O485  1  0.532400  0.624600  0.453400  1.0
  O  O486  1  0.889600  0.453400  0.624600  1.0
  O  O487  1  0.453400  0.889600  0.532400  1.0
  O  O488  1  0.624600  0.532400  0.889600  1.0
  O  O489  1  0.624600  0.453400  0.532400  1.0
  O  O490  1  0.453400  0.624600  0.889600  1.0
  O  O491  1  0.889600  0.532400  0.453400  1.0
  O  O492  1  0.532400  0.889600  0.624600  1.0
  O  O493  1  0.453400  0.532400  0.624600  1.0
  O  O494  1  0.624600  0.889600  0.453400  1.0
  O  O495  1  0.532400  0.453400  0.889600  1.0
  O  O496  1  0.889600  0.624600  0.532400  1.0
  O  O497  1  0.110400  0.375400  0.546600  1.0
  O  O498  1  0.467600  0.546600  0.375400  1.0
  O  O499  1  0.375400  0.110400  0.467600  1.0
  O  O500  1  0.546600  0.467600  0.110400  1.0
  O  O501  1  0.110400  0.546600  0.467600  1.0
  O  O502  1  0.467600  0.375400  0.110400  1.0
  O  O503  1  0.375400  0.467600  0.546600  1.0
  O  O504  1  0.546600  0.110400  0.375400  1.0
  O  O505  1  0.110400  0.467600  0.375400  1.0
  O  O506  1  0.467600  0.110400  0.546600  1.0
  O  O507  1  0.375400  0.546600  0.110400  1.0
  O  O508  1  0.546600  0.375400  0.467600  1.0
  O  O509  1  0.498820  0.248580  0.606240  1.0
  O  O510  1  0.146360  0.606240  0.248580  1.0
  O  O511  1  0.606240  0.146360  0.498820  1.0
  O  O512  1  0.248580  0.498820  0.146360  1.0
  O  O513  1  0.248580  0.606240  0.498820  1.0
  O  O514  1  0.606240  0.248580  0.146360  1.0
  O  O515  1  0.146360  0.498820  0.606240  1.0
  O  O516  1  0.498820  0.146360  0.248580  1.0
  O  O517  1  0.606240  0.498820  0.248580  1.0
  O  O518  1  0.248580  0.146360  0.606240  1.0
  O  O519  1  0.498820  0.606240  0.146360  1.0
  O  O520  1  0.146360  0.248580  0.498820  1.0
  O  O521  1  0.853640  0.751420  0.393760  1.0
  O  O522  1  0.501180  0.393760  0.751420  1.0
  O  O523  1  0.751420  0.853640  0.501180  1.0
  O  O524  1  0.393760  0.501180  0.853640  1.0
  O  O525  1  0.853640  0.393760  0.501180  1.0
  O  O526  1  0.501180  0.751420  0.853640  1.0
  O  O527  1  0.751420  0.501180  0.393760  1.0
  O  O528  1  0.393760  0.853640  0.751420  1.0
  O  O529  1  0.853640  0.501180  0.751420  1.0
  O  O530  1  0.501180  0.853640  0.393760  1.0
  O  O531  1  0.751420  0.393760  0.853640  1.0
  O  O532  1  0.393760  0.751420  0.501180  1.0
  O  O533  1  0.501180  0.751420  0.393760  1.0
  O  O534  1  0.853640  0.393760  0.751420  1.0
  O  O535  1  0.393760  0.853640  0.501180  1.0
  O  O536  1  0.751420  0.501180  0.853640  1.0
  O  O537  1  0.751420  0.393760  0.501180  1.0
  O  O538  1  0.393760  0.751420  0.853640  1.0
  O  O539  1  0.853640  0.501180  0.393760  1.0
  O  O540  1  0.501180  0.853640  0.751420  1.0
  O  O541  1  0.393760  0.501180  0.751420  1.0
  O  O542  1  0.751420  0.853640  0.393760  1.0
  O  O543  1  0.501180  0.393760  0.853640  1.0
  O  O544  1  0.853640  0.751420  0.501180  1.0
  O  O545  1  0.146360  0.248580  0.606240  1.0
  O  O546  1  0.498820  0.606240  0.248580  1.0
  O  O547  1  0.248580  0.146360  0.498820  1.0
  O  O548  1  0.606240  0.498820  0.146360  1.0
  O  O549  1  0.146360  0.606240  0.498820  1.0
  O  O550  1  0.498820  0.248580  0.146360  1.0
  O  O551  1  0.248580  0.498820  0.606240  1.0
  O  O552  1  0.606240  0.146360  0.248580  1.0
  O  O553  1  0.146360  0.498820  0.248580  1.0
  O  O554  1  0.498820  0.146360  0.606240  1.0
  O  O555  1  0.248580  0.606240  0.146360  1.0
  O  O556  1  0.606240  0.248580  0.498820  1.0
