# generated using pymatgen
data_FeCoBPH42C39N13OF6
_symmetry_space_group_name_H-M   'P 1'
_cell_length_a   12.02000000
_cell_length_b   14.25500000
_cell_length_c   25.40100000
_cell_angle_alpha   105.65700000
_cell_angle_beta   90.00000000
_cell_angle_gamma   90.00000000
_symmetry_Int_Tables_number   1
_chemical_formula_structural   FeCoBPH42C39N13OF6
_chemical_formula_sum   'Fe4 Co4 B4 P4 H168 C156 N52 O4 F24'
_cell_volume   4190.84150408
_cell_formula_units_Z   4
loop_
 _symmetry_equiv_pos_site_id
 _symmetry_equiv_pos_as_xyz
  1  'x, y, z'
loop_
 _atom_site_type_symbol
 _atom_site_label
 _atom_site_symmetry_multiplicity
 _atom_site_fract_x
 _atom_site_fract_y
 _atom_site_fract_z
 _atom_site_occupancy
  Fe  Fe1  1  0.625760  0.798410  0.898570  1.0
  Fe  Fe2  1  0.125760  0.701590  0.601430  1.0
  Fe  Fe3  1  0.374240  0.201590  0.101430  1.0
  Fe  Fe4  1  0.874240  0.298410  0.398570  1.0
  Co  Co5  1  0.689250  0.169880  0.960220  1.0
  Co  Co6  1  0.189250  0.330120  0.539780  1.0
  Co  Co7  1  0.310750  0.830120  0.039780  1.0
  Co  Co8  1  0.810750  0.669880  0.460220  1.0
  B  B9  1  0.799400  0.634300  0.874220  1.0
  B  B10  1  0.299400  0.865700  0.625780  1.0
  B  B11  1  0.200600  0.365700  0.125780  1.0
  B  B12  1  0.700600  0.134300  0.374220  1.0
  P  P13  1  0.144900  0.393550  0.816000  1
  P  P14  1  0.644900  0.106450  0.684000  1
  P  P15  1  0.855100  0.606450  0.184000  1
  P  P16  1  0.355100  0.893550  0.316000  1
  H  H17  1  0.302000  0.941800  0.836400  1
  H  H18  1  0.802000  0.558200  0.663600  1
  H  H19  1  0.698000  0.058200  0.163600  1
  H  H20  1  0.198000  0.441800  0.336400  1
  H  H21  1  0.200100  0.830300  0.784000  1
  H  H22  1  0.700100  0.669700  0.716000  1
  H  H23  1  0.799900  0.169700  0.216000  1
  H  H24  1  0.299900  0.330300  0.284000  1
  H  H25  1  0.245700  0.903700  0.751200  1
  H  H26  1  0.745700  0.596300  0.748800  1
  H  H27  1  0.754300  0.096300  0.248800  1
  H  H28  1  0.254300  0.403700  0.251200  1
  H  H29  1  0.121900  0.915700  0.775300  1
  H  H30  1  0.621900  0.584300  0.724700  1
  H  H31  1  0.878100  0.084300  0.224700  1
  H  H32  1  0.378100  0.415700  0.275300  1
  H  H33  1  0.943300  0.823000  0.769700  1.0
  H  H34  1  0.443300  0.677000  0.730300  1.0
  H  H35  1  0.056700  0.177000  0.230300  1.0
  H  H36  1  0.556700  0.323000  0.269700  1.0
  H  H37  1  0.488000  0.457500  0.802800  1.0
  H  H38  1  0.988000  0.042500  0.697200  1.0
  H  H39  1  0.512000  0.542500  0.197200  1.0
  H  H40  1  0.012000  0.957500  0.302800  1.0
  H  H41  1  0.834000  0.737000  0.061700  1.0
  H  H42  1  0.334000  0.763000  0.438300  1.0
  H  H43  1  0.166000  0.263000  0.938300  1.0
  H  H44  1  0.666000  0.237000  0.561700  1.0
  H  H45  1  0.759200  0.199400  0.843900  1.0
  H  H46  1  0.259200  0.300600  0.656100  1.0
  H  H47  1  0.240800  0.800600  0.156100  1.0
  H  H48  1  0.740800  0.699400  0.343900  1.0
  H  H49  1  0.910200  0.168600  0.785500  1.0
  H  H50  1  0.410200  0.331400  0.714500  1.0
  H  H51  1  0.089800  0.831400  0.214500  1.0
  H  H52  1  0.589800  0.668600  0.285500  1.0
  H  H53  1  0.073700  0.105700  0.813900  1.0
  H  H54  1  0.573700  0.394300  0.686100  1.0
  H  H55  1  0.926300  0.894300  0.186100  1.0
  H  H56  1  0.426300  0.605700  0.313900  1.0
  H  H57  1  0.081000  0.083200  0.901800  1.0
  H  H58  1  0.581000  0.416800  0.598200  1.0
  H  H59  1  0.919000  0.916800  0.098200  1.0
  H  H60  1  0.419000  0.583200  0.401800  1.0
  H  H61  1  0.088100  0.097400  0.989100  1.0
  H  H62  1  0.588100  0.402600  0.510900  1.0
  H  H63  1  0.911900  0.902600  0.010900  1.0
  H  H64  1  0.411900  0.597400  0.489100  1.0
  H  H65  1  0.080300  0.106800  0.082700  1.0
  H  H66  1  0.580300  0.393200  0.417300  1.0
  H  H67  1  0.919700  0.893200  0.917300  1.0
  H  H68  1  0.419700  0.606800  0.582700  1.0
  H  H69  1  0.909300  0.139300  0.128100  1.0
  H  H70  1  0.409300  0.360700  0.371900  1.0
  H  H71  1  0.090700  0.860700  0.871900  1.0
  H  H72  1  0.590700  0.639300  0.628100  1.0
  H  H73  1  0.753800  0.168800  0.080500  1.0
  H  H74  1  0.253800  0.331200  0.419500  1.0
  H  H75  1  0.246200  0.831200  0.919500  1.0
  H  H76  1  0.746200  0.668800  0.580500  1.0
  H  H77  1  0.780800  0.367300  0.038700  1.0
  H  H78  1  0.280800  0.132700  0.461300  1.0
  H  H79  1  0.219200  0.632700  0.961300  1.0
  H  H80  1  0.719200  0.867300  0.538700  1.0
  H  H81  1  0.758500  0.533400  0.053700  1.0
  H  H82  1  0.258500  0.966600  0.446300  1.0
  H  H83  1  0.241500  0.466600  0.946300  1.0
  H  H84  1  0.741500  0.033400  0.553700  1.0
  H  H85  1  0.639400  0.590500  0.995100  1.0
  H  H86  1  0.139400  0.909500  0.504900  1.0
  H  H87  1  0.360600  0.409500  0.004900  1.0
  H  H88  1  0.860600  0.090500  0.495100  1.0
  H  H89  1  0.545000  0.477600  0.925900  1.0
  H  H90  1  0.045000  0.022400  0.574100  1.0
  H  H91  1  0.455000  0.522400  0.074100  1.0
  H  H92  1  0.955000  0.977600  0.425900  1.0
  H  H93  1  0.441900  0.365500  0.872500  1.0
  H  H94  1  0.941900  0.134500  0.627500  1.0
  H  H95  1  0.558100  0.634500  0.127500  1.0
  H  H96  1  0.058100  0.865500  0.372500  1.0
  H  H97  1  0.358600  0.236100  0.806700  1.0
  H  H98  1  0.858600  0.263900  0.693300  1.0
  H  H99  1  0.641400  0.763900  0.193300  1.0
  H  H100  1  0.141400  0.736100  0.306700  1.0
  H  H101  1  0.417200  0.077000  0.799500  1.0
  H  H102  1  0.917200  0.423000  0.700500  1.0
  H  H103  1  0.582800  0.923000  0.200500  1.0
  H  H104  1  0.082800  0.577000  0.299500  1.0
  H  H105  1  0.546900  0.050400  0.861400  1.0
  H  H106  1  0.046900  0.449600  0.638600  1.0
  H  H107  1  0.453100  0.949600  0.138600  1.0
  H  H108  1  0.953100  0.550400  0.361400  1.0
  H  H109  1  0.662200  0.916200  0.800200  1.0
  H  H110  1  0.162200  0.583800  0.699800  1.0
  H  H111  1  0.337800  0.083800  0.199800  1.0
  H  H112  1  0.837800  0.416200  0.300200  1.0
  H  H113  1  0.775000  0.942800  0.774000  1.0
  H  H114  1  0.275000  0.557200  0.726000  1.0
  H  H115  1  0.225000  0.057200  0.226000  1.0
  H  H116  1  0.725000  0.442800  0.274000  1.0
  H  H117  1  0.753500  0.983400  0.838300  1.0
  H  H118  1  0.253500  0.516600  0.661700  1.0
  H  H119  1  0.246500  0.016600  0.161700  1.0
  H  H120  1  0.746500  0.483400  0.338300  1.0
  H  H121  1  0.037800  0.642500  0.837000  1.0
  H  H122  1  0.537800  0.857500  0.663000  1.0
  H  H123  1  0.962200  0.357500  0.163000  1.0
  H  H124  1  0.462200  0.142500  0.337000  1.0
  H  H125  1  0.067500  0.672200  0.782200  1.0
  H  H126  1  0.567500  0.827800  0.717800  1.0
  H  H127  1  0.932500  0.327800  0.217800  1.0
  H  H128  1  0.432500  0.172200  0.282200  1.0
  H  H129  1  0.982500  0.584800  0.780100  1.0
  H  H130  1  0.482500  0.915200  0.719900  1.0
  H  H131  1  0.017500  0.415200  0.219900  1.0
  H  H132  1  0.517500  0.084800  0.280100  1.0
  H  H133  1  0.368200  0.674800  0.886700  1.0
  H  H134  1  0.868200  0.825200  0.613300  1.0
  H  H135  1  0.631800  0.325200  0.113300  1.0
  H  H136  1  0.131800  0.174800  0.386700  1.0
  H  H137  1  0.334800  0.591400  0.833000  1.0
  H  H138  1  0.834800  0.908600  0.667000  1.0
  H  H139  1  0.665200  0.408600  0.167000  1.0
  H  H140  1  0.165200  0.091400  0.333000  1.0
  H  H141  1  0.381900  0.693400  0.827600  1.0
  H  H142  1  0.881900  0.806600  0.672400  1.0
  H  H143  1  0.618100  0.306600  0.172400  1.0
  H  H144  1  0.118100  0.193400  0.327600  1.0
  H  H145  1  0.782700  0.434300  0.787700  1.0
  H  H146  1  0.282700  0.065700  0.712300  1.0
  H  H147  1  0.217300  0.565700  0.212300  1.0
  H  H148  1  0.717300  0.934300  0.287700  1.0
  H  H149  1  0.684400  0.362100  0.793500  1.0
  H  H150  1  0.184400  0.137900  0.706500  1.0
  H  H151  1  0.315600  0.637900  0.206500  1.0
  H  H152  1  0.815600  0.862100  0.293500  1.0
  H  H153  1  0.761800  0.410400  0.844900  1.0
  H  H154  1  0.261800  0.089600  0.655100  1.0
  H  H155  1  0.238200  0.589600  0.155100  1.0
  H  H156  1  0.738200  0.910400  0.344900  1.0
  H  H157  1  0.703800  0.939200  0.032900  1.0
  H  H158  1  0.203800  0.560800  0.467100  1.0
  H  H159  1  0.296200  0.060800  0.967100  1.0
  H  H160  1  0.796200  0.439200  0.532900  1.0
  H  H161  1  0.700800  0.889300  0.082300  1.0
  H  H162  1  0.200800  0.610700  0.417700  1.0
  H  H163  1  0.299200  0.110700  0.917700  1.0
  H  H164  1  0.799200  0.389300  0.582300  1.0
  H  H165  1  0.598800  0.874900  0.040400  1.0
  H  H166  1  0.098800  0.625100  0.459600  1.0
  H  H167  1  0.401200  0.125100  0.959600  1.0
  H  H168  1  0.901200  0.374900  0.540400  1.0
  H  H169  1  0.904100  0.526800  0.952500  1.0
  H  H170  1  0.404100  0.973200  0.547500  1.0
  H  H171  1  0.095900  0.473200  0.047500  1.0
  H  H172  1  0.595900  0.026800  0.452500  1.0
  H  H173  1  0.963500  0.587900  0.007400  1.0
  H  H174  1  0.463500  0.912100  0.492600  1.0
  H  H175  1  0.036500  0.412100  0.992600  1.0
  H  H176  1  0.536500  0.087900  0.507400  1.0
  H  H177  1  0.997900  0.605100  0.949900  1.0
  H  H178  1  0.497900  0.894900  0.550100  1.0
  H  H179  1  0.002100  0.394900  0.050100  1.0
  H  H180  1  0.502100  0.105100  0.449900  1.0
  H  H181  1  0.855700  0.580700  0.866000  1.0
  H  H182  1  0.355700  0.919300  0.634000  1.0
  H  H183  1  0.144300  0.419300  0.134000  1.0
  H  H184  1  0.644300  0.080700  0.366000  1.0
  C  C185  1  0.198500  0.897700  0.781590  1
  C  C186  1  0.698500  0.602300  0.718410  1
  C  C187  1  0.801500  0.102300  0.218410  1
  C  C188  1  0.301500  0.397700  0.281590  1
  C  C189  1  0.497900  0.189600  0.052050  1.0
  C  C190  1  0.997900  0.310400  0.447950  1.0
  C  C191  1  0.502100  0.810400  0.947950  1.0
  C  C192  1  0.002100  0.689600  0.552050  1.0
  C  C193  1  0.657600  0.935300  0.926870  1.0
  C  C194  1  0.157600  0.564700  0.573130  1.0
  C  C195  1  0.342400  0.064700  0.073130  1.0
  C  C196  1  0.842400  0.435300  0.426870  1.0
  C  C197  1  0.520500  0.842200  0.853270  1.0
  C  C198  1  0.020500  0.657800  0.646730  1.0
  C  C199  1  0.479500  0.157800  0.146730  1.0
  C  C200  1  0.979500  0.342200  0.353270  1.0
  C  C201  1  0.796200  0.839800  0.815290  1.0
  C  C202  1  0.296200  0.660200  0.684710  1.0
  C  C203  1  0.203800  0.160200  0.184710  1.0
  C  C204  1  0.703800  0.339800  0.315290  1.0
  C  C205  1  0.896100  0.799500  0.793360  1.0
  C  C206  1  0.396100  0.700500  0.706640  1.0
  C  C207  1  0.103900  0.200500  0.206640  1.0
  C  C208  1  0.603900  0.299500  0.293360  1.0
  C  C209  1  0.914400  0.718700  0.812310  1.0
  C  C210  1  0.414400  0.781300  0.687690  1.0
  C  C211  1  0.085600  0.281300  0.187690  1.0
  C  C212  1  0.585600  0.218700  0.312310  1.0
  C  C213  1  0.502700  0.605300  0.844610  1.0
  C  C214  1  0.002700  0.894700  0.655390  1.0
  C  C215  1  0.497300  0.394700  0.155390  1.0
  C  C216  1  0.997300  0.105300  0.344610  1.0
  C  C217  1  0.535000  0.509800  0.820970  1.0
  C  C218  1  0.035000  0.990200  0.679030  1.0
  C  C219  1  0.465000  0.490200  0.179030  1.0
  C  C220  1  0.965000  0.009800  0.320970  1.0
  C  C221  1  0.648100  0.504900  0.828780  1.0
  C  C222  1  0.148100  0.995100  0.671220  1.0
  C  C223  1  0.351900  0.495100  0.171220  1.0
  C  C224  1  0.851900  0.004900  0.328780  1.0
  C  C225  1  0.734500  0.793000  0.008600  1.0
  C  C226  1  0.234500  0.707000  0.491400  1.0
  C  C227  1  0.265500  0.207000  0.991400  1.0
  C  C228  1  0.765500  0.293000  0.508600  1.0
  C  C229  1  0.811800  0.733000  0.025280  1.0
  C  C230  1  0.311800  0.767000  0.474720  1.0
  C  C231  1  0.188200  0.267000  0.974720  1.0
  C  C232  1  0.688200  0.233000  0.525280  1.0
  C  C233  1  0.849100  0.667100  0.978370  1.0
  C  C234  1  0.349100  0.832900  0.521630  1.0
  C  C235  1  0.150900  0.332900  0.021630  1.0
  C  C236  1  0.650900  0.167100  0.478370  1.0
  C  C237  1  0.826300  0.176800  0.856090  1.0
  C  C238  1  0.326300  0.323200  0.643910  1.0
  C  C239  1  0.173700  0.823200  0.143910  1.0
  C  C240  1  0.673700  0.676800  0.356090  1.0
  C  C241  1  0.915000  0.157500  0.820630  1.0
  C  C242  1  0.415000  0.342500  0.679370  1.0
  C  C243  1  0.085000  0.842500  0.179370  1.0
  C  C244  1  0.585000  0.657500  0.320630  1.0
  C  C245  1  0.011400  0.121600  0.837650  1.0
  C  C246  1  0.511400  0.378400  0.662350  1.0
  C  C247  1  0.988600  0.878400  0.162350  1.0
  C  C248  1  0.488600  0.621600  0.337650  1.0
  C  C249  1  0.016000  0.109100  0.889710  1.0
  C  C250  1  0.516000  0.390900  0.610290  1.0
  C  C251  1  0.984000  0.890900  0.110290  1.0
  C  C252  1  0.484000  0.609100  0.389710  1.0
  C  C253  1  0.924800  0.134800  0.924220  1.0
  C  C254  1  0.424800  0.365200  0.575780  1.0
  C  C255  1  0.075200  0.865200  0.075780  1.0
  C  C256  1  0.575200  0.634800  0.424220  1.0
  C  C257  1  0.925600  0.134000  0.982570  1.0
  C  C258  1  0.425600  0.366000  0.517430  1.0
  C  C259  1  0.074400  0.866000  0.017430  1.0
  C  C260  1  0.574400  0.634000  0.482570  1.0
  C  C261  1  0.020500  0.113800  0.008750  1.0
  C  C262  1  0.520500  0.386200  0.491250  1.0
  C  C263  1  0.979500  0.886200  0.991250  1.0
  C  C264  1  0.479500  0.613800  0.508750  1.0
  C  C265  1  0.015500  0.117700  0.063750  1.0
  C  C266  1  0.515500  0.382300  0.436250  1.0
  C  C267  1  0.984500  0.882300  0.936250  1.0
  C  C268  1  0.484500  0.617700  0.563750  1.0
  C  C269  1  0.915200  0.137800  0.090600  1.0
  C  C270  1  0.415200  0.362200  0.409400  1.0
  C  C271  1  0.084800  0.862200  0.909400  1.0
  C  C272  1  0.584800  0.637800  0.590600  1.0
  C  C273  1  0.823100  0.155600  0.061930  1.0
  C  C274  1  0.323100  0.344400  0.438070  1.0
  C  C275  1  0.176900  0.844400  0.938070  1.0
  C  C276  1  0.676900  0.655600  0.561930  1.0
  C  C277  1  0.731600  0.390400  0.015720  1.0
  C  C278  1  0.231600  0.109600  0.484280  1.0
  C  C279  1  0.268400  0.609600  0.984280  1.0
  C  C280  1  0.768400  0.890400  0.515720  1.0
  C  C281  1  0.719700  0.489200  0.024880  1.0
  C  C282  1  0.219700  0.010800  0.475120  1.0
  C  C283  1  0.280300  0.510800  0.975120  1.0
  C  C284  1  0.780300  0.989200  0.524880  1.0
  C  C285  1  0.648900  0.522600  0.990570  1.0
  C  C286  1  0.148900  0.977400  0.509430  1.0
  C  C287  1  0.351100  0.477400  0.009430  1.0
  C  C288  1  0.851100  0.022600  0.490570  1.0
  C  C289  1  0.592800  0.455900  0.949970  1.0
  C  C290  1  0.092800  0.044100  0.550030  1.0
  C  C291  1  0.407200  0.544100  0.050030  1.0
  C  C292  1  0.907200  0.955900  0.449970  1.0
  C  C293  1  0.606100  0.356700  0.944150  1.0
  C  C294  1  0.106100  0.143300  0.555850  1.0
  C  C295  1  0.393900  0.643300  0.055850  1.0
  C  C296  1  0.893900  0.856700  0.444150  1.0
  C  C297  1  0.545800  0.280200  0.902770  1.0
  C  C298  1  0.045800  0.219800  0.597230  1.0
  C  C299  1  0.454200  0.719800  0.097230  1.0
  C  C300  1  0.954200  0.780200  0.402770  1.0
  C  C301  1  0.464100  0.300200  0.869160  1.0
  C  C302  1  0.964100  0.199800  0.630840  1.0
  C  C303  1  0.535900  0.699800  0.130840  1.0
  C  C304  1  0.035900  0.800200  0.369160  1.0
  C  C305  1  0.414700  0.223700  0.830340  1.0
  C  C306  1  0.914700  0.276300  0.669660  1.0
  C  C307  1  0.585300  0.776300  0.169660  1.0
  C  C308  1  0.085300  0.723700  0.330340  1.0
  C  C309  1  0.447600  0.130300  0.826600  1.0
  C  C310  1  0.947600  0.369700  0.673400  1.0
  C  C311  1  0.552400  0.869700  0.173400  1.0
  C  C312  1  0.052400  0.630300  0.326600  1.0
  C  C313  1  0.526300  0.115500  0.863120  1.0
  C  C314  1  0.026300  0.384500  0.636880  1.0
  C  C315  1  0.473700  0.884500  0.136880  1.0
  C  C316  1  0.973700  0.615500  0.363120  1.0
  C  C317  1  0.742100  0.928100  0.806180  1.0
  C  C318  1  0.242100  0.571900  0.693820  1.0
  C  C319  1  0.257900  0.071900  0.193820  1.0
  C  C320  1  0.757900  0.428100  0.306180  1.0
  C  C321  1  0.008600  0.648600  0.802020  1.0
  C  C322  1  0.508600  0.851400  0.697980  1.0
  C  C323  1  0.991400  0.351400  0.197980  1.0
  C  C324  1  0.491400  0.148600  0.302020  1.0
  C  C325  1  0.387000  0.644600  0.848280  1.0
  C  C326  1  0.887000  0.855400  0.651720  1.0
  C  C327  1  0.613000  0.355400  0.151720  1.0
  C  C328  1  0.113000  0.144600  0.348280  1.0
  C  C329  1  0.725900  0.420700  0.812300  1.0
  C  C330  1  0.225900  0.079300  0.687700  1.0
  C  C331  1  0.274100  0.579300  0.187700  1.0
  C  C332  1  0.774100  0.920700  0.312300  1.0
  C  C333  1  0.679800  0.881700  0.044090  1.0
  C  C334  1  0.179800  0.618300  0.455910  1.0
  C  C335  1  0.320200  0.118300  0.955910  1.0
  C  C336  1  0.820200  0.381700  0.544090  1.0
  C  C337  1  0.936100  0.590200  0.971400  1.0
  C  C338  1  0.436100  0.909800  0.528600  1.0
  C  C339  1  0.063900  0.409800  0.028600  1.0
  C  C340  1  0.563900  0.090200  0.471400  1.0
  N  N341  1  0.571900  0.182700  0.022550  1.0
  N  N342  1  0.071900  0.317300  0.477450  1.0
  N  N343  1  0.428100  0.817300  0.977450  1.0
  N  N344  1  0.928100  0.682700  0.522550  1.0
  N  N345  1  0.675100  0.017500  0.939730  1.0
  N  N346  1  0.175100  0.482500  0.560270  1.0
  N  N347  1  0.324900  0.982500  0.060270  1.0
  N  N348  1  0.824900  0.517500  0.439730  1.0
  N  N349  1  0.453700  0.874300  0.830950  1.0
  N  N350  1  0.953700  0.625700  0.669050  1.0
  N  N351  1  0.546300  0.125700  0.169050  1.0
  N  N352  1  0.046300  0.374300  0.330950  1.0
  N  N353  1  0.724900  0.762500  0.953850  1.0
  N  N354  1  0.224900  0.737500  0.546150  1.0
  N  N355  1  0.275100  0.237500  0.046150  1.0
  N  N356  1  0.775100  0.262500  0.453850  1.0
  N  N357  1  0.795100  0.685600  0.935870  1.0
  N  N358  1  0.295100  0.814400  0.564130  1.0
  N  N359  1  0.204900  0.314400  0.064130  1.0
  N  N360  1  0.704900  0.185600  0.435870  1.0
  N  N361  1  0.593200  0.658500  0.865600  1.0
  N  N362  1  0.093200  0.841500  0.634400  1.0
  N  N363  1  0.406800  0.341500  0.134400  1.0
  N  N364  1  0.906800  0.158500  0.365600  1.0
  N  N365  1  0.682300  0.595200  0.855770  1.0
  N  N366  1  0.182300  0.904800  0.644230  1.0
  N  N367  1  0.317700  0.404800  0.144230  1.0
  N  N368  1  0.817700  0.095200  0.355770  1.0
  N  N369  1  0.753700  0.787000  0.847410  1.0
  N  N370  1  0.253700  0.713000  0.652590  1.0
  N  N371  1  0.246300  0.213000  0.152590  1.0
  N  N372  1  0.746300  0.287000  0.347410  1.0
  N  N373  1  0.827200  0.711900  0.844600  1.0
  N  N374  1  0.327200  0.788100  0.655400  1.0
  N  N375  1  0.172800  0.288100  0.155400  1.0
  N  N376  1  0.672800  0.211900  0.344600  1.0
  N  N377  1  0.828900  0.165600  0.906950  1.0
  N  N378  1  0.328900  0.334400  0.593050  1.0
  N  N379  1  0.171100  0.834400  0.093050  1.0
  N  N380  1  0.671100  0.665600  0.406950  1.0
  N  N381  1  0.827900  0.154900  0.008920  1.0
  N  N382  1  0.327900  0.345100  0.491080  1.0
  N  N383  1  0.172100  0.845100  0.991080  1.0
  N  N384  1  0.672100  0.654900  0.508920  1.0
  N  N385  1  0.678000  0.324500  0.976250  1.0
  N  N386  1  0.178000  0.175500  0.523750  1.0
  N  N387  1  0.322000  0.675500  0.023750  1.0
  N  N388  1  0.822000  0.824500  0.476250  1.0
  N  N389  1  0.575000  0.187900  0.900830  1.0
  N  N390  1  0.075000  0.312100  0.599170  1.0
  N  N391  1  0.425000  0.812100  0.099170  1.0
  N  N392  1  0.925000  0.687900  0.400830  1.0
  O  O393  1  0.237800  0.959300  0.830080  1
  O  O394  1  0.737800  0.540700  0.669920  1
  O  O395  1  0.762200  0.040700  0.169920  1
  O  O396  1  0.262200  0.459300  0.330080  1
  F  F397  1  0.277000  0.405400  0.818350  1
  F  F398  1  0.777000  0.094600  0.681650  1
  F  F399  1  0.723000  0.594600  0.181650  1
  F  F400  1  0.223000  0.905400  0.318350  1
  F  F401  1  0.152600  0.339900  0.863300  1
  F  F402  1  0.652600  0.160100  0.636700  1
  F  F403  1  0.847400  0.660100  0.136700  1
  F  F404  1  0.347400  0.839900  0.363300  1
  F  F405  1  0.157200  0.291800  0.771940  1
  F  F406  1  0.657200  0.208200  0.728060  1
  F  F407  1  0.842800  0.708200  0.228060  1
  F  F408  1  0.342800  0.791800  0.271940  1
  F  F409  1  0.013900  0.383200  0.813630  1
  F  F410  1  0.513900  0.116800  0.686370  1
  F  F411  1  0.986100  0.616800  0.186370  1
  F  F412  1  0.486100  0.883200  0.313630  1
  F  F413  1  0.140200  0.447900  0.769350  1
  F  F414  1  0.640200  0.052100  0.730650  1
  F  F415  1  0.859800  0.552100  0.230650  1
  F  F416  1  0.359800  0.947900  0.269350  1
  F  F417  1  0.134800  0.496100  0.861100  1
  F  F418  1  0.634800  0.003900  0.638900  1
  F  F419  1  0.865200  0.503900  0.138900  1
  F  F420  1  0.365200  0.996100  0.361100  1
