# generated using pymatgen
data_FeCoBPH58C48N13(O2F3)2
_symmetry_space_group_name_H-M   'P 1'
_cell_length_a   12.41500000
_cell_length_b   14.79700000
_cell_length_c   17.90800000
_cell_angle_alpha   113.65800000
_cell_angle_beta   97.46200000
_cell_angle_gamma   105.88400000
_symmetry_Int_Tables_number   1
_chemical_formula_structural   FeCoBPH58C48N13(O2F3)2
_chemical_formula_sum   'Fe2 Co2 B2 P2 H116 C96 N26 O8 F12'
_cell_volume   2788.91293705
_cell_formula_units_Z   2
loop_
 _symmetry_equiv_pos_site_id
 _symmetry_equiv_pos_as_xyz
  1  'x, y, z'
loop_
 _atom_site_type_symbol
 _atom_site_label
 _atom_site_symmetry_multiplicity
 _atom_site_fract_x
 _atom_site_fract_y
 _atom_site_fract_z
 _atom_site_occupancy
  Fe  Fe1  1  0.735340  0.722700  0.546220  1.0
  Fe  Fe2  1  0.264660  0.277300  0.453780  1.0
  Co  Co3  1  0.503130  0.395580  0.289980  1.0
  Co  Co4  1  0.496870  0.604420  0.710020  1.0
  B  B5  1  0.802800  0.946600  0.554400  1.0
  B  B6  1  0.197200  0.053400  0.445600  1.0
  P  P7  1  0.485030  0.218010  0.946590  1
  P  P8  1  0.514970  0.781990  0.053410  1
  H  H9  1  0.872700  0.841400  0.751500  1.0
  H  H10  1  0.127300  0.158600  0.248500  1.0
  H  H11  1  0.968900  0.037100  0.832900  1.0
  H  H12  1  0.031100  0.962900  0.167100  1.0
  H  H13  1  0.942100  0.107300  0.727700  1.0
  H  H14  1  0.057900  0.892700  0.272300  1.0
  H  H15  1  0.857200  0.652900  0.390100  1.0
  H  H16  1  0.142800  0.347100  0.609900  1.0
  H  H17  1  0.943600  0.776000  0.332800  1.0
  H  H18  1  0.056400  0.224000  0.667200  1.0
  H  H19  1  0.917900  0.946700  0.419500  1.0
  H  H20  1  0.082100  0.053300  0.580500  1.0
  H  H21  1  0.458700  0.700500  0.502900  1.0
  H  H22  1  0.541300  0.299500  0.497100  1.0
  H  H23  1  0.401900  0.849000  0.496800  1.0
  H  H24  1  0.598100  0.151000  0.503200  1.0
  H  H25  1  0.588500  0.992500  0.523400  1.0
  H  H26  1  0.411500  0.007500  0.476600  1.0
  H  H27  1  0.298700  0.297800  0.135200  1.0
  H  H28  1  0.701300  0.702200  0.864800  1.0
  H  H29  1  0.193600  0.128600  0.028600  1.0
  H  H30  1  0.806400  0.871400  0.971400  1.0
  H  H31  1  0.414600  0.023000  0.125300  1.0
  H  H32  1  0.585400  0.977000  0.874700  1.0
  H  H33  1  0.573100  0.073400  0.230500  1.0
  H  H34  1  0.426900  0.926600  0.769500  1.0
  H  H35  1  0.815000  0.325000  0.435200  1.0
  H  H36  1  0.185000  0.675000  0.564800  1.0
  H  H37  1  0.720800  0.430700  0.412500  1.0
  H  H38  1  0.279200  0.569300  0.587500  1.0
  H  H39  1  0.706200  0.371800  0.215200  1.0
  H  H40  1  0.293800  0.628200  0.784800  1.0
  H  H41  1  0.809300  0.445300  0.142600  1.0
  H  H42  1  0.190700  0.554700  0.857400  1.0
  H  H43  1  0.598200  0.611000  0.149100  1.0
  H  H44  1  0.401800  0.389000  0.850900  1.0
  H  H45  1  0.455100  0.653500  0.203400  1.0
  H  H46  1  0.544900  0.346500  0.796600  1.0
  H  H47  1  0.210400  0.568900  0.315300  1.0
  H  H48  1  0.789600  0.431100  0.684700  1.0
  H  H49  1  0.288200  0.447300  0.324500  1.0
  H  H50  1  0.711800  0.552700  0.675500  1.0
  H  H51  1  0.330700  0.968700  0.915400  1.0
  H  H52  1  0.669300  0.031300  0.084600  1.0
  H  H53  1  0.271200  0.845800  0.889200  1.0
  H  H54  1  0.728800  0.154200  0.110800  1.0
  H  H55  1  0.381300  0.919200  0.970200  1.0
  H  H56  1  0.618700  0.080800  0.029800  1.0
  H  H57  1  0.059900  0.946300  0.972600  1.0
  H  H58  1  0.940100  0.053700  0.027400  1.0
  H  H59  1  0.078200  0.859200  0.891600  1.0
  H  H60  1  0.921800  0.140800  0.108400  1.0
  H  H61  1  0.131300  0.981600  0.914600  1.0
  H  H62  1  0.868700  0.018400  0.085400  1.0
  H  H63  1  0.273800  0.867800  0.063100  1.0
  H  H64  1  0.726200  0.132200  0.936900  1.0
  H  H65  1  0.159600  0.792400  0.985600  1.0
  H  H66  1  0.840400  0.207600  0.014400  1.0
  H  H67  1  0.152100  0.883100  0.069700  1.0
  H  H68  1  0.847900  0.116900  0.930300  1.0
  H  H69  1  0.873200  0.041700  0.286700  1.0
  H  H70  1  0.126800  0.958300  0.713300  1.0
  H  H71  1  0.890800  0.154600  0.289700  1.0
  H  H72  1  0.109200  0.845400  0.710300  1.0
  H  H73  1  0.779800  0.053400  0.224000  1.0
  H  H74  1  0.220200  0.946600  0.776000  1.0
  H  H75  1  0.625400  0.969500  0.276400  1.0
  H  H76  1  0.374600  0.030500  0.723600  1.0
  H  H77  1  0.626800  0.025200  0.374000  1.0
  H  H78  1  0.373200  0.974800  0.626000  1.0
  H  H79  1  0.715500  0.965400  0.346400  1.0
  H  H80  1  0.284500  0.034600  0.653600  1.0
  H  H81  1  0.884500  0.116000  0.443500  1.0
  H  H82  1  0.115500  0.884000  0.556500  1.0
  H  H83  1  0.811000  0.189300  0.479700  1.0
  H  H84  1  0.189000  0.810700  0.520300  1.0
  H  H85  1  0.914800  0.227600  0.442300  1.0
  H  H86  1  0.085200  0.772400  0.557700  1.0
  H  H87  1  0.871400  0.731600  0.186300  1.0
  H  H88  1  0.128600  0.268400  0.813700  1.0
  H  H89  1  0.749400  0.725000  0.137900  1.0
  H  H90  1  0.250600  0.275000  0.862100  1.0
  H  H91  1  0.856700  0.734100  0.097100  1.0
  H  H92  1  0.143300  0.265900  0.902900  1.0
  H  H93  1  0.727700  0.567500  0.963000  1.0
  H  H94  1  0.272300  0.432500  0.037000  1.0
  H  H95  1  0.625000  0.567000  0.008600  1.0
  H  H96  1  0.375000  0.433000  0.991400  1.0
  H  H97  1  0.659900  0.464400  0.971100  1.0
  H  H98  1  0.340100  0.535600  0.028900  1.0
  H  H99  1  0.940200  0.578600  0.122200  1.0
  H  H100  1  0.059800  0.421400  0.877800  1.0
  H  H101  1  0.914500  0.573500  0.030400  1.0
  H  H102  1  0.085500  0.426500  0.969600  1.0
  H  H103  1  0.854400  0.471400  0.042100  1.0
  H  H104  1  0.145600  0.528600  0.957900  1.0
  H  H105  1  0.272300  0.661000  0.125600  1.0
  H  H106  1  0.727700  0.339000  0.874400  1.0
  H  H107  1  0.186500  0.723900  0.154100  1.0
  H  H108  1  0.813500  0.276100  0.845900  1.0
  H  H109  1  0.151700  0.604100  0.138500  1.0
  H  H110  1  0.848300  0.395900  0.861500  1.0
  H  H111  1  0.433400  0.805100  0.249700  1.0
  H  H112  1  0.566600  0.194900  0.750300  1.0
  H  H113  1  0.418600  0.839800  0.343600  1.0
  H  H114  1  0.581400  0.160200  0.656400  1.0
  H  H115  1  0.348400  0.868300  0.280000  1.0
  H  H116  1  0.651600  0.131700  0.720000  1.0
  H  H117  1  0.168300  0.786100  0.306200  1.0
  H  H118  1  0.831700  0.213900  0.693800  1.0
  H  H119  1  0.225300  0.742300  0.363200  1.0
  H  H120  1  0.774700  0.257700  0.636800  1.0
  H  H121  1  0.119900  0.662600  0.280100  1.0
  H  H122  1  0.880100  0.337400  0.719900  1.0
  H  H123  1  0.824600  0.018300  0.557100  1.0
  H  H124  1  0.175400  0.981700  0.442900  1.0
  C  C125  1  0.645800  0.598200  0.449700  1.0
  C  C126  1  0.354200  0.401800  0.550300  1.0
  C  C127  1  0.350900  0.321900  0.389500  1.0
  C  C128  1  0.649100  0.678100  0.610500  1.0
  C  C129  1  0.839600  0.656300  0.564300  1.0
  C  C130  1  0.160400  0.343700  0.435700  1.0
  C  C131  1  0.876600  0.889300  0.728200  1.0
  C  C132  1  0.123400  0.110700  0.271800  1.0
  C  C133  1  0.930200  0.997400  0.774100  1.0
  C  C134  1  0.069800  0.002600  0.225900  1.0
  C  C135  1  0.915200  0.035100  0.716100  1.0
  C  C136  1  0.084800  0.964900  0.283900  1.0
  C  C137  1  0.861600  0.724200  0.411300  1.0
  C  C138  1  0.138400  0.275800  0.588700  1.0
  C  C139  1  0.909100  0.791200  0.378500  1.0
  C  C140  1  0.090900  0.208800  0.621500  1.0
  C  C141  1  0.895300  0.884500  0.426600  1.0
  C  C142  1  0.104700  0.115500  0.573400  1.0
  C  C143  1  0.510900  0.765900  0.510600  1.0
  C  C144  1  0.489100  0.234100  0.489400  1.0
  C  C145  1  0.478400  0.847700  0.507100  1.0
  C  C146  1  0.521600  0.152300  0.492900  1.0
  C  C147  1  0.581000  0.926000  0.521700  1.0
  C  C148  1  0.419000  0.074000  0.478300  1.0
  C  C149  1  0.322600  0.241300  0.133300  1.0
  C  C150  1  0.677400  0.758700  0.866700  1.0
  C  C151  1  0.259400  0.140200  0.069600  1.0
  C  C152  1  0.740600  0.859800  0.930400  1.0
  C  C153  1  0.290300  0.056500  0.064800  1.0
  C  C154  1  0.709700  0.943500  0.935200  1.0
  C  C155  1  0.389200  0.078600  0.126600  1.0
  C  C156  1  0.610800  0.921400  0.873400  1.0
  C  C157  1  0.449900  0.181100  0.189400  1.0
  C  C158  1  0.550100  0.818900  0.810600  1.0
  C  C159  1  0.553800  0.213400  0.257200  1.0
  C  C160  1  0.446200  0.786600  0.742800  1.0
  C  C161  1  0.605400  0.146800  0.268600  1.0
  C  C162  1  0.394600  0.853200  0.731400  1.0
  C  C163  1  0.704900  0.185600  0.335500  1.0
  C  C164  1  0.295100  0.814400  0.664500  1.0
  C  C165  1  0.747400  0.294200  0.389100  1.0
  C  C166  1  0.252600  0.705800  0.610900  1.0
  C  C167  1  0.690900  0.357000  0.375000  1.0
  C  C168  1  0.309100  0.643000  0.625000  1.0
  C  C169  1  0.683900  0.421000  0.201500  1.0
  C  C170  1  0.316100  0.579000  0.798500  1.0
  C  C171  1  0.745500  0.464600  0.158100  1.0
  C  C172  1  0.254500  0.535400  0.841900  1.0
  C  C173  1  0.715600  0.536500  0.136600  1.0
  C  C174  1  0.284400  0.463500  0.863400  1.0
  C  C175  1  0.621500  0.561700  0.161900  1.0
  C  C176  1  0.378500  0.438300  0.838100  1.0
  C  C177  1  0.561900  0.516200  0.205200  1.0
  C  C178  1  0.438100  0.483800  0.794800  1.0
  C  C179  1  0.462000  0.538100  0.234100  1.0
  C  C180  1  0.538000  0.461900  0.765900  1.0
  C  C181  1  0.419400  0.611900  0.228500  1.0
  C  C182  1  0.580600  0.388100  0.771500  1.0
  C  C183  1  0.324300  0.627400  0.259200  1.0
  C  C184  1  0.675700  0.372600  0.740800  1.0
  C  C185  1  0.275900  0.562700  0.294400  1.0
  C  C186  1  0.724100  0.437300  0.705600  1.0
  C  C187  1  0.322300  0.489400  0.299300  1.0
  C  C188  1  0.677700  0.510600  0.700700  1.0
  C  C189  1  0.228000  0.942600  0.993700  1.0
  C  C190  1  0.772000  0.057400  0.006300  1.0
  C  C191  1  0.310400  0.916700  0.936900  1.0
  C  C192  1  0.689600  0.083300  0.063100  1.0
  C  C193  1  0.113900  0.931400  0.938000  1.0
  C  C194  1  0.886100  0.068600  0.062000  1.0
  C  C195  1  0.200900  0.864400  0.031500  1.0
  C  C196  1  0.799100  0.135600  0.968500  1.0
  C  C197  1  0.764700  0.111700  0.346800  1.0
  C  C198  1  0.235300  0.888300  0.653200  1.0
  C  C199  1  0.833200  0.088300  0.280900  1.0
  C  C200  1  0.166800  0.911700  0.719100  1.0
  C  C201  1  0.675000  0.008600  0.334800  1.0
  C  C202  1  0.325000  0.991400  0.665200  1.0
  C  C203  1  0.851900  0.166200  0.436400  1.0
  C  C204  1  0.148100  0.833800  0.563600  1.0
  C  C205  1  0.778400  0.583900  0.084700  1.0
  C  C206  1  0.221600  0.416100  0.915300  1.0
  C  C207  1  0.817500  0.704500  0.130600  1.0
  C  C208  1  0.182500  0.295500  0.869400  1.0
  C  C209  1  0.689700  0.541900  0.999000  1.0
  C  C210  1  0.310300  0.458100  0.001000  1.0
  C  C211  1  0.881000  0.548700  0.068400  1.0
  C  C212  1  0.119000  0.451300  0.931600  1.0
  C  C213  1  0.276900  0.709800  0.252300  1.0
  C  C214  1  0.723100  0.290200  0.747700  1.0
  C  C215  1  0.216400  0.671200  0.159200  1.0
  C  C216  1  0.783600  0.328800  0.840800  1.0
  C  C217  1  0.378600  0.815400  0.284300  1.0
  C  C218  1  0.621400  0.184600  0.715700  1.0
  C  C219  1  0.189700  0.726800  0.305200  1.0
  C  C220  1  0.810300  0.273200  0.694800  1.0
  N  N221  1  0.593200  0.520100  0.388200  1.0
  N  N222  1  0.406800  0.479900  0.611800  1.0
  N  N223  1  0.407400  0.349600  0.349800  1.0
  N  N224  1  0.592600  0.650400  0.650200  1.0
  N  N225  1  0.899600  0.611400  0.571300  1.0
  N  N226  1  0.100400  0.388600  0.428700  1.0
  N  N227  1  0.831400  0.860700  0.647500  1.0
  N  N228  1  0.168600  0.139300  0.352500  1.0
  N  N229  1  0.855800  0.952000  0.640000  1.0
  N  N230  1  0.144200  0.048000  0.360000  1.0
  N  N231  1  0.823100  0.772500  0.476100  1.0
  N  N232  1  0.176900  0.227500  0.523900  1.0
  N  N233  1  0.844100  0.872300  0.485600  1.0
  N  N234  1  0.155900  0.127700  0.514400  1.0
  N  N235  1  0.627000  0.793400  0.526500  1.0
  N  N236  1  0.373000  0.206600  0.473500  1.0
  N  N237  1  0.668000  0.892200  0.533100  1.0
  N  N238  1  0.332000  0.107800  0.466900  1.0
  N  N239  1  0.416400  0.262100  0.192400  1.0
  N  N240  1  0.583600  0.737900  0.807600  1.0
  N  N241  1  0.596000  0.318200  0.310700  1.0
  N  N242  1  0.404000  0.681800  0.689300  1.0
  N  N243  1  0.592700  0.446000  0.225200  1.0
  N  N244  1  0.407300  0.554000  0.774800  1.0
  N  N245  1  0.413700  0.475800  0.269800  1.0
  N  N246  1  0.586300  0.524200  0.730200  1.0
  O  O247  1  0.074700  0.352700  0.115000  1
  O  O248  1  0.925300  0.647300  0.885000  1
  O  O249  1  0.007700  0.548100  0.441900  1
  O  O250  1  0.992300  0.451900  0.558100  1
  O  O251  1  0.984000  0.379700  0.136500  1
  O  O252  1  0.016000  0.620300  0.863500  1
  O  O253  1  0.988000  0.450100  0.291500  1
  O  O254  1  0.012000  0.549900  0.708500  1
  F  F255  1  0.470100  0.321700  0.013500  1
  F  F256  1  0.529900  0.678300  0.986500  1
  F  F257  1  0.622300  0.280600  0.973600  1
  F  F258  1  0.377700  0.719400  0.026400  1
  F  F259  1  0.502400  0.181400  0.018700  1
  F  F260  1  0.497600  0.818600  0.981300  1
  F  F261  1  0.347500  0.154600  0.918100  1
  F  F262  1  0.652500  0.845400  0.081900  1
  F  F263  1  0.501100  0.114600  0.879200  1
  F  F264  1  0.498900  0.885400  0.120800  1
  F  F265  1  0.468000  0.255800  0.874200  1
  F  F266  1  0.532000  0.744200  0.125800  1
