# generated using pymatgen
data_P6H110Pt3C71(ClO)6
_symmetry_space_group_name_H-M   'P 1'
_cell_length_a   14.50610000
_cell_length_b   26.23120000
_cell_length_c   26.23120000
_cell_angle_alpha   120.00000000
_cell_angle_beta   90.00000000
_cell_angle_gamma   90.00000000
_symmetry_Int_Tables_number   1
_chemical_formula_structural   P6H110Pt3C71(ClO)6
_chemical_formula_sum   'P24 H440 Pt12 C284 Cl24 O24'
_cell_volume   8644.05688387
_cell_formula_units_Z   4
loop_
 _symmetry_equiv_pos_site_id
 _symmetry_equiv_pos_as_xyz
  1  'x, y, z'
loop_
 _atom_site_type_symbol
 _atom_site_label
 _atom_site_symmetry_multiplicity
 _atom_site_fract_x
 _atom_site_fract_y
 _atom_site_fract_z
 _atom_site_occupancy
  P  P1  1  0.062500  0.397300  0.882400  1.0
  P  P2  1  0.562500  0.602700  0.117600  1.0
  P  P3  1  0.062500  0.485100  0.602700  1.0
  P  P4  1  0.062500  0.117600  0.514900  1.0
  P  P5  1  0.562500  0.882400  0.485100  1.0
  P  P6  1  0.562500  0.514900  0.397300  1.0
  P  P7  1  0.752300  0.391400  0.885100  1.0
  P  P8  1  0.252300  0.608600  0.114900  1.0
  P  P9  1  0.752300  0.493700  0.608600  1.0
  P  P10  1  0.752300  0.114900  0.506300  1.0
  P  P11  1  0.252300  0.885100  0.493700  1.0
  P  P12  1  0.252300  0.506300  0.391400  1.0
  P  P13  1  0.008800  0.890800  0.145700  1.0
  P  P14  1  0.508800  0.109200  0.854300  1.0
  P  P15  1  0.008800  0.254900  0.109200  1.0
  P  P16  1  0.008800  0.854300  0.745100  1.0
  P  P17  1  0.508800  0.145700  0.254900  1.0
  P  P18  1  0.508800  0.745100  0.890800  1.0
  P  P19  1  0.704900  0.901200  0.193500  1.0
  P  P20  1  0.204900  0.098800  0.806500  1.0
  P  P21  1  0.704900  0.292300  0.098800  1.0
  P  P22  1  0.704900  0.806500  0.707700  1.0
  P  P23  1  0.204900  0.193500  0.292300  1.0
  P  P24  1  0.204900  0.707700  0.901200  1.0
  H  H25  1  0.929700  0.464600  0.081100  1
  H  H26  1  0.429700  0.535400  0.918900  1
  H  H27  1  0.929700  0.616500  0.535400  1
  H  H28  1  0.929700  0.918900  0.383500  1
  H  H29  1  0.429700  0.081100  0.616500  1
  H  H30  1  0.429700  0.383500  0.464600  1
  H  H31  1  0.788200  0.333333  0.666667  1
  H  H32  1  0.288200  0.666667  0.333333  1
  H  H33  1  0.944900  0.609700  0.089200  1.0
  H  H34  1  0.444900  0.390300  0.910800  1.0
  H  H35  1  0.944900  0.479500  0.390300  1.0
  H  H36  1  0.944900  0.910800  0.520500  1.0
  H  H37  1  0.444900  0.089200  0.479500  1.0
  H  H38  1  0.444900  0.520500  0.609700  1.0
  H  H39  1  0.898700  0.710500  0.135700  1.0
  H  H40  1  0.398700  0.289500  0.864300  1.0
  H  H41  1  0.898700  0.425200  0.289500  1.0
  H  H42  1  0.898700  0.864300  0.574800  1.0
  H  H43  1  0.398700  0.135700  0.425200  1.0
  H  H44  1  0.398700  0.574800  0.710500  1.0
  H  H45  1  0.799100  0.680200  0.982300  1.0
  H  H46  1  0.299100  0.319800  0.017700  1.0
  H  H47  1  0.799100  0.302100  0.319800  1.0
  H  H48  1  0.799100  0.017700  0.697900  1.0
  H  H49  1  0.299100  0.982300  0.302100  1.0
  H  H50  1  0.299100  0.697900  0.680200  1.0
  H  H51  1  0.822400  0.578200  0.938700  1.0
  H  H52  1  0.322400  0.421800  0.061300  1.0
  H  H53  1  0.822400  0.360500  0.421800  1.0
  H  H54  1  0.822400  0.061300  0.639500  1.0
  H  H55  1  0.322400  0.938700  0.360500  1.0
  H  H56  1  0.322400  0.639500  0.578200  1.0
  H  H57  1  0.918200  0.277000  0.764800  1.0
  H  H58  1  0.418200  0.723000  0.235200  1.0
  H  H59  1  0.918200  0.487800  0.723000  1.0
  H  H60  1  0.918200  0.235200  0.512200  1.0
  H  H61  1  0.418200  0.764800  0.487800  1.0
  H  H62  1  0.418200  0.512200  0.277000  1.0
  H  H63  1  0.903800  0.180100  0.734200  1.0
  H  H64  1  0.403800  0.819900  0.265800  1.0
  H  H65  1  0.903800  0.554100  0.819900  1.0
  H  H66  1  0.903800  0.265800  0.445900  1.0
  H  H67  1  0.403800  0.734200  0.554100  1.0
  H  H68  1  0.403800  0.445900  0.180100  1.0
  H  H69  1  0.881400  0.096700  0.753500  1.0
  H  H70  1  0.381400  0.903300  0.246500  1.0
  H  H71  1  0.881400  0.656800  0.903300  1.0
  H  H72  1  0.881400  0.246500  0.343200  1.0
  H  H73  1  0.381400  0.753500  0.656800  1.0
  H  H74  1  0.381400  0.343200  0.096700  1.0
  H  H75  1  0.851600  0.063100  0.815500  1.0
  H  H76  1  0.351600  0.936900  0.184500  1.0
  H  H77  1  0.851600  0.752400  0.936900  1.0
  H  H78  1  0.851600  0.184500  0.247600  1.0
  H  H79  1  0.351600  0.815500  0.752400  1.0
  H  H80  1  0.351600  0.247600  0.063100  1.0
  H  H81  1  0.828200  0.082000  0.916900  1.0
  H  H82  1  0.328200  0.918000  0.083100  1.0
  H  H83  1  0.828200  0.834900  0.918000  1.0
  H  H84  1  0.828200  0.083100  0.165100  1.0
  H  H85  1  0.328200  0.916900  0.834900  1.0
  H  H86  1  0.328200  0.165100  0.082000  1.0
  H  H87  1  0.831300  0.143400  0.014900  1.0
  H  H88  1  0.331300  0.856600  0.985100  1.0
  H  H89  1  0.831300  0.871500  0.856600  1.0
  H  H90  1  0.831300  0.985100  0.128500  1.0
  H  H91  1  0.331300  0.014900  0.871500  1.0
  H  H92  1  0.331300  0.128500  0.143400  1.0
  H  H93  1  0.878800  0.007800  0.290900  1.0
  H  H94  1  0.378800  0.992200  0.709100  1.0
  H  H95  1  0.878800  0.283100  0.992200  1.0
  H  H96  1  0.878800  0.709100  0.716900  1.0
  H  H97  1  0.378800  0.290900  0.283100  1.0
  H  H98  1  0.378800  0.716900  0.007800  1.0
  H  H99  1  0.893000  0.313200  0.934400  1.0
  H  H100  1  0.393000  0.686800  0.065600  1.0
  H  H101  1  0.893000  0.621200  0.686800  1.0
  H  H102  1  0.893000  0.065600  0.378800  1.0
  H  H103  1  0.393000  0.934400  0.621200  1.0
  H  H104  1  0.393000  0.378800  0.313200  1.0
  H  H105  1  0.056800  0.501600  0.902200  1.0
  H  H106  1  0.556800  0.498400  0.097800  1.0
  H  H107  1  0.056800  0.400600  0.498400  1.0
  H  H108  1  0.056800  0.097800  0.599400  1.0
  H  H109  1  0.556800  0.902200  0.400600  1.0
  H  H110  1  0.556800  0.599400  0.501600  1.0
  H  H111  1  0.157000  0.474900  0.876700  1.0
  H  H112  1  0.657000  0.525100  0.123300  1.0
  H  H113  1  0.157000  0.401800  0.525100  1.0
  H  H114  1  0.157000  0.123300  0.598200  1.0
  H  H115  1  0.657000  0.876700  0.401800  1.0
  H  H116  1  0.657000  0.598200  0.474900  1.0
  H  H117  1  0.090300  0.414700  0.783900  1.0
  H  H118  1  0.590300  0.585300  0.216100  1.0
  H  H119  1  0.090300  0.369200  0.585300  1.0
  H  H120  1  0.090300  0.216100  0.630800  1.0
  H  H121  1  0.590300  0.783900  0.369200  1.0
  H  H122  1  0.590300  0.630800  0.414700  1.0
  H  H123  1  0.075500  0.483000  0.805500  1.0
  H  H124  1  0.575500  0.517000  0.194500  1.0
  H  H125  1  0.075500  0.322500  0.517000  1.0
  H  H126  1  0.075500  0.194500  0.677500  1.0
  H  H127  1  0.575500  0.805500  0.322500  1.0
  H  H128  1  0.575500  0.677500  0.483000  1.0
  H  H129  1  0.992700  0.445100  0.810000  1.0
  H  H130  1  0.492700  0.554900  0.190000  1.0
  H  H131  1  0.992700  0.364900  0.554900  1.0
  H  H132  1  0.992700  0.190000  0.635100  1.0
  H  H133  1  0.492700  0.810000  0.364900  1.0
  H  H134  1  0.492700  0.635100  0.445100  1.0
  H  H135  1  0.091700  0.299700  0.804400  1.0
  H  H136  1  0.591700  0.700300  0.195600  1.0
  H  H137  1  0.091700  0.504700  0.700300  1.0
  H  H138  1  0.091700  0.195600  0.495300  1.0
  H  H139  1  0.591700  0.804400  0.504700  1.0
  H  H140  1  0.591700  0.495300  0.299700  1.0
  H  H141  1  0.095700  0.344600  0.779700  1.0
  H  H142  1  0.595700  0.655400  0.220300  1.0
  H  H143  1  0.095700  0.435100  0.655400  1.0
  H  H144  1  0.095700  0.220300  0.564900  1.0
  H  H145  1  0.595700  0.779700  0.435100  1.0
  H  H146  1  0.595700  0.564900  0.344600  1.0
  H  H147  1  0.240600  0.326400  0.844600  1.0
  H  H148  1  0.740600  0.673600  0.155400  1.0
  H  H149  1  0.240600  0.518200  0.673600  1.0
  H  H150  1  0.240600  0.155400  0.481800  1.0
  H  H151  1  0.740600  0.844600  0.518200  1.0
  H  H152  1  0.740600  0.481800  0.326400  1.0
  H  H153  1  0.242600  0.382000  0.835000  1.0
  H  H154  1  0.742600  0.618000  0.165000  1.0
  H  H155  1  0.242600  0.453000  0.618000  1.0
  H  H156  1  0.242600  0.165000  0.547000  1.0
  H  H157  1  0.742600  0.835000  0.453000  1.0
  H  H158  1  0.742600  0.547000  0.382000  1.0
  H  H159  1  0.249400  0.316800  0.779500  1.0
  H  H160  1  0.749400  0.683200  0.220500  1.0
  H  H161  1  0.249400  0.462700  0.683200  1.0
  H  H162  1  0.249400  0.220500  0.537300  1.0
  H  H163  1  0.749400  0.779500  0.462700  1.0
  H  H164  1  0.749400  0.537300  0.316800  1.0
  H  H165  1  0.194700  0.379400  0.925500  1.0
  H  H166  1  0.694700  0.620600  0.074500  1.0
  H  H167  1  0.194700  0.546100  0.620600  1.0
  H  H168  1  0.194700  0.074500  0.453900  1.0
  H  H169  1  0.694700  0.925500  0.546100  1.0
  H  H170  1  0.694700  0.453900  0.379400  1.0
  H  H171  1  0.148900  0.441100  0.971900  1.0
  H  H172  1  0.648900  0.558900  0.028100  1.0
  H  H173  1  0.148900  0.530800  0.558900  1.0
  H  H174  1  0.148900  0.028100  0.469200  1.0
  H  H175  1  0.648900  0.971900  0.530800  1.0
  H  H176  1  0.648900  0.469200  0.441100  1.0
  H  H177  1  0.047200  0.400100  0.999300  1.0
  H  H178  1  0.547200  0.599900  0.000700  1.0
  H  H179  1  0.047200  0.599200  0.599900  1.0
  H  H180  1  0.047200  0.000700  0.400800  1.0
  H  H181  1  0.547200  0.999300  0.599200  1.0
  H  H182  1  0.547200  0.400800  0.400100  1.0
  H  H183  1  0.134500  0.358200  0.987200  1.0
  H  H184  1  0.634500  0.641800  0.012800  1.0
  H  H185  1  0.134500  0.629000  0.641800  1.0
  H  H186  1  0.134500  0.012800  0.371000  1.0
  H  H187  1  0.634500  0.987200  0.629000  1.0
  H  H188  1  0.634500  0.371000  0.358200  1.0
  H  H189  1  0.054000  0.338300  0.939300  1.0
  H  H190  1  0.554000  0.661700  0.060700  1.0
  H  H191  1  0.054000  0.601000  0.661700  1.0
  H  H192  1  0.054000  0.060700  0.399000  1.0
  H  H193  1  0.554000  0.939300  0.601000  1.0
  H  H194  1  0.554000  0.399000  0.338300  1.0
  H  H195  1  0.627300  0.389100  0.944200  1.0
  H  H196  1  0.127300  0.610900  0.055800  1.0
  H  H197  1  0.627300  0.555100  0.610900  1.0
  H  H198  1  0.627300  0.055800  0.444900  1.0
  H  H199  1  0.127300  0.944200  0.555100  1.0
  H  H200  1  0.127300  0.444900  0.389100  1.0
  H  H201  1  0.703000  0.340600  0.935400  1.0
  H  H202  1  0.203000  0.659400  0.064600  1.0
  H  H203  1  0.703000  0.594800  0.659400  1.0
  H  H204  1  0.703000  0.064600  0.405200  1.0
  H  H205  1  0.203000  0.935400  0.594800  1.0
  H  H206  1  0.203000  0.405200  0.340600  1.0
  H  H207  1  0.805000  0.425500  0.996400  1.0
  H  H208  1  0.305000  0.574500  0.003600  1.0
  H  H209  1  0.805000  0.570900  0.574500  1.0
  H  H210  1  0.805000  0.003600  0.429100  1.0
  H  H211  1  0.305000  0.996400  0.570900  1.0
  H  H212  1  0.305000  0.429100  0.425500  1.0
  H  H213  1  0.725100  0.413100  0.030900  1.0
  H  H214  1  0.225100  0.586900  0.969100  1.0
  H  H215  1  0.725100  0.617800  0.586900  1.0
  H  H216  1  0.725100  0.969100  0.382200  1.0
  H  H217  1  0.225100  0.030900  0.617800  1.0
  H  H218  1  0.225100  0.382200  0.413100  1.0
  H  H219  1  0.713000  0.464300  0.015100  1.0
  H  H220  1  0.213000  0.535700  0.984900  1.0
  H  H221  1  0.713000  0.550800  0.535700  1.0
  H  H222  1  0.713000  0.984900  0.449200  1.0
  H  H223  1  0.213000  0.015100  0.550800  1.0
  H  H224  1  0.213000  0.449200  0.464300  1.0
  H  H225  1  0.619600  0.453100  0.897200  1.0
  H  H226  1  0.119600  0.546900  0.102800  1.0
  H  H227  1  0.619600  0.444100  0.546900  1.0
  H  H228  1  0.619600  0.102800  0.555900  1.0
  H  H229  1  0.119600  0.897200  0.444100  1.0
  H  H230  1  0.119600  0.555900  0.453100  1.0
  H  H231  1  0.703500  0.493800  0.936700  1.0
  H  H232  1  0.203500  0.506200  0.063300  1.0
  H  H233  1  0.703500  0.442900  0.506200  1.0
  H  H234  1  0.703500  0.063300  0.557100  1.0
  H  H235  1  0.203500  0.936700  0.442900  1.0
  H  H236  1  0.203500  0.557100  0.493800  1.0
  H  H237  1  0.784400  0.475800  0.843800  1.0
  H  H238  1  0.284400  0.524200  0.156200  1.0
  H  H239  1  0.784400  0.368000  0.524200  1.0
  H  H240  1  0.784400  0.156200  0.632000  1.0
  H  H241  1  0.284400  0.843800  0.368000  1.0
  H  H242  1  0.284400  0.632000  0.475800  1.0
  H  H243  1  0.688100  0.508200  0.850100  1.0
  H  H244  1  0.188100  0.491800  0.149900  1.0
  H  H245  1  0.688100  0.341900  0.491800  1.0
  H  H246  1  0.688100  0.149900  0.658100  1.0
  H  H247  1  0.188100  0.850100  0.341900  1.0
  H  H248  1  0.188100  0.658100  0.508200  1.0
  H  H249  1  0.697100  0.438700  0.806200  1.0
  H  H250  1  0.197100  0.561300  0.193800  1.0
  H  H251  1  0.697100  0.367500  0.561300  1.0
  H  H252  1  0.697100  0.193800  0.632500  1.0
  H  H253  1  0.197100  0.806200  0.367500  1.0
  H  H254  1  0.197100  0.632500  0.438700  1.0
  H  H255  1  0.725500  0.329600  0.783400  1.0
  H  H256  1  0.225500  0.670400  0.216600  1.0
  H  H257  1  0.725500  0.453800  0.670400  1.0
  H  H258  1  0.725500  0.216600  0.546200  1.0
  H  H259  1  0.225500  0.783400  0.453800  1.0
  H  H260  1  0.225500  0.546200  0.329600  1.0
  H  H261  1  0.720800  0.292100  0.815800  1.0
  H  H262  1  0.220800  0.707900  0.184200  1.0
  H  H263  1  0.720800  0.523700  0.707900  1.0
  H  H264  1  0.720800  0.184200  0.476300  1.0
  H  H265  1  0.220800  0.815800  0.523700  1.0
  H  H266  1  0.220800  0.476300  0.292100  1.0
  H  H267  1  0.572600  0.329700  0.847200  1.0
  H  H268  1  0.072600  0.670300  0.152800  1.0
  H  H269  1  0.572600  0.517500  0.670300  1.0
  H  H270  1  0.572600  0.152800  0.482500  1.0
  H  H271  1  0.072600  0.847200  0.517500  1.0
  H  H272  1  0.072600  0.482500  0.329700  1.0
  H  H273  1  0.584300  0.286900  0.777800  1.0
  H  H274  1  0.084300  0.713100  0.222200  1.0
  H  H275  1  0.584300  0.490900  0.713100  1.0
  H  H276  1  0.584300  0.222200  0.509100  1.0
  H  H277  1  0.084300  0.777800  0.490900  1.0
  H  H278  1  0.084300  0.509100  0.286900  1.0
  H  H279  1  0.579200  0.356600  0.804400  1.0
  H  H280  1  0.079200  0.643400  0.195600  1.0
  H  H281  1  0.579200  0.447800  0.643400  1.0
  H  H282  1  0.579200  0.195600  0.552200  1.0
  H  H283  1  0.079200  0.804400  0.447800  1.0
  H  H284  1  0.079200  0.552200  0.356600  1.0
  H  H285  1  0.032800  0.791100  0.095200  1.0
  H  H286  1  0.532800  0.208900  0.904800  1.0
  H  H287  1  0.032800  0.304100  0.208900  1.0
  H  H288  1  0.032800  0.904800  0.695900  1.0
  H  H289  1  0.532800  0.095200  0.304100  1.0
  H  H290  1  0.532800  0.695900  0.791100  1.0
  H  H291  1  0.127200  0.824700  0.104000  1.0
  H  H292  1  0.627200  0.175300  0.896000  1.0
  H  H293  1  0.127200  0.279300  0.175300  1.0
  H  H294  1  0.127200  0.896000  0.720700  1.0
  H  H295  1  0.627200  0.104000  0.279300  1.0
  H  H296  1  0.627200  0.720700  0.824700  1.0
  H  H297  1  0.153000  0.781600  0.140100  1.0
  H  H298  1  0.653000  0.218400  0.859900  1.0
  H  H299  1  0.153000  0.358500  0.218400  1.0
  H  H300  1  0.153000  0.859900  0.641500  1.0
  H  H301  1  0.653000  0.140100  0.358500  1.0
  H  H302  1  0.653000  0.641500  0.781600  1.0
  H  H303  1  0.049400  0.782600  0.161500  1.0
  H  H304  1  0.549400  0.217400  0.838500  1.0
  H  H305  1  0.049400  0.378900  0.217400  1.0
  H  H306  1  0.049400  0.838500  0.621100  1.0
  H  H307  1  0.549400  0.161500  0.378900  1.0
  H  H308  1  0.549400  0.621100  0.782600  1.0
  H  H309  1  0.113100  0.839700  0.195600  1.0
  H  H310  1  0.613100  0.160300  0.804400  1.0
  H  H311  1  0.113100  0.355900  0.160300  1.0
  H  H312  1  0.113100  0.804400  0.644100  1.0
  H  H313  1  0.613100  0.195600  0.355900  1.0
  H  H314  1  0.613100  0.644100  0.839700  1.0
  H  H315  1  0.146000  0.943000  0.169900  1.0
  H  H316  1  0.646000  0.057000  0.830100  1.0
  H  H317  1  0.146000  0.226900  0.057000  1.0
  H  H318  1  0.146000  0.830100  0.773100  1.0
  H  H319  1  0.646000  0.169900  0.226900  1.0
  H  H320  1  0.646000  0.773100  0.943000  1.0
  H  H321  1  0.060400  0.987300  0.194200  1.0
  H  H322  1  0.560400  0.012700  0.805800  1.0
  H  H323  1  0.060400  0.206900  0.012700  1.0
  H  H324  1  0.060400  0.805800  0.793100  1.0
  H  H325  1  0.560400  0.194200  0.206900  1.0
  H  H326  1  0.560400  0.793100  0.987300  1.0
  H  H327  1  0.149300  0.987600  0.268900  1.0
  H  H328  1  0.649300  0.012400  0.731100  1.0
  H  H329  1  0.149300  0.281300  0.012400  1.0
  H  H330  1  0.149300  0.731100  0.718700  1.0
  H  H331  1  0.649300  0.268900  0.281300  1.0
  H  H332  1  0.649300  0.718700  0.987600  1.0
  H  H333  1  0.118800  0.920900  0.245400  1.0
  H  H334  1  0.618800  0.079100  0.754600  1.0
  H  H335  1  0.118800  0.324500  0.079100  1.0
  H  H336  1  0.118800  0.754600  0.675500  1.0
  H  H337  1  0.618800  0.245400  0.324500  1.0
  H  H338  1  0.618800  0.675500  0.920900  1.0
  H  H339  1  0.043300  0.972200  0.271600  1.0
  H  H340  1  0.543300  0.027800  0.728400  1.0
  H  H341  1  0.043300  0.299400  0.027800  1.0
  H  H342  1  0.043300  0.728400  0.700600  1.0
  H  H343  1  0.543300  0.271600  0.299400  1.0
  H  H344  1  0.543300  0.700600  0.972200  1.0
  H  H345  1  0.004600  0.949600  0.096300  1.0
  H  H346  1  0.504600  0.050400  0.903700  1.0
  H  H347  1  0.004600  0.146700  0.050400  1.0
  H  H348  1  0.004600  0.903700  0.853300  1.0
  H  H349  1  0.504600  0.096300  0.146700  1.0
  H  H350  1  0.504600  0.853300  0.949600  1.0
  H  H351  1  0.086000  0.902000  0.068300  1.0
  H  H352  1  0.586000  0.098000  0.931700  1.0
  H  H353  1  0.086000  0.166300  0.098000  1.0
  H  H354  1  0.086000  0.931700  0.833700  1.0
  H  H355  1  0.586000  0.068300  0.166300  1.0
  H  H356  1  0.586000  0.833700  0.902000  1.0
  H  H357  1  0.941400  0.832300  0.035000  1.0
  H  H358  1  0.441400  0.167700  0.965000  1.0
  H  H359  1  0.941400  0.202700  0.167700  1.0
  H  H360  1  0.941400  0.965000  0.797300  1.0
  H  H361  1  0.441400  0.035000  0.202700  1.0
  H  H362  1  0.441400  0.797300  0.832300  1.0
  H  H363  1  0.987900  0.853600  0.993500  1.0
  H  H364  1  0.487900  0.146400  0.006500  1.0
  H  H365  1  0.987900  0.139900  0.146400  1.0
  H  H366  1  0.987900  0.006500  0.860100  1.0
  H  H367  1  0.487900  0.993500  0.139900  1.0
  H  H368  1  0.487900  0.860100  0.853600  1.0
  H  H369  1  0.900100  0.887800  0.032800  1.0
  H  H370  1  0.400100  0.112200  0.967200  1.0
  H  H371  1  0.900100  0.145000  0.112200  1.0
  H  H372  1  0.900100  0.967200  0.855000  1.0
  H  H373  1  0.400100  0.032800  0.145000  1.0
  H  H374  1  0.400100  0.855000  0.887800  1.0
  H  H375  1  0.713500  0.954800  0.295800  1.0
  H  H376  1  0.213500  0.045200  0.704200  1.0
  H  H377  1  0.713500  0.341000  0.045200  1.0
  H  H378  1  0.713500  0.704200  0.659000  1.0
  H  H379  1  0.213500  0.295800  0.341000  1.0
  H  H380  1  0.213500  0.659000  0.954800  1.0
  H  H381  1  0.682700  0.996600  0.271100  1.0
  H  H382  1  0.182700  0.003400  0.728900  1.0
  H  H383  1  0.682700  0.274500  0.003400  1.0
  H  H384  1  0.682700  0.728900  0.725500  1.0
  H  H385  1  0.182700  0.271100  0.274500  1.0
  H  H386  1  0.182700  0.725500  0.996600  1.0
  H  H387  1  0.536000  0.953700  0.256300  1.0
  H  H388  1  0.036000  0.046300  0.743700  1.0
  H  H389  1  0.536000  0.302600  0.046300  1.0
  H  H390  1  0.536000  0.743700  0.697400  1.0
  H  H391  1  0.036000  0.256300  0.302600  1.0
  H  H392  1  0.036000  0.697400  0.953700  1.0
  H  H393  1  0.567400  0.995200  0.323200  1.0
  H  H394  1  0.067400  0.004800  0.676800  1.0
  H  H395  1  0.567400  0.328000  0.004800  1.0
  H  H396  1  0.567400  0.676800  0.672000  1.0
  H  H397  1  0.067400  0.323200  0.328000  1.0
  H  H398  1  0.067400  0.672000  0.995200  1.0
  H  H399  1  0.571300  0.925100  0.294200  1.0
  H  H400  1  0.071300  0.074900  0.705800  1.0
  H  H401  1  0.571300  0.369100  0.074900  1.0
  H  H402  1  0.571300  0.705800  0.630900  1.0
  H  H403  1  0.071300  0.294200  0.369100  1.0
  H  H404  1  0.071300  0.630900  0.925100  1.0
  H  H405  1  0.575000  0.842300  0.180800  1.0
  H  H406  1  0.075000  0.157700  0.819200  1.0
  H  H407  1  0.575000  0.338500  0.157700  1.0
  H  H408  1  0.575000  0.819200  0.661500  1.0
  H  H409  1  0.075000  0.180800  0.338500  1.0
  H  H410  1  0.075000  0.661500  0.842300  1.0
  H  H411  1  0.652200  0.804600  0.131600  1.0
  H  H412  1  0.152200  0.195400  0.868400  1.0
  H  H413  1  0.652200  0.327000  0.195400  1.0
  H  H414  1  0.652200  0.868400  0.673000  1.0
  H  H415  1  0.152200  0.131600  0.327000  1.0
  H  H416  1  0.152200  0.673000  0.804600  1.0
  H  H417  1  0.753900  0.825600  0.217000  1.0
  H  H418  1  0.253900  0.174400  0.783000  1.0
  H  H419  1  0.753900  0.391400  0.174400  1.0
  H  H420  1  0.753900  0.783000  0.608600  1.0
  H  H421  1  0.253900  0.217000  0.391400  1.0
  H  H422  1  0.253900  0.608600  0.825600  1.0
  H  H423  1  0.676200  0.776900  0.202200  1.0
  H  H424  1  0.176200  0.223100  0.797800  1.0
  H  H425  1  0.676200  0.425300  0.223100  1.0
  H  H426  1  0.676200  0.797800  0.574700  1.0
  H  H427  1  0.176200  0.202200  0.425300  1.0
  H  H428  1  0.176200  0.574700  0.776900  1.0
  H  H429  1  0.661300  0.842700  0.255200  1.0
  H  H430  1  0.161300  0.157300  0.744800  1.0
  H  H431  1  0.661300  0.412500  0.157300  1.0
  H  H432  1  0.661300  0.744800  0.587500  1.0
  H  H433  1  0.161300  0.255200  0.412500  1.0
  H  H434  1  0.161300  0.587500  0.842700  1.0
  H  H435  1  0.565200  0.922500  0.161400  1.0
  H  H436  1  0.065200  0.077500  0.838600  1.0
  H  H437  1  0.565200  0.238900  0.077500  1.0
  H  H438  1  0.565200  0.838600  0.761100  1.0
  H  H439  1  0.065200  0.161400  0.238900  1.0
  H  H440  1  0.065200  0.761100  0.922500  1.0
  H  H441  1  0.641000  0.971000  0.171500  1.0
  H  H442  1  0.141000  0.029000  0.828500  1.0
  H  H443  1  0.641000  0.200500  0.029000  1.0
  H  H444  1  0.641000  0.828500  0.799500  1.0
  H  H445  1  0.141000  0.171500  0.200500  1.0
  H  H446  1  0.141000  0.799500  0.971000  1.0
  H  H447  1  0.701000  0.916500  0.084100  1.0
  H  H448  1  0.201000  0.083500  0.915900  1.0
  H  H449  1  0.701000  0.167600  0.083500  1.0
  H  H450  1  0.701000  0.915900  0.832400  1.0
  H  H451  1  0.201000  0.084100  0.167600  1.0
  H  H452  1  0.201000  0.832400  0.916500  1.0
  H  H453  1  0.592900  0.904000  0.072300  1.0
  H  H454  1  0.092900  0.096000  0.927700  1.0
  H  H455  1  0.592900  0.168300  0.096000  1.0
  H  H456  1  0.592900  0.927700  0.831700  1.0
  H  H457  1  0.092900  0.072300  0.168300  1.0
  H  H458  1  0.092900  0.831700  0.904000  1.0
  H  H459  1  0.657800  0.857100  0.076900  1.0
  H  H460  1  0.157800  0.142900  0.923100  1.0
  H  H461  1  0.657800  0.219800  0.142900  1.0
  H  H462  1  0.657800  0.923100  0.780200  1.0
  H  H463  1  0.157800  0.076900  0.219800  1.0
  H  H464  1  0.157800  0.780200  0.857100  1.0
  Pt  Pt465  1  0.903700  0.395340  0.887910  1.0
  Pt  Pt466  1  0.403700  0.604660  0.112090  1.0
  Pt  Pt467  1  0.903700  0.492570  0.604660  1.0
  Pt  Pt468  1  0.903700  0.112090  0.507430  1.0
  Pt  Pt469  1  0.403700  0.887910  0.492570  1.0
  Pt  Pt470  1  0.403700  0.507430  0.395340  1.0
  Pt  Pt471  1  0.856900  0.895380  0.171340  1.0
  Pt  Pt472  1  0.356900  0.104620  0.828660  1.0
  Pt  Pt473  1  0.856900  0.275960  0.104620  1.0
  Pt  Pt474  1  0.856900  0.828660  0.724040  1.0
  Pt  Pt475  1  0.356900  0.171340  0.275960  1.0
  Pt  Pt476  1  0.356900  0.724040  0.895380  1.0
  C  C477  1  0.919000  0.464000  0.119000  1
  C  C478  1  0.419000  0.536000  0.881000  1
  C  C479  1  0.919000  0.655000  0.536000  1
  C  C480  1  0.919000  0.881000  0.345000  1
  C  C481  1  0.419000  0.119000  0.655000  1
  C  C482  1  0.419000  0.345000  0.464000  1
  C  C483  1  0.857100  0.333333  0.666667  1
  C  C484  1  0.357100  0.666667  0.333333  1
  C  C485  1  0.916000  0.519400  0.982800  1.0
  C  C486  1  0.416000  0.480600  0.017200  1.0
  C  C487  1  0.916000  0.463400  0.480600  1.0
  C  C488  1  0.916000  0.017200  0.536600  1.0
  C  C489  1  0.416000  0.982800  0.463400  1.0
  C  C490  1  0.416000  0.536600  0.519400  1.0
  C  C491  1  0.891000  0.585700  0.009900  1.0
  C  C492  1  0.391000  0.414300  0.990100  1.0
  C  C493  1  0.891000  0.424200  0.414300  1.0
  C  C494  1  0.891000  0.990100  0.575800  1.0
  C  C495  1  0.391000  0.009900  0.424200  1.0
  C  C496  1  0.391000  0.575800  0.585700  1.0
  C  C497  1  0.913000  0.623900  0.067200  1.0
  C  C498  1  0.413000  0.376100  0.932800  1.0
  C  C499  1  0.913000  0.443300  0.376100  1.0
  C  C500  1  0.913000  0.932800  0.556700  1.0
  C  C501  1  0.413000  0.067200  0.443300  1.0
  C  C502  1  0.413000  0.556700  0.623900  1.0
  C  C503  1  0.890000  0.684900  0.094600  1.0
  C  C504  1  0.390000  0.315100  0.905400  1.0
  C  C505  1  0.890000  0.409700  0.315100  1.0
  C  C506  1  0.890000  0.905400  0.590300  1.0
  C  C507  1  0.390000  0.094600  0.409700  1.0
  C  C508  1  0.390000  0.590300  0.684900  1.0
  C  C509  1  0.853000  0.705500  0.060200  1.0
  C  C510  1  0.353000  0.294500  0.939800  1.0
  C  C511  1  0.853000  0.354700  0.294500  1.0
  C  C512  1  0.853000  0.939800  0.645300  1.0
  C  C513  1  0.353000  0.060200  0.354700  1.0
  C  C514  1  0.353000  0.645300  0.705500  1.0
  C  C515  1  0.829000  0.665800  0.004800  1.0
  C  C516  1  0.329000  0.334200  0.995200  1.0
  C  C517  1  0.829000  0.339000  0.334200  1.0
  C  C518  1  0.829000  0.995200  0.661000  1.0
  C  C519  1  0.329000  0.004800  0.339000  1.0
  C  C520  1  0.329000  0.661000  0.665800  1.0
  C  C521  1  0.844000  0.604600  0.977400  1.0
  C  C522  1  0.344000  0.395400  0.022600  1.0
  C  C523  1  0.844000  0.372800  0.395400  1.0
  C  C524  1  0.844000  0.022600  0.627200  1.0
  C  C525  1  0.344000  0.977400  0.372800  1.0
  C  C526  1  0.344000  0.627200  0.604600  1.0
  C  C527  1  0.837000  0.767400  0.085000  1.0
  C  C528  1  0.337000  0.232600  0.915000  1.0
  C  C529  1  0.837000  0.317600  0.232600  1.0
  C  C530  1  0.837000  0.915000  0.682400  1.0
  C  C531  1  0.337000  0.085000  0.317600  1.0
  C  C532  1  0.337000  0.682400  0.767400  1.0
  C  C533  1  0.908000  0.307400  0.855300  1.0
  C  C534  1  0.408000  0.692600  0.144700  1.0
  C  C535  1  0.908000  0.547900  0.692600  1.0
  C  C536  1  0.908000  0.144700  0.452100  1.0
  C  C537  1  0.408000  0.855300  0.547900  1.0
  C  C538  1  0.408000  0.452100  0.307400  1.0
  C  C539  1  0.910000  0.264600  0.792900  1.0
  C  C540  1  0.410000  0.735400  0.207100  1.0
  C  C541  1  0.910000  0.528300  0.735400  1.0
  C  C542  1  0.910000  0.207100  0.471700  1.0
  C  C543  1  0.410000  0.792900  0.528300  1.0
  C  C544  1  0.410000  0.471700  0.264600  1.0
  C  C545  1  0.901000  0.207500  0.775300  1.0
  C  C546  1  0.401000  0.792500  0.224700  1.0
  C  C547  1  0.901000  0.567800  0.792500  1.0
  C  C548  1  0.901000  0.224700  0.432200  1.0
  C  C549  1  0.401000  0.775300  0.567800  1.0
  C  C550  1  0.401000  0.432200  0.207500  1.0
  C  C551  1  0.887000  0.184900  0.814300  1.0
  C  C552  1  0.387000  0.815100  0.185700  1.0
  C  C553  1  0.887000  0.629400  0.815100  1.0
  C  C554  1  0.887000  0.185700  0.370600  1.0
  C  C555  1  0.387000  0.814300  0.629400  1.0
  C  C556  1  0.387000  0.370600  0.184900  1.0
  C  C557  1  0.878000  0.124000  0.794500  1.0
  C  C558  1  0.378000  0.876000  0.205500  1.0
  C  C559  1  0.878000  0.670500  0.876000  1.0
  C  C560  1  0.878000  0.205500  0.329500  1.0
  C  C561  1  0.378000  0.794500  0.670500  1.0
  C  C562  1  0.378000  0.329500  0.124000  1.0
  C  C563  1  0.863000  0.103800  0.830600  1.0
  C  C564  1  0.363000  0.896200  0.169400  1.0
  C  C565  1  0.863000  0.726800  0.896200  1.0
  C  C566  1  0.863000  0.169400  0.273200  1.0
  C  C567  1  0.363000  0.830600  0.726800  1.0
  C  C568  1  0.363000  0.273200  0.103800  1.0
  C  C569  1  0.866000  0.143600  0.892900  1.0
  C  C570  1  0.366000  0.856400  0.107100  1.0
  C  C571  1  0.866000  0.749300  0.856400  1.0
  C  C572  1  0.866000  0.107100  0.250700  1.0
  C  C573  1  0.366000  0.892900  0.749300  1.0
  C  C574  1  0.366000  0.250700  0.143600  1.0
  C  C575  1  0.843000  0.122400  0.932200  1.0
  C  C576  1  0.343000  0.877600  0.067800  1.0
  C  C577  1  0.843000  0.809800  0.877600  1.0
  C  C578  1  0.843000  0.067800  0.190200  1.0
  C  C579  1  0.343000  0.932200  0.809800  1.0
  C  C580  1  0.343000  0.190200  0.122400  1.0
  C  C581  1  0.842000  0.159500  0.990100  1.0
  C  C582  1  0.342000  0.840500  0.009900  1.0
  C  C583  1  0.842000  0.830600  0.840500  1.0
  C  C584  1  0.842000  0.009900  0.169400  1.0
  C  C585  1  0.342000  0.990100  0.830600  1.0
  C  C586  1  0.342000  0.169400  0.159500  1.0
  C  C587  1  0.857000  0.981700  0.204000  1.0
  C  C588  1  0.357000  0.018300  0.796000  1.0
  C  C589  1  0.857000  0.222300  0.018300  1.0
  C  C590  1  0.857000  0.796000  0.777700  1.0
  C  C591  1  0.357000  0.204000  0.222300  1.0
  C  C592  1  0.357000  0.777700  0.981700  1.0
  C  C593  1  0.871000  0.022600  0.264700  1.0
  C  C594  1  0.371000  0.977400  0.735300  1.0
  C  C595  1  0.871000  0.242100  0.977400  1.0
  C  C596  1  0.871000  0.735300  0.757900  1.0
  C  C597  1  0.371000  0.264700  0.242100  1.0
  C  C598  1  0.371000  0.757900  0.022600  1.0
  C  C599  1  0.873000  0.204400  0.916500  1.0
  C  C600  1  0.373000  0.795600  0.083500  1.0
  C  C601  1  0.873000  0.712100  0.795600  1.0
  C  C602  1  0.873000  0.083500  0.287900  1.0
  C  C603  1  0.373000  0.916500  0.712100  1.0
  C  C604  1  0.373000  0.287900  0.204400  1.0
  C  C605  1  0.889000  0.225300  0.874600  1.0
  C  C606  1  0.389000  0.774700  0.125400  1.0
  C  C607  1  0.889000  0.649300  0.774700  1.0
  C  C608  1  0.889000  0.125400  0.350700  1.0
  C  C609  1  0.389000  0.874600  0.649300  1.0
  C  C610  1  0.389000  0.350700  0.225300  1.0
  C  C611  1  0.896000  0.285800  0.893400  1.0
  C  C612  1  0.396000  0.714200  0.106600  1.0
  C  C613  1  0.896000  0.607600  0.714200  1.0
  C  C614  1  0.896000  0.106600  0.392400  1.0
  C  C615  1  0.396000  0.893400  0.607600  1.0
  C  C616  1  0.396000  0.392400  0.285800  1.0
  C  C617  1  0.090000  0.466300  0.872200  1.0
  C  C618  1  0.590000  0.533700  0.127800  1.0
  C  C619  1  0.090000  0.405900  0.533700  1.0
  C  C620  1  0.090000  0.127800  0.594100  1.0
  C  C621  1  0.590000  0.872200  0.405900  1.0
  C  C622  1  0.590000  0.594100  0.466300  1.0
  C  C623  1  0.060000  0.451000  0.813000  1.0
  C  C624  1  0.560000  0.549000  0.187000  1.0
  C  C625  1  0.060000  0.362000  0.549000  1.0
  C  C626  1  0.060000  0.187000  0.638000  1.0
  C  C627  1  0.560000  0.813000  0.362000  1.0
  C  C628  1  0.560000  0.638000  0.451000  1.0
  C  C629  1  0.114000  0.338800  0.812800  1.0
  C  C630  1  0.614000  0.661200  0.187200  1.0
  C  C631  1  0.114000  0.474000  0.661200  1.0
  C  C632  1  0.114000  0.187200  0.526000  1.0
  C  C633  1  0.614000  0.812800  0.474000  1.0
  C  C634  1  0.614000  0.526000  0.338800  1.0
  C  C635  1  0.222000  0.341000  0.818000  1.0
  C  C636  1  0.722000  0.659000  0.182000  1.0
  C  C637  1  0.222000  0.477000  0.659000  1.0
  C  C638  1  0.222000  0.182000  0.523000  1.0
  C  C639  1  0.722000  0.818000  0.477000  1.0
  C  C640  1  0.722000  0.523000  0.341000  1.0
  C  C641  1  0.135000  0.400000  0.943000  1.0
  C  C642  1  0.635000  0.600000  0.057000  1.0
  C  C643  1  0.135000  0.543000  0.600000  1.0
  C  C644  1  0.135000  0.057000  0.457000  1.0
  C  C645  1  0.635000  0.943000  0.543000  1.0
  C  C646  1  0.635000  0.457000  0.400000  1.0
  C  C647  1  0.089000  0.372000  0.969000  1.0
  C  C648  1  0.589000  0.628000  0.031000  1.0
  C  C649  1  0.089000  0.597000  0.628000  1.0
  C  C650  1  0.089000  0.031000  0.403000  1.0
  C  C651  1  0.589000  0.969000  0.597000  1.0
  C  C652  1  0.589000  0.403000  0.372000  1.0
  C  C653  1  0.694000  0.381300  0.943300  1.0
  C  C654  1  0.194000  0.618700  0.056700  1.0
  C  C655  1  0.694000  0.562000  0.618700  1.0
  C  C656  1  0.694000  0.056700  0.438000  1.0
  C  C657  1  0.194000  0.943300  0.562000  1.0
  C  C658  1  0.194000  0.438000  0.381300  1.0
  C  C659  1  0.738000  0.424900  0.001600  1.0
  C  C660  1  0.238000  0.575100  0.998400  1.0
  C  C661  1  0.738000  0.576700  0.575100  1.0
  C  C662  1  0.738000  0.998400  0.423300  1.0
  C  C663  1  0.238000  0.001600  0.576700  1.0
  C  C664  1  0.238000  0.423300  0.424900  1.0
  C  C665  1  0.687000  0.459700  0.898000  1.0
  C  C666  1  0.187000  0.540300  0.102000  1.0
  C  C667  1  0.687000  0.438300  0.540300  1.0
  C  C668  1  0.687000  0.102000  0.561700  1.0
  C  C669  1  0.187000  0.898000  0.438300  1.0
  C  C670  1  0.187000  0.561700  0.459700  1.0
  C  C671  1  0.717000  0.471800  0.844000  1.0
  C  C672  1  0.217000  0.528200  0.156000  1.0
  C  C673  1  0.717000  0.372200  0.528200  1.0
  C  C674  1  0.717000  0.156000  0.627800  1.0
  C  C675  1  0.217000  0.844000  0.372200  1.0
  C  C676  1  0.217000  0.627800  0.471800  1.0
  C  C677  1  0.699000  0.329000  0.818000  1.0
  C  C678  1  0.199000  0.671000  0.182000  1.0
  C  C679  1  0.699000  0.489000  0.671000  1.0
  C  C680  1  0.699000  0.182000  0.511000  1.0
  C  C681  1  0.199000  0.818000  0.489000  1.0
  C  C682  1  0.199000  0.511000  0.329000  1.0
  C  C683  1  0.601000  0.325300  0.811400  1.0
  C  C684  1  0.101000  0.674700  0.188600  1.0
  C  C685  1  0.601000  0.486100  0.674700  1.0
  C  C686  1  0.601000  0.188600  0.513900  1.0
  C  C687  1  0.101000  0.811400  0.486100  1.0
  C  C688  1  0.101000  0.513900  0.325300  1.0
  C  C689  1  0.072000  0.823100  0.125100  1.0
  C  C690  1  0.572000  0.176900  0.874900  1.0
  C  C691  1  0.072000  0.302000  0.176900  1.0
  C  C692  1  0.072000  0.874900  0.698000  1.0
  C  C693  1  0.572000  0.125100  0.302000  1.0
  C  C694  1  0.572000  0.698000  0.823100  1.0
  C  C695  1  0.098000  0.806000  0.157000  1.0
  C  C696  1  0.598000  0.194000  0.843000  1.0
  C  C697  1  0.098000  0.351000  0.194000  1.0
  C  C698  1  0.098000  0.843000  0.649000  1.0
  C  C699  1  0.598000  0.157000  0.351000  1.0
  C  C700  1  0.598000  0.649000  0.806000  1.0
  C  C701  1  0.086000  0.950400  0.190200  1.0
  C  C702  1  0.586000  0.049600  0.809800  1.0
  C  C703  1  0.086000  0.239800  0.049600  1.0
  C  C704  1  0.086000  0.809800  0.760200  1.0
  C  C705  1  0.586000  0.190200  0.239800  1.0
  C  C706  1  0.586000  0.760200  0.950400  1.0
  C  C707  1  0.101000  0.958500  0.248900  1.0
  C  C708  1  0.601000  0.041500  0.751100  1.0
  C  C709  1  0.101000  0.290400  0.041500  1.0
  C  C710  1  0.101000  0.751100  0.709600  1.0
  C  C711  1  0.601000  0.248900  0.290400  1.0
  C  C712  1  0.601000  0.709600  0.958500  1.0
  C  C713  1  0.021000  0.908100  0.082200  1.0
  C  C714  1  0.521000  0.091900  0.917800  1.0
  C  C715  1  0.021000  0.174100  0.091900  1.0
  C  C716  1  0.021000  0.917800  0.825900  1.0
  C  C717  1  0.521000  0.082200  0.174100  1.0
  C  C718  1  0.521000  0.825900  0.908100  1.0
  C  C719  1  0.957000  0.866600  0.031200  1.0
  C  C720  1  0.457000  0.133400  0.968800  1.0
  C  C721  1  0.957000  0.164600  0.133400  1.0
  C  C722  1  0.957000  0.968800  0.835400  1.0
  C  C723  1  0.457000  0.031200  0.164600  1.0
  C  C724  1  0.457000  0.835400  0.866600  1.0
  C  C725  1  0.671000  0.957800  0.267700  1.0
  C  C726  1  0.171000  0.042200  0.732300  1.0
  C  C727  1  0.671000  0.309900  0.042200  1.0
  C  C728  1  0.671000  0.732300  0.690100  1.0
  C  C729  1  0.171000  0.267700  0.309900  1.0
  C  C730  1  0.171000  0.690100  0.957800  1.0
  C  C731  1  0.579000  0.957900  0.286800  1.0
  C  C732  1  0.079000  0.042100  0.713200  1.0
  C  C733  1  0.579000  0.328900  0.042100  1.0
  C  C734  1  0.579000  0.713200  0.671100  1.0
  C  C735  1  0.079000  0.286800  0.328900  1.0
  C  C736  1  0.079000  0.671100  0.957900  1.0
  C  C737  1  0.642000  0.834900  0.173300  1.0
  C  C738  1  0.142000  0.165100  0.826700  1.0
  C  C739  1  0.642000  0.338400  0.165100  1.0
  C  C740  1  0.642000  0.826700  0.661600  1.0
  C  C741  1  0.142000  0.173300  0.338400  1.0
  C  C742  1  0.142000  0.661600  0.834900  1.0
  C  C743  1  0.687000  0.818500  0.215700  1.0
  C  C744  1  0.187000  0.181500  0.784300  1.0
  C  C745  1  0.687000  0.397200  0.181500  1.0
  C  C746  1  0.687000  0.784300  0.602800  1.0
  C  C747  1  0.187000  0.215700  0.397200  1.0
  C  C748  1  0.187000  0.602800  0.818500  1.0
  C  C749  1  0.631000  0.928000  0.154000  1.0
  C  C750  1  0.131000  0.072000  0.846000  1.0
  C  C751  1  0.631000  0.226000  0.072000  1.0
  C  C752  1  0.631000  0.846000  0.774000  1.0
  C  C753  1  0.131000  0.154000  0.226000  1.0
  C  C754  1  0.131000  0.774000  0.928000  1.0
  C  C755  1  0.647000  0.899200  0.092000  1.0
  C  C756  1  0.147000  0.100800  0.908000  1.0
  C  C757  1  0.647000  0.192800  0.100800  1.0
  C  C758  1  0.647000  0.908000  0.807200  1.0
  C  C759  1  0.147000  0.092000  0.192800  1.0
  C  C760  1  0.147000  0.807200  0.899200  1.0
  Cl  Cl761  1  0.900000  0.393100  0.099800  1
  Cl  Cl762  1  0.400000  0.606900  0.900200  1
  Cl  Cl763  1  0.900000  0.706700  0.606900  1
  Cl  Cl764  1  0.900000  0.900200  0.293300  1
  Cl  Cl765  1  0.400000  0.099800  0.706700  1
  Cl  Cl766  1  0.400000  0.293300  0.393100  1
  Cl  Cl767  1  0.834000  0.514300  0.158000  1
  Cl  Cl768  1  0.334000  0.485700  0.842000  1
  Cl  Cl769  1  0.834000  0.643700  0.485700  1
  Cl  Cl770  1  0.834000  0.842000  0.356300  1
  Cl  Cl771  1  0.334000  0.158000  0.643700  1
  Cl  Cl772  1  0.334000  0.356300  0.514300  1
  Cl  Cl773  1  0.015000  0.494300  0.163200  1
  Cl  Cl774  1  0.515000  0.505700  0.836800  1
  Cl  Cl775  1  0.015000  0.668900  0.505700  1
  Cl  Cl776  1  0.015000  0.836800  0.331100  1
  Cl  Cl777  1  0.515000  0.163200  0.668900  1
  Cl  Cl778  1  0.515000  0.331100  0.494300  1
  Cl  Cl779  1  0.889800  0.260400  0.636300  1.0
  Cl  Cl780  1  0.389800  0.739600  0.363700  1.0
  Cl  Cl781  1  0.889800  0.375900  0.739600  1.0
  Cl  Cl782  1  0.889800  0.363700  0.624100  1.0
  Cl  Cl783  1  0.389800  0.636300  0.375900  1.0
  Cl  Cl784  1  0.389800  0.624100  0.260400  1.0
  O  O785  1  0.896000  0.488100  0.928200  1.0
  O  O786  1  0.396000  0.511900  0.071800  1.0
  O  O787  1  0.896000  0.440100  0.511900  1.0
  O  O788  1  0.896000  0.071800  0.559900  1.0
  O  O789  1  0.396000  0.928200  0.440100  1.0
  O  O790  1  0.396000  0.559900  0.488100  1.0
  O  O791  1  0.953000  0.501600  0.012100  1.0
  O  O792  1  0.453000  0.498400  0.987900  1.0
  O  O793  1  0.953000  0.510500  0.498400  1.0
  O  O794  1  0.953000  0.987900  0.489500  1.0
  O  O795  1  0.453000  0.012100  0.510500  1.0
  O  O796  1  0.453000  0.489500  0.501600  1.0
  O  O797  1  0.863000  0.803200  0.138100  1.0
  O  O798  1  0.363000  0.196800  0.861900  1.0
  O  O799  1  0.863000  0.334900  0.196800  1.0
  O  O800  1  0.863000  0.861900  0.665100  1.0
  O  O801  1  0.363000  0.138100  0.334900  1.0
  O  O802  1  0.363000  0.665100  0.803200  1.0
  O  O803  1  0.797000  0.784000  0.053800  1.0
  O  O804  1  0.297000  0.216000  0.946200  1.0
  O  O805  1  0.797000  0.269800  0.216000  1.0
  O  O806  1  0.797000  0.946200  0.730200  1.0
  O  O807  1  0.297000  0.053800  0.269800  1.0
  O  O808  1  0.297000  0.730200  0.784000  1.0
