# generated using pymatgen
data_P24H442Pt12C286Cl35O24
_symmetry_space_group_name_H-M   'P 1'
_cell_length_a   13.94730000
_cell_length_b   18.50910000
_cell_length_c   33.52434153
_cell_angle_alpha   96.38958695
_cell_angle_beta   102.00619843
_cell_angle_gamma   90.00000000
_symmetry_Int_Tables_number   1
_chemical_formula_structural   P24H442Pt12C286Cl35O24
_chemical_formula_sum   'P24 H442 Pt12 C286 Cl35 O24'
_cell_volume   8410.09162578
_cell_formula_units_Z   1
loop_
 _symmetry_equiv_pos_site_id
 _symmetry_equiv_pos_as_xyz
  1  'x, y, z'
loop_
 _atom_site_type_symbol
 _atom_site_label
 _atom_site_symmetry_multiplicity
 _atom_site_fract_x
 _atom_site_fract_y
 _atom_site_fract_z
 _atom_site_occupancy
  C  C1  1  0.000860  0.995000  0.503720  1
  C  C2  1  0.497140  0.005000  0.496280  1
  C  C3  1  0.991630  0.929200  0.472660  1
  C  C4  1  0.518970  0.070800  0.527340  1
  C  C5  1  0.986510  0.859900  0.484420  1
  C  C6  1  0.502090  0.140100  0.515580  1
  C  C7  1  0.973960  0.799400  0.454920  1
  C  C8  1  0.519040  0.200600  0.545080  1
  C  C9  1  0.968950  0.808200  0.413500  1
  C  C10  1  0.555450  0.191800  0.586500  1
  C  C11  1  0.973450  0.877200  0.401700  1
  C  C12  1  0.571750  0.122800  0.598300  1
  C  C13  1  0.985920  0.937600  0.431040  1
  C  C14  1  0.554880  0.062400  0.568960  1
  C  C15  1  0.969260  0.887500  0.357320  1
  C  C16  1  0.611940  0.112500  0.642680  1
  C  C17  1  0.909720  0.832200  0.208040  1
  C  C18  1  0.701680  0.167800  0.791960  1
  C  C19  1  0.896780  0.766500  0.180960  1
  C  C20  1  0.715820  0.233500  0.819040  1
  C  C21  1  0.879430  0.765000  0.139060  1
  C  C22  1  0.740370  0.235000  0.860940  1
  C  C23  1  0.874340  0.830100  0.121080  1
  C  C24  1  0.753260  0.169900  0.878920  1
  C  C25  1  0.856470  0.830000  0.077340  1
  C  C26  1  0.779130  0.170000  0.922660  1
  C  C27  1  0.851490  0.893300  0.059780  1
  C  C28  1  0.791710  0.106700  0.940220  1
  C  C29  1  0.863350  0.962400  0.084500  1
  C  C30  1  0.778850  0.037600  0.915500  1
  C  C31  1  0.855210  0.028000  0.067220  1
  C  C32  1  0.787990  0.972000  0.932780  1
  C  C33  1  0.864580  0.094200  0.091160  1
  C  C34  1  0.773420  0.905800  0.908840  1
  C  C35  1  0.883940  0.098900  0.134680  1
  C  C36  1  0.749260  0.901100  0.865320  1
  C  C37  1  0.891380  0.033900  0.151560  1
  C  C38  1  0.739820  0.966100  0.848440  1
  C  C39  1  0.880160  0.964600  0.127720  1
  C  C40  1  0.752440  0.035400  0.872280  1
  C  C41  1  0.887170  0.897800  0.146740  1
  C  C42  1  0.740430  0.102200  0.853260  1
  C  C43  1  0.904030  0.895500  0.189460  1
  C  C44  1  0.714570  0.104500  0.810540  1
  C  C45  1  0.913950  0.355500  0.175100  1
  C  C46  1  0.738850  0.644500  0.824900  1
  C  C47  1  0.926850  0.431700  0.198300  1
  C  C48  1  0.728550  0.568300  0.801700  1
  C  C49  1  0.929200  0.490100  0.175800  1
  C  C50  1  0.753400  0.509900  0.824200  1
  C  C51  1  0.939370  0.561100  0.196140  1
  C  C52  1  0.743230  0.438900  0.803860  1
  C  C53  1  0.944930  0.572700  0.238060  1
  C  C54  1  0.706870  0.427300  0.761940  1
  C  C55  1  0.944390  0.513500  0.260580  1
  C  C56  1  0.683810  0.486500  0.739420  1
  C  C57  1  0.936030  0.443600  0.240460  1
  C  C58  1  0.695570  0.556400  0.759540  1
  C  C59  1  0.949520  0.526700  0.306240  1
  C  C60  1  0.643280  0.473300  0.693760  1
  C  C61  1  0.981080  0.499300  0.450760  1
  C  C62  1  0.530320  0.500700  0.549240  1
  C  C63  1  0.982140  0.570400  0.470880  1
  C  C64  1  0.511260  0.429600  0.529120  1
  C  C65  1  0.003740  0.583100  0.512680  1
  C  C66  1  0.491060  0.416900  0.487320  1
  C  C67  1  0.022680  0.526000  0.537760  1
  C  C68  1  0.484920  0.474000  0.462240  1
  C  C69  1  0.044850  0.538800  0.582100  1
  C  C70  1  0.462750  0.461200  0.417900  1
  C  C71  1  0.058870  0.484500  0.605340  1
  C  C72  1  0.453530  0.515500  0.394660  1
  C  C73  1  0.051170  0.409900  0.586540  1
  C  C74  1  0.464630  0.590100  0.413460  1
  C  C75  1  0.059860  0.350300  0.610520  1
  C  C76  1  0.449340  0.649700  0.389480  1
  C  C77  1  0.048420  0.278700  0.592640  1
  C  C78  1  0.455780  0.721300  0.407360  1
  C  C79  1  0.032540  0.261900  0.549880  1
  C  C80  1  0.482660  0.738100  0.450120  1
  C  C81  1  0.023130  0.320200  0.526260  1
  C  C82  1  0.496870  0.679800  0.473740  1
  C  C83  1  0.031120  0.393800  0.543240  1
  C  C84  1  0.487880  0.606200  0.456760  1
  C  C85  1  0.016720  0.454100  0.518040  1
  C  C86  1  0.498680  0.545900  0.481960  1
  C  C87  1  0.998040  0.442800  0.474680  1
  C  C88  1  0.523360  0.557200  0.525320  1
  C  C89  1  0.800520  0.255200  0.493240  1
  C  C90  1  0.307280  0.744800  0.506760  1
  C  C91  1  0.688800  0.260400  0.480800  1
  C  C92  1  0.208000  0.739600  0.519200  1
  C  C93  1  0.781920  0.100100  0.472840  1
  C  C94  1  0.309080  0.899900  0.527160  1
  C  C95  1  0.804360  0.105300  0.430920  1
  C  C96  1  0.373440  0.894700  0.569080  1
  C  C97  1  0.800980  0.160600  0.557160  1
  C  C98  1  0.243820  0.839400  0.442840  1
  C  C99  1  0.830700  0.091700  0.575400  1
  C  C100  1  0.255300  0.908300  0.424600  1
  C  C101  1  0.218500  0.093600  0.487800  1
  C  C102  1  0.730700  0.906400  0.512200  1
  C  C103  1  0.170700  0.116800  0.446000  1
  C  C104  1  0.724700  0.883200  0.554000  1
  C  C105  1  0.227540  0.085800  0.573280  1
  C  C106  1  0.654260  0.914200  0.426720  1
  C  C107  1  0.192360  0.107500  0.611720  1
  C  C108  1  0.580640  0.892500  0.388280  1
  C  C109  1  0.259300  0.223900  0.547400  1
  C  C110  1  0.711900  0.776100  0.452600  1
  C  C111  1  0.264300  0.270200  0.512000  1
  C  C112  1  0.752300  0.729800  0.488000  1
  C  C113  1  0.684000  0.799800  0.224200  1
  C  C114  1  0.459800  0.200200  0.775800  1
  C  C115  1  0.656000  0.830700  0.182400  1
  C  C116  1  0.473600  0.169300  0.817600  1
  C  C117  1  0.729900  0.943100  0.256800  1
  C  C118  1  0.473100  0.056900  0.743200  1
  C  C119  1  0.747900  0.993900  0.296800  1
  C  C120  1  0.451100  0.006100  0.703200  1
  C  C121  1  0.727040  0.835000  0.311880  1
  C  C122  1  0.415160  0.165000  0.688120  1
  C  C123  1  0.733700  0.756300  0.317800  1
  C  C124  1  0.415900  0.243700  0.682200  1
  C  C125  1  0.164700  0.895300  0.292400  1
  C  C126  1  0.872300  0.104700  0.707600  1
  C  C127  1  0.123900  0.961700  0.268800  1
  C  C128  1  0.855100  0.038300  0.731200  1
  C  C129  1  0.135200  0.768300  0.230600  1
  C  C130  1  0.904600  0.231700  0.769400  1
  C  C131  1  0.146800  0.816700  0.196800  1
  C  C132  1  0.950000  0.183300  0.803200  1
  C  C133  1  0.130300  0.743300  0.308000  1
  C  C134  1  0.822300  0.256700  0.692000  1
  C  C135  1  0.242200  0.737200  0.323000  1
  C  C136  1  0.919200  0.262800  0.677000  1
  C  C137  1  0.652270  0.191200  0.120140  1
  C  C138  1  0.532130  0.808800  0.879860  1
  C  C139  1  0.666100  0.256400  0.099200  1
  C  C140  1  0.566900  0.743600  0.900800  1
  C  C141  1  0.697100  0.267700  0.201600  1
  C  C142  1  0.495500  0.732300  0.798400  1
  C  C143  1  0.747700  0.269400  0.247200  1
  C  C144  1  0.500500  0.730600  0.752800  1
  C  C145  1  0.706500  0.108900  0.191600  1
  C  C146  1  0.514900  0.891100  0.808400  1
  C  C147  1  0.607400  0.100000  0.199000  1
  C  C148  1  0.408400  0.900000  0.801000  1
  C  C149  1  0.110240  0.183500  0.125480  1
  C  C150  1  0.984760  0.816500  0.874520  1
  C  C151  1  0.073480  0.246800  0.099560  1
  C  C152  1  0.973920  0.753200  0.900440  1
  C  C153  1  0.136900  0.266700  0.204800  1
  C  C154  1  0.932100  0.733300  0.795200  1
  C  C155  1  0.128590  0.272600  0.250180  1
  C  C156  1  0.878410  0.727400  0.749820  1
  C  C157  1  0.116110  0.109700  0.197420  1
  C  C158  1  0.918690  0.890300  0.802580  1
  C  C159  1  0.226500  0.100400  0.204000  1
  C  C160  1  0.022500  0.899600  0.796000  1
  C  C161  1  0.739200  0.547700  0.404000  1
  C  C162  1  0.335200  0.452300  0.596000  1
  C  C163  1  0.751800  0.615100  0.383000  1
  C  C164  1  0.368800  0.384900  0.617000  1
  C  C165  1  0.733640  0.457300  0.326680  1
  C  C166  1  0.406960  0.542700  0.673320  1
  C  C167  1  0.621700  0.455900  0.318000  1
  C  C168  1  0.303700  0.544100  0.682000  1
  C  C169  1  0.760120  0.394200  0.403240  1
  C  C170  1  0.356880  0.605800  0.596760  1
  C  C171  1  0.806100  0.324600  0.387000  1
  C  C172  1  0.419100  0.675400  0.613000  1
  C  C173  1  0.168250  0.412700  0.358100  1
  C  C174  1  0.810150  0.587300  0.641900  1
  C  C175  1  0.128600  0.335000  0.362000  1
  C  C176  1  0.766600  0.665000  0.638000  1
  C  C177  1  0.185380  0.565400  0.384160  1
  C  C178  1  0.801220  0.434600  0.615840  1
  C  C179  1  0.140430  0.635000  0.403660  1
  C  C180  1  0.736770  0.365000  0.596340  1
  C  C181  1  0.213020  0.460600  0.443440  1
  C  C182  1  0.769580  0.539400  0.556560  1
  C  C183  1  0.241100  0.520700  0.479000  1
  C  C184  1  0.762100  0.479300  0.521000  1
  C  C185  1  0.995900  0.106800  0.323600  1
  C  C186  1  0.672300  0.893200  0.676400  1
  C  C187  1  0.439200  0.084800  0.383000  1
  C  C188  1  0.056200  0.915200  0.617000  1
  C  C189  1  0.468800  0.268500  0.291600  1
  C  C190  1  0.177200  0.731500  0.708400  1
  C  C191  1  0.852900  0.382300  0.050400  1
  C  C192  1  0.802500  0.617700  0.949600  1
  C  C193  1  0.269100  0.571400  0.016200  1
  C  C194  1  0.252900  0.428600  0.983800  1
  C  C195  1  0.309290  0.220200  0.031580  1.0
  C  C196  1  0.277710  0.779800  0.968420  1.0
  C  C197  1  0.342330  0.215800  0.077260  1.0
  C  C198  1  0.265070  0.784200  0.922740  1.0
  C  C199  1  0.353630  0.149300  0.092860  1.0
  C  C200  1  0.260770  0.850700  0.907140  1.0
  C  C201  1  0.382640  0.146600  0.135080  1.0
  C  C202  1  0.247560  0.853400  0.864920  1.0
  C  C203  1  0.402550  0.210800  0.161500  1.0
  C  C204  1  0.241050  0.789200  0.838500  1.0
  C  C205  1  0.395710  0.278200  0.146020  1.0
  C  C206  1  0.249690  0.721800  0.853980  1.0
  C  C207  1  0.364040  0.279200  0.103680  1.0
  C  C208  1  0.260360  0.720800  0.896320  1.0
  C  C209  1  0.417430  0.347600  0.174860  1.0
  C  C210  1  0.242570  0.652400  0.825140  1.0
  C  C211  1  0.431430  0.614600  0.211260  1.0
  C  C212  1  0.220170  0.385400  0.788740  1.0
  C  C213  1  0.456890  0.632000  0.255580  1.0
  C  C214  1  0.201310  0.368000  0.744420  1.0
  C  C215  1  0.458580  0.702500  0.273960  1.0
  C  C216  1  0.184620  0.297500  0.726040  1.0
  C  C217  1  0.440050  0.760600  0.251300  1.0
  C  C218  1  0.188750  0.239400  0.748700  1.0
  C  C219  1  0.445350  0.834200  0.270500  1.0
  C  C220  1  0.174850  0.165800  0.729500  1.0
  C  C221  1  0.431620  0.891700  0.248040  1.0
  C  C222  1  0.183580  0.108300  0.751960  1.0
  C  C223  1  0.411930  0.880400  0.204260  1.0
  C  C224  1  0.207670  0.119600  0.795740  1.0
  C  C225  1  0.400210  0.940000  0.180820  1.0
  C  C226  1  0.219390  0.060000  0.819180  1.0
  C  C227  1  0.380390  0.928900  0.138580  1.0
  C  C228  1  0.241810  0.071100  0.861420  1.0
  C  C229  1  0.252290  0.142000  0.883380  1.0
  C  C230  1  0.368910  0.858000  0.116620  1.0
  C  C231  1  0.241470  0.199100  0.859940  1.0
  C  C232  1  0.381530  0.800900  0.140060  1.0
  C  C233  1  0.403520  0.808700  0.183240  1.0
  C  C234  1  0.220280  0.191300  0.816760  1.0
  C  C235  1  0.418810  0.747600  0.207620  1.0
  C  C236  1  0.211190  0.252400  0.792380  1.0
  C  C237  1  0.412820  0.674100  0.189640  1.0
  C  C238  1  0.223180  0.325900  0.810360  1.0
  C  C239  1  0.030650  0.107700  0.900500  1.0
  C  C240  1  0.130150  0.892300  0.099500  1.0
  C  C241  1  0.038900  0.029000  0.904800  1.0
  C  C242  1  0.134100  0.971000  0.095200  1.0
  C  C243  1  0.079300  0.262300  0.924400  1.0
  C  C244  1  0.154900  0.737700  0.075600  1.0
  C  C245  1  0.985400  0.293400  0.924800  1.0
  C  C246  1  0.060600  0.706600  0.075200  1.0
  C  C247  1  0.060920  0.174900  0.985840  1.0
  C  C248  1  0.075080  0.825100  0.014160  1.0
  C  C249  1  0.072180  0.103900  0.006160  1.0
  C  C250  1  0.066020  0.896100  0.993840  1.0
  C  C251  1  0.485730  0.086200  0.912660  1.0
  C  C252  1  0.573070  0.913800  0.087340  1.0
  C  C253  1  0.474400  0.008800  0.920000  1.0
  C  C254  1  0.554400  0.991200  0.080000  1.0
  C  C255  1  0.512290  0.137700  0.999380  1.0
  C  C256  1  0.512910  0.862300  0.000620  1.0
  C  C257  1  0.622320  0.130100  0.002640  1.0
  C  C258  1  0.619680  0.869900  0.997360  1.0
  C  C259  1  0.487700  0.241600  0.935200  1.0
  C  C260  1  0.552500  0.758400  0.064800  1.0
  C  C261  1  0.477600  0.304200  0.967200  1.0
  C  C262  1  0.510400  0.695800  0.032800  1.0
  C  C263  1  0.191050  0.437000  0.151900  1.0
  C  C264  1  0.039150  0.563000  0.848100  1.0
  C  C265  1  0.200940  0.449200  0.108080  1.0
  C  C266  1  0.092860  0.550800  0.891920  1.0
  C  C267  1  0.194950  0.579300  0.199500  1.0
  C  C268  1  0.995450  0.420700  0.800500  1.0
  C  C269  1  0.161400  0.615000  0.159400  1.0
  C  C270  1  0.002000  0.385000  0.840600  1.0
  C  C271  1  0.253520  0.451700  0.238440  1.0
  C  C272  1  0.015080  0.548300  0.761560  1.0
  C  C273  1  0.308120  0.490500  0.279840  1.0
  C  C274  1  0.028280  0.509500  0.720160  1.0
  C  C275  1  0.601900  0.450100  0.134000  1.0
  C  C276  1  0.467900  0.549900  0.866000  1.0
  C  C277  1  0.532650  0.448000  0.090700  1.0
  C  C278  1  0.441950  0.552000  0.909300  1.0
  C  C279  1  0.594250  0.605600  0.147900  1.0
  C  C280  1  0.446350  0.394400  0.852100  1.0
  C  C281  1  0.692400  0.613600  0.134000  1.0
  C  C282  1  0.558400  0.386400  0.866000  1.0
  C  C283  1  0.681610  0.520500  0.213020  1.0
  C  C284  1  0.468590  0.479500  0.786980  1.0
  C  C285  1  0.697900  0.586900  0.245000  1.0
  C  C286  1  0.452900  0.413100  0.755000  1.0
  Cl  Cl287  1  0.945760  0.117900  0.271120  1
  Cl  Cl288  1  0.674640  0.882100  0.728880  1
  Cl  Cl289  1  0.939400  0.158500  0.355200  1
  Cl  Cl290  1  0.584200  0.841500  0.644800  1
  Cl  Cl291  1  0.123120  0.126900  0.334640  1
  Cl  Cl292  1  0.788480  0.873100  0.665360  1
  Cl  Cl293  1  0.554900  0.097500  0.376800  1
  Cl  Cl294  1  0.178100  0.902500  0.623200  1
  Cl  Cl295  1  0.384090  0.169400  0.392180  1
  Cl  Cl296  1  0.991910  0.830600  0.607820  1
  Cl  Cl297  1  0.366480  0.033200  0.342160  1
  Cl  Cl298  1  0.024320  0.966800  0.657840  1
  Cl  Cl299  1  0.429760  0.183600  0.277720  1
  Cl  Cl300  1  0.152040  0.816400  0.722280  1
  Cl  Cl301  1  0.390460  0.318700  0.319320  1
  Cl  Cl302  1  0.071140  0.681300  0.680680  1
  Cl  Cl303  1  0.574600  0.267000  0.322000  1
  Cl  Cl304  1  0.252600  0.733000  0.678000  1
  Cl  Cl305  1  0.745570  0.425000  0.043940  1
  Cl  Cl306  1  0.701630  0.575000  0.956060  1
  Cl  Cl307  1  0.831090  0.292400  0.019580  1
  Cl  Cl308  1  0.811510  0.707600  0.980420  1
  Cl  Cl309  1  0.953280  0.410200  0.037560  1
  Cl  Cl310  1  0.915720  0.589800  0.962440  1
  Cl  Cl311  1  0.751400  0.344600  0.014800  1
  Cl  Cl312  1  0.736600  0.655400  0.985200  1
  Cl  Cl313  1  0.924500  0.348600  0.017000  1
  Cl  Cl314  1  0.907500  0.651400  0.983000  1
  Cl  Cl315  1  0.917400  0.474000  0.052600  1
  Cl  Cl316  1  0.864800  0.526000  0.947400  1
  Cl  Cl317  1  0.333720  0.587100  0.069240  1
  Cl  Cl318  1  0.264480  0.412900  0.930760  1
  Cl  Cl319  1  0.341300  0.500000  0.000000  1
  Cl  Cl320  1  0.151720  0.544900  0.010640  1
  Cl  Cl321  1  0.141080  0.455100  0.989360  1
  H  H322  1  0.991600  0.853700  0.512600  1
  H  H323  1  0.479000  0.146300  0.487400  1
  H  H324  1  0.968600  0.752200  0.462800  1
  H  H325  1  0.505800  0.247800  0.537200  1
  H  H326  1  0.962600  0.766800  0.393600  1
  H  H327  1  0.569000  0.233200  0.606400  1
  H  H328  1  0.990700  0.984800  0.423000  1
  H  H329  1  0.567700  0.015200  0.577000  1
  H  H330  1  0.900400  0.721700  0.192400  1
  H  H331  1  0.708000  0.278300  0.807600  1
  H  H332  1  0.870800  0.719700  0.122200  1
  H  H333  1  0.748600  0.280300  0.877800  1
  H  H334  1  0.847800  0.785000  0.060200  1
  H  H335  1  0.787600  0.215000  0.939800  1
  H  H336  1  0.840100  0.891600  0.030800  1
  H  H337  1  0.809300  0.108400  0.969200  1
  H  H338  1  0.842900  0.026900  0.038200  1
  H  H339  1  0.804700  0.973100  0.961800  1
  H  H340  1  0.858000  0.137700  0.078200  1
  H  H341  1  0.779800  0.862300  0.921800  1
  H  H342  1  0.904600  0.035400  0.180600  1
  H  H343  1  0.724000  0.964600  0.819400  1
  H  H344  1  0.912000  0.940500  0.206600  1
  H  H345  1  0.705400  0.059500  0.793400  1
  H  H346  1  0.924100  0.482200  0.147000  1
  H  H347  1  0.777100  0.517800  0.853000  1
  H  H348  1  0.942300  0.601300  0.181000  1
  H  H349  1  0.761300  0.398700  0.819000  1
  H  H350  1  0.949100  0.620900  0.251600  1
  H  H351  1  0.697500  0.379100  0.748400  1
  H  H352  1  0.936500  0.403300  0.255800  1
  H  H353  1  0.680700  0.596700  0.744200  1
  H  H354  1  0.967700  0.610100  0.455200  1
  H  H355  1  0.512500  0.389900  0.544800  1
  H  H356  1  0.006300  0.631800  0.525400  1
  H  H357  1  0.480900  0.368200  0.474600  1
  H  H358  1  0.049500  0.587400  0.595000  1
  H  H359  1  0.454500  0.412600  0.405000  1
  H  H360  1  0.074100  0.494700  0.634400  1
  H  H361  1  0.439700  0.505300  0.365600  1
  H  H362  1  0.073800  0.360000  0.639600  1
  H  H363  1  0.434200  0.640000  0.360400  1
  H  H364  1  0.051500  0.240500  0.609600  1
  H  H365  1  0.441900  0.759500  0.390400  1
  H  H366  1  0.010800  0.309700  0.497200  1
  H  H367  1  0.513600  0.690300  0.502800  1
  H  H368  1  0.997200  0.394600  0.461600  1
  H  H369  1  0.535600  0.605400  0.538400  1
  H  H370  1  0.824800  0.295400  0.515000  1
  H  H371  1  0.309800  0.704600  0.485000  1
  H  H372  1  0.828600  0.263300  0.469200  1
  H  H373  1  0.359400  0.736700  0.530800  1
  H  H374  1  0.664400  0.227400  0.455600  1
  H  H375  1  0.208800  0.772600  0.544400  1
  H  H376  1  0.671700  0.310400  0.475600  1
  H  H377  1  0.196100  0.689600  0.524400  1
  H  H378  1  0.658700  0.246700  0.502800  1
  H  H379  1  0.155900  0.753300  0.497200  1
  H  H380  1  0.800300  0.051600  0.481400  1
  H  H381  1  0.318900  0.948400  0.518600  1
  H  H382  1  0.710600  0.105200  0.471200  1
  H  H383  1  0.239400  0.894800  0.528800  1
  H  H384  1  0.783400  0.152400  0.421800  1
  H  H385  1  0.361600  0.847600  0.578200  1
  H  H386  1  0.769000  0.066100  0.411200  1
  H  H387  1  0.357800  0.933900  0.588800  1
  H  H388  1  0.875000  0.100700  0.432600  1
  H  H389  1  0.442400  0.899300  0.567400  1
  H  H390  1  0.824700  0.202400  0.578000  1
  H  H391  1  0.246700  0.797600  0.422000  1
  H  H392  1  0.728500  0.161900  0.550200  1
  H  H393  1  0.178300  0.838100  0.449800  1
  H  H394  1  0.830500  0.052200  0.553200  1
  H  H395  1  0.277300  0.947800  0.446800  1
  H  H396  1  0.784300  0.079600  0.592000  1
  H  H397  1  0.192300  0.920400  0.408000  1
  H  H398  1  0.896700  0.098200  0.592600  1
  H  H399  1  0.304100  0.901800  0.407400  1
  H  H400  1  0.290500  0.099200  0.491600  1
  H  H401  1  0.798900  0.900800  0.508400  1
  H  H402  1  0.203200  0.041400  0.487800  1
  H  H403  1  0.715400  0.958600  0.512200  1
  H  H404  1  0.099500  0.118100  0.443400  1
  H  H405  1  0.656100  0.881900  0.556600  1
  H  H406  1  0.186300  0.081900  0.424200  1
  H  H407  1  0.762100  0.918100  0.575800  1
  H  H408  1  0.195800  0.165200  0.443600  1
  H  H409  1  0.752200  0.834800  0.556400  1
  H  H410  1  0.206900  0.034700  0.563200  1
  H  H411  1  0.643700  0.965300  0.436800  1
  H  H412  1  0.300100  0.088400  0.579400  1
  H  H413  1  0.720700  0.911600  0.420600  1
  H  H414  1  0.121000  0.112600  0.605200  1
  H  H415  1  0.515800  0.887400  0.394800  1
  H  H416  1  0.223400  0.154000  0.624800  1
  H  H417  1  0.598600  0.846000  0.375200  1
  H  H418  1  0.209300  0.070200  0.630400  1
  H  H419  1  0.578900  0.929800  0.369600  1
  H  H420  1  0.236400  0.254700  0.569600  1
  H  H421  1  0.666800  0.745300  0.430400  1
  H  H422  1  0.326200  0.208100  0.559000  1
  H  H423  1  0.767200  0.791900  0.441000  1
  H  H424  1  0.199400  0.270200  0.493800  1
  H  H425  1  0.705600  0.729800  0.506200  1
  H  H426  1  0.311700  0.249300  0.496400  1
  H  H427  1  0.815300  0.750700  0.503600  1
  H  H428  1  0.284800  0.320200  0.523400  1
  H  H429  1  0.761400  0.679800  0.476600  1
  H  H430  1  0.712600  0.751500  0.219400  1
  H  H431  1  0.493200  0.248500  0.780600  1
  H  H432  1  0.622700  0.791900  0.233800  1
  H  H433  1  0.388900  0.208100  0.766200  1
  H  H434  1  0.661200  0.883900  0.186800  1
  H  H435  1  0.474400  0.116100  0.813200  1
  H  H436  1  0.588400  0.815600  0.169000  1
  H  H437  1  0.419400  0.184400  0.831000  1
  H  H438  1  0.700600  0.812100  0.164800  1
  H  H439  1  0.535800  0.187900  0.835200  1
  H  H440  1  0.766200  0.962000  0.237600  1
  H  H441  1  0.528600  0.038000  0.762400  1
  H  H442  1  0.659100  0.942000  0.244000  1
  H  H443  1  0.415100  0.058000  0.756000  1
  H  H444  1  0.731100  0.043500  0.290600  1
  H  H445  1  0.440500  0.956500  0.709400  1
  H  H446  1  0.817100  0.992800  0.310400  1
  H  H447  1  0.506700  0.007200  0.689600  1
  H  H448  1  0.706900  0.978100  0.314800  1
  H  H449  1  0.392100  0.021900  0.685200  1
  H  H450  1  0.768100  0.864100  0.336000  1
  H  H451  1  0.432100  0.135900  0.664000  1
  H  H452  1  0.658300  0.850300  0.309800  1
  H  H453  1  0.348500  0.149700  0.690200  1
  H  H454  1  0.683000  0.728500  0.297200  1
  H  H455  1  0.385800  0.271500  0.702800  1
  H  H456  1  0.724100  0.749900  0.345400  1
  H  H457  1  0.378700  0.250100  0.654600  1
  H  H458  1  0.798600  0.739000  0.315000  1
  H  H459  1  0.483600  0.261000  0.685000  1
  H  H460  1  0.164100  0.907100  0.322000  1
  H  H461  1  0.842100  0.092900  0.678000  1
  H  H462  1  0.233600  0.887700  0.290000  1
  H  H463  1  0.943600  0.112300  0.710000  1
  H  H464  1  0.132900  0.953400  0.240400  1
  H  H465  1  0.892500  0.046600  0.759600  1
  H  H466  1  0.159500  0.006400  0.282600  1
  H  H467  1  0.876900  0.993600  0.717400  1
  H  H468  1  0.053900  0.966700  0.268800  1
  H  H469  1  0.785100  0.033300  0.731200  1
  H  H470  1  0.198700  0.745300  0.240200  1
  H  H471  1  0.958500  0.254700  0.759800  1
  H  H472  1  0.086600  0.728900  0.218200  1
  H  H473  1  0.868400  0.271100  0.781800  1
  H  H474  1  0.083200  0.820500  0.178200  1
  H  H475  1  0.905000  0.179500  0.821800  1
  H  H476  1  0.193800  0.795000  0.181200  1
  H  H477  1  0.012600  0.205000  0.818800  1
  H  H478  1  0.170600  0.865300  0.209600  1
  H  H479  1  0.961000  0.134700  0.790400  1
  H  H480  1  0.099700  0.753500  0.332000  1
  H  H481  1  0.767700  0.246500  0.668000  1
  H  H482  1  0.103100  0.696100  0.293000  1
  H  H483  1  0.810100  0.303900  0.707000  1
  H  H484  1  0.270300  0.712900  0.300600  1
  H  H485  1  0.969700  0.287100  0.699400  1
  H  H486  1  0.255400  0.708900  0.346400  1
  H  H487  1  0.909000  0.291100  0.653600  1
  H  H488  1  0.271900  0.786000  0.331200  1
  H  H489  1  0.940700  0.214000  0.668800  1
  H  H490  1  0.662000  0.146800  0.102200  1
  H  H491  1  0.559800  0.853200  0.897800  1
  H  H492  1  0.584100  0.189600  0.124200  1
  H  H493  1  0.459900  0.810400  0.875800  1
  H  H494  1  0.691200  0.297500  0.119800  1
  H  H495  1  0.571400  0.702500  0.880200  1
  H  H496  1  0.603000  0.268900  0.082600  1
  H  H497  1  0.520400  0.731100  0.917400  1
  H  H498  1  0.712900  0.245500  0.081200  1
  H  H499  1  0.631700  0.754500  0.918800  1
  H  H500  1  0.712000  0.313800  0.191400  1
  H  H501  1  0.520600  0.686200  0.808600  1
  H  H502  1  0.625100  0.263800  0.198800  1
  H  H503  1  0.426300  0.736200  0.801200  1
  H  H504  1  0.731300  0.224400  0.257400  1
  H  H505  1  0.473900  0.775600  0.742600  1
  H  H506  1  0.724900  0.311200  0.263000  1
  H  H507  1  0.461900  0.688800  0.737000  1
  H  H508  1  0.818900  0.273700  0.250000  1
  H  H509  1  0.568900  0.726300  0.750000  1
  H  H510  1  0.718700  0.066200  0.172800  1
  H  H511  1  0.545900  0.933800  0.827200  1
  H  H512  1  0.753300  0.106900  0.218000  1
  H  H513  1  0.535300  0.893100  0.782000  1
  H  H514  1  0.597100  0.137100  0.220800  1
  H  H515  1  0.376300  0.862900  0.779200  1
  H  H516  1  0.599700  0.051600  0.207200  1
  H  H517  1  0.392500  0.948400  0.792800  1
  H  H518  1  0.559100  0.105400  0.173800  1
  H  H519  1  0.385300  0.894600  0.826200  1
  H  H520  1  0.182800  0.184100  0.131600  1
  H  H521  1  0.051200  0.815900  0.868400  1
  H  H522  1  0.087100  0.136500  0.109200  1
  H  H523  1  0.977900  0.863500  0.890800  1
  H  H524  1  0.005200  0.256800  0.101000  1
  H  H525  1  0.904200  0.743200  0.899000  1
  H  H526  1  0.077900  0.232900  0.071000  1
  H  H527  1  0.006900  0.767100  0.929000  1
  H  H528  1  0.114300  0.290500  0.110600  1
  H  H529  1  0.003700  0.709500  0.889400  1
  H  H530  1  0.206900  0.262000  0.203400  1
  H  H531  1  0.003500  0.738000  0.796600  1
  H  H532  1  0.113500  0.312200  0.193400  1
  H  H533  1  0.920100  0.687800  0.806600  1
  H  H534  1  0.059600  0.278000  0.252000  1
  H  H535  1  0.807600  0.722000  0.748000  1
  H  H536  1  0.166900  0.315000  0.265400  1
  H  H537  1  0.901500  0.685000  0.734600  1
  H  H538  1  0.153800  0.228500  0.262000  1
  H  H539  1  0.891800  0.771500  0.738000  1
  H  H540  1  0.097300  0.111600  0.224400  1
  H  H541  1  0.872900  0.888400  0.775600  1
  H  H542  1  0.083700  0.066000  0.180200  1
  H  H543  1  0.903500  0.934000  0.819800  1
  H  H544  1  0.245000  0.088900  0.177400  1
  H  H545  1  0.067600  0.911100  0.822600  1
  H  H546  1  0.245500  0.060600  0.221000  1
  H  H547  1  0.024500  0.939400  0.779000  1
  H  H548  1  0.260200  0.145500  0.218200  1
  H  H549  1  0.042000  0.854500  0.781800  1
  H  H550  1  0.668600  0.535600  0.400800  1
  H  H551  1  0.267800  0.464400  0.599200  1
  H  H552  1  0.768300  0.557200  0.433800  1
  H  H553  1  0.334500  0.442800  0.566200  1
  H  H554  1  0.821600  0.627700  0.387000  1
  H  H555  1  0.434600  0.372300  0.613000  1
  H  H556  1  0.717700  0.655900  0.394600  1
  H  H557  1  0.323100  0.344100  0.605400  1
  H  H558  1  0.723800  0.605000  0.353400  1
  H  H559  1  0.370400  0.395000  0.646600  1
  H  H560  1  0.755200  0.496100  0.312200  1
  H  H561  1  0.443000  0.503900  0.687800  1
  H  H562  1  0.754700  0.410500  0.314200  1
  H  H563  1  0.440500  0.589500  0.685800  1
  H  H564  1  0.598700  0.424700  0.336000  1
  H  H565  1  0.262700  0.575300  0.664000  1
  H  H566  1  0.596100  0.436700  0.289200  1
  H  H567  1  0.306900  0.563300  0.710800  1
  H  H568  1  0.598500  0.505400  0.323000  1
  H  H569  1  0.275500  0.494600  0.677000  1
  H  H570  1  0.780400  0.402200  0.433600  1
  H  H571  1  0.346800  0.597800  0.566400  1
  H  H572  1  0.687800  0.389100  0.396000  1
  H  H573  1  0.291800  0.610900  0.604000  1
  H  H574  1  0.782800  0.315400  0.357200  1
  H  H575  1  0.425600  0.684600  0.642800  1
  H  H576  1  0.787100  0.283500  0.400000  1
  H  H577  1  0.387100  0.716500  0.600000  1
  H  H578  1  0.877600  0.330600  0.393400  1
  H  H579  1  0.484200  0.669400  0.606600  1
  H  H580  1  0.141900  0.425700  0.330200  1
  H  H581  1  0.811700  0.574300  0.669800  1
  H  H582  1  0.240600  0.412100  0.362200  1
  H  H583  1  0.878400  0.587900  0.637800  1
  H  H584  1  0.153900  0.322300  0.389800  1
  H  H585  1  0.764100  0.677700  0.610200  1
  H  H586  1  0.150200  0.299300  0.342000  1
  H  H587  1  0.808200  0.700700  0.658000  1
  H  H588  1  0.056700  0.334800  0.356400  1
  H  H589  1  0.700300  0.665200  0.643600  1
  H  H590  1  0.257200  0.566700  0.394600  1
  H  H591  1  0.862600  0.433300  0.605400  1
  H  H592  1  0.173000  0.565700  0.354000  1
  H  H593  1  0.819000  0.434300  0.646000  1
  H  H594  1  0.072500  0.639500  0.389200  1
  H  H595  1  0.683300  0.360500  0.610800  1
  H  H596  1  0.178900  0.678100  0.401400  1
  H  H597  1  0.777500  0.321900  0.598600  1
  H  H598  1  0.142000  0.630800  0.432600  1
  H  H599  1  0.709400  0.369200  0.567400  1
  H  H600  1  0.180700  0.420700  0.453400  1
  H  H601  1  0.727300  0.579300  0.546600  1
  H  H602  1  0.274500  0.441300  0.436600  1
  H  H603  1  0.837900  0.558700  0.563400  1
  H  H604  1  0.266700  0.563200  0.469200  1
  H  H605  1  0.797500  0.436800  0.530800  1
  H  H606  1  0.291500  0.503200  0.500600  1
  H  H607  1  0.790900  0.496800  0.499400  1
  H  H608  1  0.183200  0.534200  0.490200  1
  H  H609  1  0.693000  0.465800  0.509800  1
  H  H610  1  0.986200  0.054700  0.327600  1
  H  H611  1  0.658600  0.945300  0.672400  1
  H  H612  1  0.442800  0.058700  0.407800  1
  H  H613  1  0.035000  0.941300  0.592200  1
  H  H614  1  0.475000  0.292500  0.266800  1
  H  H615  1  0.208200  0.707500  0.733200  1
  H  H616  1  0.871000  0.373500  0.079800  1
  H  H617  1  0.791200  0.626500  0.920200  1
  H  H618  1  0.274600  0.615000  0.001600  1
  H  H619  1  0.273000  0.385000  0.998400  1
  H  H620  1  0.341700  0.105400  0.074800  1.0
  H  H621  1  0.266900  0.894600  0.925200  1.0
  H  H622  1  0.388800  0.101000  0.145800  1.0
  H  H623  1  0.243000  0.899000  0.854200  1.0
  H  H624  1  0.421000  0.208900  0.190200  1.0
  H  H625  1  0.230800  0.791100  0.809800  1.0
  H  H626  1  0.357400  0.324600  0.092800  1.0
  H  H627  1  0.264600  0.675400  0.907200  1.0
  H  H628  1  0.472900  0.593700  0.272400  1.0
  H  H629  1  0.200500  0.406300  0.727600  1.0
  H  H630  1  0.472900  0.711300  0.303000  1.0
  H  H631  1  0.169900  0.288700  0.697000  1.0
  H  H632  1  0.458900  0.843000  0.299600  1.0
  H  H633  1  0.159300  0.157000  0.700400  1.0
  H  H634  1  0.435200  0.939800  0.261600  1.0
  H  H635  1  0.173600  0.060200  0.738400  1.0
  H  H636  1  0.406100  0.988200  0.194400  1.0
  H  H637  1  0.211700  0.011800  0.805600  1.0
  H  H638  1  0.374200  0.969900  0.123600  1.0
  H  H639  1  0.250600  0.030100  0.876400  1.0
  H  H640  1  0.248900  0.247000  0.873800  1.0
  H  H641  1  0.375100  0.753000  0.126200  1.0
  H  H642  1  0.394700  0.665200  0.160600  1.0
  H  H643  1  0.234100  0.334800  0.839400  1.0
  H  H644  1  0.961900  0.121200  0.900400  1.0
  H  H645  1  0.061500  0.878800  0.099600  1.0
  H  H646  1  0.043300  0.115400  0.873200  1.0
  H  H647  1  0.170100  0.884600  0.126800  1.0
  H  H648  1  0.108100  0.017300  0.913600  1.0
  H  H649  1  0.194500  0.982700  0.086400  1.0
  H  H650  1  0.011400  0.000900  0.878200  1.0
  H  H651  1  0.133200  0.999100  0.121800  1.0
  H  H652  1  0.002600  0.016700  0.925200  1.0
  H  H653  1  0.077400  0.983300  0.074800  1.0
  H  H654  1  0.128500  0.296400  0.942600  1.0
  H  H655  1  0.185900  0.703600  0.057400  1.0
  H  H656  1  0.090400  0.262800  0.896200  1.0
  H  H657  1  0.194200  0.737200  0.103800  1.0
  H  H658  1  0.984300  0.342400  0.916400  1.0
  H  H659  1  0.067900  0.657600  0.083600  1.0
  H  H660  1  0.972100  0.296000  0.952600  1.0
  H  H661  1  0.019500  0.704000  0.047400  1.0
  H  H662  1  0.934100  0.262900  0.905800  1.0
  H  H663  1  0.028300  0.737100  0.094200  1.0
  H  H664  1  0.094800  0.215000  0.005800  1.0
  H  H665  1  0.089000  0.785000  0.994200  1.0
  H  H666  1  0.990500  0.186300  0.979000  1.0
  H  H667  1  0.011500  0.813700  0.021000  1.0
  H  H668  1  0.026400  0.066700  0.989400  1.0
  H  H669  1  0.037000  0.933300  0.010600  1.0
  H  H670  1  0.057800  0.112700  0.033600  1.0
  H  H671  1  0.024200  0.887300  0.966400  1.0
  H  H672  1  0.139500  0.087100  0.008200  1.0
  H  H673  1  0.131300  0.912900  0.991800  1.0
  H  H674  1  0.449900  0.092100  0.884600  1.0
  H  H675  1  0.565300  0.907900  0.115400  1.0
  H  H676  1  0.556000  0.096800  0.914000  1.0
  H  H677  1  0.642000  0.903200  0.086000  1.0
  H  H678  1  0.527300  0.997300  0.942600  1.0
  H  H679  1  0.584700  0.002700  0.057400  1.0
  H  H680  1  0.477700  0.976700  0.895200  1.0
  H  H681  1  0.582500  0.023300  0.104800  1.0
  H  H682  1  0.411000  0.001600  0.927400  1.0
  H  H683  1  0.483600  0.998400  0.072600  1.0
  H  H684  1  0.501300  0.179200  0.019000  1.0
  H  H685  1  0.482300  0.820800  0.981000  1.0
  H  H686  1  0.486200  0.093300  0.007800  1.0
  H  H687  1  0.478400  0.906700  0.992200  1.0
  H  H688  1  0.634300  0.090900  0.982200  1.0
  H  H689  1  0.652100  0.909100  0.017800  1.0
  H  H690  1  0.652800  0.118600  0.030200  1.0
  H  H691  1  0.622600  0.881400  0.969800  1.0
  H  H692  1  0.650500  0.175900  0.997600  1.0
  H  H693  1  0.652900  0.824100  0.002400  1.0
  H  H694  1  0.557500  0.237500  0.933400  1.0
  H  H695  1  0.624100  0.762500  0.066600  1.0
  H  H696  1  0.449600  0.251700  0.908000  1.0
  H  H697  1  0.541600  0.748300  0.092000  1.0
  H  H698  1  0.408200  0.315900  0.964600  1.0
  H  H699  1  0.443600  0.684100  0.035400  1.0
  H  H700  1  0.514200  0.346800  0.962800  1.0
  H  H701  1  0.551400  0.653200  0.037200  1.0
  H  H702  1  0.503700  0.290300  0.994600  1.0
  H  H703  1  0.509100  0.709700  0.005400  1.0
  H  H704  1  0.208600  0.386200  0.156200  1.0
  H  H705  1  0.052400  0.613800  0.843800  1.0
  H  H706  1  0.121400  0.442400  0.153600  1.0
  H  H707  1  0.967800  0.557600  0.846400  1.0
  H  H708  1  0.168500  0.494200  0.100600  1.0
  H  H709  1  0.067900  0.505800  0.899400  1.0
  H  H710  1  0.169900  0.408200  0.088600  1.0
  H  H711  1  0.081300  0.591800  0.911400  1.0
  H  H712  1  0.270500  0.453000  0.107200  1.0
  H  H713  1  0.163300  0.547000  0.892800  1.0
  H  H714  1  0.136200  0.566900  0.209800  1.0
  H  H715  1  0.926400  0.433100  0.790200  1.0
  H  H716  1  0.234900  0.615300  0.220400  1.0
  H  H717  1  0.014500  0.384700  0.779600  1.0
  H  H718  1  0.208100  0.604000  0.141600  1.0
  H  H719  1  0.066500  0.396000  0.858400  1.0
  H  H720  1  0.158800  0.667700  0.166200  1.0
  H  H721  1  0.992600  0.332300  0.833800  1.0
  H  H722  1  0.096200  0.595700  0.145400  1.0
  H  H723  1  0.950800  0.404300  0.854600  1.0
  H  H724  1  0.183100  0.447500  0.239000  1.0
  H  H725  1  0.944100  0.552500  0.761000  1.0
  H  H726  1  0.278600  0.401900  0.235000  1.0
  H  H727  1  0.043600  0.598100  0.765000  1.0
  H  H728  1  0.378800  0.484300  0.282400  1.0
  H  H729  1  0.096400  0.515700  0.717600  1.0
  H  H730  1  0.286600  0.469600  0.302200  1.0
  H  H731  1  0.984400  0.530400  0.697800  1.0
  H  H732  1  0.293700  0.542500  0.281200  1.0
  H  H733  1  0.012500  0.457500  0.718800  1.0
  H  H734  1  0.670600  0.455300  0.131000  1.0
  H  H735  1  0.539600  0.544700  0.869000  1.0
  H  H736  1  0.595100  0.403300  0.145000  1.0
  H  H737  1  0.450100  0.596700  0.855000  1.0
  H  H738  1  0.464600  0.452900  0.093800  1.0
  H  H739  1  0.370800  0.547100  0.906200  1.0
  H  H740  1  0.539500  0.401700  0.074400  1.0
  H  H741  1  0.465100  0.598300  0.925600  1.0
  H  H742  1  0.550600  0.488200  0.076800  1.0
  H  H743  1  0.473800  0.511800  0.923200  1.0
  H  H744  1  0.540300  0.608200  0.123800  1.0
  H  H745  1  0.416500  0.391800  0.876200  1.0
  H  H746  1  0.588600  0.647800  0.168000  1.0
  H  H747  1  0.420600  0.352200  0.832000  1.0
  H  H748  1  0.747000  0.607700  0.157000  1.0
  H  H749  1  0.590000  0.392300  0.843000  1.0
  H  H750  1  0.697200  0.661900  0.125200  1.0
  H  H751  1  0.572000  0.338100  0.874800  1.0
  H  H752  1  0.695200  0.576300  0.111200  1.0
  H  H753  1  0.584000  0.423700  0.888800  1.0
  H  H754  1  0.673500  0.477100  0.227000  1.0
  H  H755  1  0.446500  0.522900  0.773000  1.0
  H  H756  1  0.741300  0.513900  0.201600  1.0
  H  H757  1  0.539700  0.486100  0.798400  1.0
  H  H758  1  0.708600  0.630100  0.232000  1.0
  H  H759  1  0.476600  0.369900  0.768000  1.0
  H  H760  1  0.755600  0.579800  0.266400  1.0
  H  H761  1  0.489200  0.420200  0.733600  1.0
  H  H762  1  0.640200  0.593400  0.257400  1.0
  H  H763  1  0.382800  0.406600  0.742600  1.0
  O  O764  1  0.000230  0.055100  0.488660  1
  O  O765  1  0.511570  0.944900  0.511340  1
  O  O766  1  0.012250  0.989300  0.540500  1
  O  O767  1  0.471750  0.010700  0.459500  1
  O  O768  1  0.955660  0.829400  0.332920  1
  O  O769  1  0.622740  0.170600  0.667080  1
  O  O770  1  0.978720  0.949400  0.348040  1
  O  O771  1  0.630680  0.050600  0.651960  1
  O  O772  1  0.915230  0.304600  0.197860  1
  O  O773  1  0.717370  0.695400  0.802140  1
  O  O774  1  0.902950  0.347300  0.138100  1
  O  O775  1  0.764850  0.652700  0.861900  1
  O  O776  1  0.957870  0.469800  0.324740  1
  O  O777  1  0.633130  0.530200  0.675260  1
  O  O778  1  0.946970  0.590200  0.322540  1
  O  O779  1  0.624430  0.409800  0.677460  1
  O  O780  1  0.302320  0.159400  0.009240  1.0
  O  O781  1  0.293080  0.840600  0.990760  1.0
  O  O782  1  0.292860  0.279800  0.019120  1.0
  O  O783  1  0.273740  0.720200  0.980880  1.0
  O  O784  1  0.412290  0.404900  0.156580  1.0
  O  O785  1  0.255710  0.595100  0.843420  1.0
  O  O786  1  0.435010  0.345100  0.212420  1.0
  O  O787  1  0.222590  0.654900  0.787580  1.0
  P  P788  1  0.848100  0.170270  0.511660  1
  P  P789  1  0.336440  0.829730  0.488340  1
  P  P790  1  0.179580  0.145010  0.531760  1
  P  P791  1  0.647820  0.854990  0.468240  1
  P  P792  1  0.768020  0.852500  0.265240  1
  P  P793  1  0.502780  0.147500  0.734760  1
  P  P794  1  0.097340  0.815460  0.273880  1
  P  P795  1  0.823460  0.184540  0.726120  1
  P  P796  1  0.737040  0.191450  0.169880  1
  P  P797  1  0.567160  0.808550  0.830120  1
  P  P798  1  0.067380  0.190050  0.173260  1
  P  P799  1  0.894120  0.809950  0.826740  1
  P  P800  1  0.800000  0.472030  0.381000  1
  P  P801  1  0.419000  0.527970  0.619000  1
  P  P802  1  0.133520  0.481810  0.395840  1
  P  P803  1  0.737680  0.518190  0.604160  1
  P  P804  1  0.110400  0.170800  0.939000  1.0
  P  P805  1  0.171400  0.829200  0.061000  1.0
  P  P806  1  0.442310  0.151860  0.948220  1.0
  P  P807  1  0.494090  0.848140  0.051780  1.0
  P  P808  1  0.265850  0.497760  0.194300  1.0
  P  P809  1  0.071550  0.502240  0.805700  1.0
  P  P810  1  0.575780  0.523920  0.170400  1.0
  P  P811  1  0.405380  0.476080  0.829600  1.0
  Pt  Pt812  1  0.015694  0.159705  0.521948  1
  Pt  Pt813  1  0.493746  0.840295  0.478052  1
  Pt  Pt814  1  0.966753  0.483697  0.389206  1
  Pt  Pt815  1  0.577547  0.516303  0.610794  1
  Pt  Pt816  1  0.900635  0.197228  0.167410  1
  Pt  Pt817  1  0.733225  0.802772  0.832590  1
  Pt  Pt818  1  0.933107  0.833226  0.268754  1
  Pt  Pt819  1  0.664353  0.166774  0.731246  1
  Pt  Pt820  1  0.276245  0.154310  0.944770  1.0
  Pt  Pt821  1  0.331475  0.845690  0.055230  1.0
  Pt  Pt822  1  0.423582  0.512406  0.185764  1.0
  Pt  Pt823  1  0.237818  0.487594  0.814236  1.0
