# generated using pymatgen
data_P2H36Pt(C11O2)2
_symmetry_space_group_name_H-M   'P 1'
_cell_length_a   13.61040000
_cell_length_b   26.41640000
_cell_length_c   26.41640000
_cell_angle_alpha   120.00000000
_cell_angle_beta   90.00000000
_cell_angle_gamma   90.00000000
_symmetry_Int_Tables_number   1
_chemical_formula_structural   P2H36Pt(C11O2)2
_chemical_formula_sum   'P24 H432 Pt12 C264 O48'
_cell_volume   8225.24390224
_cell_formula_units_Z   12
loop_
 _symmetry_equiv_pos_site_id
 _symmetry_equiv_pos_as_xyz
  1  'x, y, z'
loop_
 _atom_site_type_symbol
 _atom_site_label
 _atom_site_symmetry_multiplicity
 _atom_site_fract_x
 _atom_site_fract_y
 _atom_site_fract_z
 _atom_site_occupancy
  P  P1  1  0.493500  0.381900  0.863700  1.0
  P  P2  1  0.993500  0.618100  0.136300  1.0
  P  P3  1  0.493500  0.481800  0.618100  1.0
  P  P4  1  0.493500  0.136300  0.518200  1.0
  P  P5  1  0.993500  0.863700  0.481800  1.0
  P  P6  1  0.993500  0.518200  0.381900  1.0
  P  P7  1  0.832300  0.388300  0.867220  1.0
  P  P8  1  0.332300  0.611700  0.132780  1.0
  P  P9  1  0.832300  0.478920  0.611700  1.0
  P  P10  1  0.832300  0.132780  0.521080  1.0
  P  P11  1  0.332300  0.867220  0.478920  1.0
  P  P12  1  0.332300  0.521080  0.388300  1.0
  P  P13  1  0.477600  0.919880  0.205760  1.0
  P  P14  1  0.977600  0.080120  0.794240  1.0
  P  P15  1  0.477600  0.285880  0.080120  1.0
  P  P16  1  0.477600  0.794240  0.714120  1.0
  P  P17  1  0.977600  0.205760  0.285880  1.0
  P  P18  1  0.977600  0.714120  0.919880  1.0
  P  P19  1  0.798200  0.909220  0.148970  1.0
  P  P20  1  0.298200  0.090780  0.851030  1.0
  P  P21  1  0.798200  0.239750  0.090780  1.0
  P  P22  1  0.798200  0.851030  0.760250  1.0
  P  P23  1  0.298200  0.148970  0.239750  1.0
  P  P24  1  0.298200  0.760250  0.909220  1.0
  H  H25  1  0.601900  0.578900  0.942000  1.0
  H  H26  1  0.101900  0.421100  0.058000  1.0
  H  H27  1  0.601900  0.363100  0.421100  1.0
  H  H28  1  0.601900  0.058000  0.636900  1.0
  H  H29  1  0.101900  0.942000  0.363100  1.0
  H  H30  1  0.101900  0.636900  0.578900  1.0
  H  H31  1  0.672200  0.606100  0.050300  1.0
  H  H32  1  0.172200  0.393900  0.949700  1.0
  H  H33  1  0.672200  0.444200  0.393900  1.0
  H  H34  1  0.672200  0.949700  0.555800  1.0
  H  H35  1  0.172200  0.050300  0.444200  1.0
  H  H36  1  0.172200  0.555800  0.606100  1.0
  H  H37  1  0.596400  0.684500  0.010900  1.0
  H  H38  1  0.096400  0.315500  0.989100  1.0
  H  H39  1  0.596400  0.326400  0.315500  1.0
  H  H40  1  0.596400  0.989100  0.673600  1.0
  H  H41  1  0.096400  0.010900  0.326400  1.0
  H  H42  1  0.096400  0.673600  0.684500  1.0
  H  H43  1  0.657900  0.718900  0.123200  1.0
  H  H44  1  0.157900  0.281100  0.876800  1.0
  H  H45  1  0.657900  0.404300  0.281100  1.0
  H  H46  1  0.657900  0.876800  0.595700  1.0
  H  H47  1  0.157900  0.123200  0.404300  1.0
  H  H48  1  0.157900  0.595700  0.718900  1.0
  H  H49  1  0.666667  0.267700  0.749000  1.0
  H  H50  1  0.166667  0.732300  0.251000  1.0
  H  H51  1  0.666667  0.481300  0.732300  1.0
  H  H52  1  0.666667  0.251000  0.518700  1.0
  H  H53  1  0.166667  0.749000  0.481300  1.0
  H  H54  1  0.166667  0.518700  0.267700  1.0
  H  H55  1  0.668900  0.169500  0.717000  1.0
  H  H56  1  0.168900  0.830500  0.283000  1.0
  H  H57  1  0.668900  0.547500  0.830500  1.0
  H  H58  1  0.668900  0.283000  0.452500  1.0
  H  H59  1  0.168900  0.717000  0.547500  1.0
  H  H60  1  0.168900  0.452500  0.169500  1.0
  H  H61  1  0.639000  0.087900  0.737700  1.0
  H  H62  1  0.139000  0.912100  0.262300  1.0
  H  H63  1  0.639000  0.649800  0.912100  1.0
  H  H64  1  0.639000  0.262300  0.350200  1.0
  H  H65  1  0.139000  0.737700  0.649800  1.0
  H  H66  1  0.139000  0.350200  0.087900  1.0
  H  H67  1  0.626400  0.055100  0.800200  1.0
  H  H68  1  0.126400  0.944900  0.199800  1.0
  H  H69  1  0.626400  0.745100  0.944900  1.0
  H  H70  1  0.626400  0.199800  0.254900  1.0
  H  H71  1  0.126400  0.800200  0.745100  1.0
  H  H72  1  0.126400  0.254900  0.055100  1.0
  H  H73  1  0.614100  0.074000  0.902000  1.0
  H  H74  1  0.114100  0.926000  0.098000  1.0
  H  H75  1  0.614100  0.828000  0.926000  1.0
  H  H76  1  0.614100  0.098000  0.172000  1.0
  H  H77  1  0.114100  0.902000  0.828000  1.0
  H  H78  1  0.114100  0.172000  0.074000  1.0
  H  H79  1  0.614900  0.137800  0.002200  1.0
  H  H80  1  0.114900  0.862200  0.997800  1.0
  H  H81  1  0.614900  0.864400  0.862200  1.0
  H  H82  1  0.614900  0.997800  0.135600  1.0
  H  H83  1  0.114900  0.002200  0.864400  1.0
  H  H84  1  0.114900  0.135600  0.137800  1.0
  H  H85  1  0.665100  0.024900  0.297500  1.0
  H  H86  1  0.165100  0.975100  0.702500  1.0
  H  H87  1  0.665100  0.272600  0.975100  1.0
  H  H88  1  0.665100  0.702500  0.727400  1.0
  H  H89  1  0.165100  0.297500  0.272600  1.0
  H  H90  1  0.165100  0.727400  0.024900  1.0
  H  H91  1  0.663700  0.305300  0.917000  1.0
  H  H92  1  0.163700  0.694700  0.083000  1.0
  H  H93  1  0.663700  0.611700  0.694700  1.0
  H  H94  1  0.663700  0.083000  0.388300  1.0
  H  H95  1  0.163700  0.917000  0.611700  1.0
  H  H96  1  0.163700  0.388300  0.305300  1.0
  H  H97  1  0.363500  0.448400  0.881000  1.0
  H  H98  1  0.863500  0.551600  0.119000  1.0
  H  H99  1  0.363500  0.432600  0.551600  1.0
  H  H100  1  0.363500  0.119000  0.567400  1.0
  H  H101  1  0.863500  0.881000  0.432600  1.0
  H  H102  1  0.863500  0.567400  0.448400  1.0
  H  H103  1  0.464200  0.483900  0.908900  1.0
  H  H104  1  0.964200  0.516100  0.091100  1.0
  H  H105  1  0.464200  0.425000  0.516100  1.0
  H  H106  1  0.464200  0.091100  0.575000  1.0
  H  H107  1  0.964200  0.908900  0.425000  1.0
  H  H108  1  0.964200  0.575000  0.483900  1.0
  H  H109  1  0.426400  0.478700  0.814600  1.0
  H  H110  1  0.926400  0.521300  0.185400  1.0
  H  H111  1  0.426400  0.335900  0.521300  1.0
  H  H112  1  0.426400  0.185400  0.664100  1.0
  H  H113  1  0.926400  0.814600  0.335900  1.0
  H  H114  1  0.926400  0.664100  0.478700  1.0
  H  H115  1  0.437500  0.409100  0.783200  1.0
  H  H116  1  0.937500  0.590900  0.216800  1.0
  H  H117  1  0.437500  0.374100  0.590900  1.0
  H  H118  1  0.437500  0.216800  0.625900  1.0
  H  H119  1  0.937500  0.783200  0.374100  1.0
  H  H120  1  0.937500  0.625900  0.409100  1.0
  H  H121  1  0.530900  0.450200  0.813000  1.0
  H  H122  1  0.030900  0.549800  0.187000  1.0
  H  H123  1  0.530900  0.362800  0.549800  1.0
  H  H124  1  0.530900  0.187000  0.637200  1.0
  H  H125  1  0.030900  0.813000  0.362800  1.0
  H  H126  1  0.030900  0.637200  0.450200  1.0
  H  H127  1  0.463500  0.310100  0.768800  1.0
  H  H128  1  0.963500  0.689900  0.231200  1.0
  H  H129  1  0.463500  0.458700  0.689900  1.0
  H  H130  1  0.463500  0.231200  0.541300  1.0
  H  H131  1  0.963500  0.768800  0.458700  1.0
  H  H132  1  0.963500  0.541300  0.310100  1.0
  H  H133  1  0.461800  0.283100  0.811000  1.0
  H  H134  1  0.961800  0.716900  0.189000  1.0
  H  H135  1  0.461800  0.527900  0.716900  1.0
  H  H136  1  0.461800  0.189000  0.472100  1.0
  H  H137  1  0.961800  0.811000  0.527900  1.0
  H  H138  1  0.961800  0.472100  0.283100  1.0
  H  H139  1  0.305300  0.278500  0.771600  1.0
  H  H140  1  0.805300  0.721500  0.228400  1.0
  H  H141  1  0.305300  0.493100  0.721500  1.0
  H  H142  1  0.305300  0.228400  0.506900  1.0
  H  H143  1  0.805300  0.771600  0.493100  1.0
  H  H144  1  0.805300  0.506900  0.278500  1.0
  H  H145  1  0.303600  0.348100  0.801000  1.0
  H  H146  1  0.803600  0.651900  0.199000  1.0
  H  H147  1  0.303600  0.452900  0.651900  1.0
  H  H148  1  0.303600  0.199000  0.547100  1.0
  H  H149  1  0.803600  0.801000  0.452900  1.0
  H  H150  1  0.803600  0.547100  0.348100  1.0
  H  H151  1  0.302000  0.318600  0.841200  1.0
  H  H152  1  0.802000  0.681400  0.158800  1.0
  H  H153  1  0.302000  0.522600  0.681400  1.0
  H  H154  1  0.302000  0.158800  0.477400  1.0
  H  H155  1  0.802000  0.841200  0.522600  1.0
  H  H156  1  0.802000  0.477400  0.318600  1.0
  H  H157  1  0.362000  0.381200  0.923500  1.0
  H  H158  1  0.862000  0.618800  0.076500  1.0
  H  H159  1  0.362000  0.542300  0.618800  1.0
  H  H160  1  0.362000  0.076500  0.457700  1.0
  H  H161  1  0.862000  0.923500  0.542300  1.0
  H  H162  1  0.862000  0.457700  0.381200  1.0
  H  H163  1  0.445500  0.335900  0.918200  1.0
  H  H164  1  0.945500  0.664100  0.081800  1.0
  H  H165  1  0.445500  0.582300  0.664100  1.0
  H  H166  1  0.445500  0.081800  0.417700  1.0
  H  H167  1  0.945500  0.918200  0.582300  1.0
  H  H168  1  0.945500  0.417700  0.335900  1.0
  H  H169  1  0.445400  0.418400  0.015000  1.0
  H  H170  1  0.945400  0.581600  0.985000  1.0
  H  H171  1  0.445400  0.596600  0.581600  1.0
  H  H172  1  0.445400  0.985000  0.403400  1.0
  H  H173  1  0.945400  0.015000  0.596600  1.0
  H  H174  1  0.945400  0.403400  0.418400  1.0
  H  H175  1  0.464300  0.461100  0.989400  1.0
  H  H176  1  0.964300  0.538900  0.010600  1.0
  H  H177  1  0.464300  0.528300  0.538900  1.0
  H  H178  1  0.464300  0.010600  0.471700  1.0
  H  H179  1  0.964300  0.989400  0.528300  1.0
  H  H180  1  0.964300  0.471700  0.461100  1.0
  H  H181  1  0.547700  0.416000  0.984000  1.0
  H  H182  1  0.047700  0.584000  0.016000  1.0
  H  H183  1  0.547700  0.568000  0.584000  1.0
  H  H184  1  0.547700  0.016000  0.432000  1.0
  H  H185  1  0.047700  0.984000  0.568000  1.0
  H  H186  1  0.047700  0.432000  0.416000  1.0
  H  H187  1  0.849100  0.484700  0.880000  1.0
  H  H188  1  0.349100  0.515300  0.120000  1.0
  H  H189  1  0.849100  0.395300  0.515300  1.0
  H  H190  1  0.849100  0.120000  0.604700  1.0
  H  H191  1  0.349100  0.880000  0.395300  1.0
  H  H192  1  0.349100  0.604700  0.484700  1.0
  H  H193  1  0.951200  0.449000  0.855400  1.0
  H  H194  1  0.451200  0.551000  0.144600  1.0
  H  H195  1  0.951200  0.406400  0.551000  1.0
  H  H196  1  0.951200  0.144600  0.593600  1.0
  H  H197  1  0.451200  0.855400  0.406400  1.0
  H  H198  1  0.451200  0.593600  0.449000  1.0
  H  H199  1  0.858900  0.443300  0.771900  1.0
  H  H200  1  0.358900  0.556700  0.228100  1.0
  H  H201  1  0.858900  0.328600  0.556700  1.0
  H  H202  1  0.858900  0.228100  0.671400  1.0
  H  H203  1  0.358900  0.771900  0.328600  1.0
  H  H204  1  0.358900  0.671400  0.443300  1.0
  H  H205  1  0.766800  0.416400  0.788100  1.0
  H  H206  1  0.266800  0.583600  0.211900  1.0
  H  H207  1  0.766800  0.371700  0.583600  1.0
  H  H208  1  0.766800  0.211900  0.628300  1.0
  H  H209  1  0.266800  0.788100  0.371700  1.0
  H  H210  1  0.266800  0.628300  0.416400  1.0
  H  H211  1  0.865800  0.379200  0.763900  1.0
  H  H212  1  0.365800  0.620800  0.236100  1.0
  H  H213  1  0.865800  0.384700  0.620800  1.0
  H  H214  1  0.865800  0.236100  0.615300  1.0
  H  H215  1  0.365800  0.763900  0.384700  1.0
  H  H216  1  0.365800  0.615300  0.379200  1.0
  H  H217  1  0.883400  0.288600  0.820700  1.0
  H  H218  1  0.383400  0.711400  0.179300  1.0
  H  H219  1  0.883400  0.532100  0.711400  1.0
  H  H220  1  0.883400  0.179300  0.467900  1.0
  H  H221  1  0.383400  0.820700  0.532100  1.0
  H  H222  1  0.383400  0.467900  0.288600  1.0
  H  H223  1  0.866000  0.307400  0.772500  1.0
  H  H224  1  0.366000  0.692600  0.227500  1.0
  H  H225  1  0.866000  0.465100  0.692600  1.0
  H  H226  1  0.866000  0.227500  0.534900  1.0
  H  H227  1  0.366000  0.772500  0.465100  1.0
  H  H228  1  0.366000  0.534900  0.307400  1.0
  H  H229  1  0.028800  0.288300  0.776900  1.0
  H  H230  1  0.528800  0.711700  0.223100  1.0
  H  H231  1  0.028800  0.488600  0.711700  1.0
  H  H232  1  0.028800  0.223100  0.511400  1.0
  H  H233  1  0.528800  0.776900  0.488600  1.0
  H  H234  1  0.528800  0.511400  0.288300  1.0
  H  H235  1  0.032200  0.336900  0.844800  1.0
  H  H236  1  0.532200  0.663100  0.155200  1.0
  H  H237  1  0.032200  0.507900  0.663100  1.0
  H  H238  1  0.032200  0.155200  0.492100  1.0
  H  H239  1  0.532200  0.844800  0.507900  1.0
  H  H240  1  0.532200  0.492100  0.336900  1.0
  H  H241  1  0.014700  0.355900  0.796700  1.0
  H  H242  1  0.514700  0.644100  0.203300  1.0
  H  H243  1  0.014700  0.440800  0.644100  1.0
  H  H244  1  0.014700  0.203300  0.559200  1.0
  H  H245  1  0.514700  0.796700  0.440800  1.0
  H  H246  1  0.514700  0.559200  0.355900  1.0
  H  H247  1  0.963300  0.417900  0.935800  1.0
  H  H248  1  0.463300  0.582100  0.064200  1.0
  H  H249  1  0.963300  0.517900  0.582100  1.0
  H  H250  1  0.963300  0.064200  0.482100  1.0
  H  H251  1  0.463300  0.935800  0.517900  1.0
  H  H252  1  0.463300  0.482100  0.417900  1.0
  H  H253  1  0.867800  0.457200  0.966600  1.0
  H  H254  1  0.367800  0.542800  0.033400  1.0
  H  H255  1  0.867800  0.509400  0.542800  1.0
  H  H256  1  0.867800  0.033400  0.490600  1.0
  H  H257  1  0.367800  0.966600  0.509400  1.0
  H  H258  1  0.367800  0.490600  0.457200  1.0
  H  H259  1  0.893000  0.391200  0.001000  1.0
  H  H260  1  0.393000  0.608800  0.999000  1.0
  H  H261  1  0.893000  0.609800  0.608800  1.0
  H  H262  1  0.893000  0.999000  0.390200  1.0
  H  H263  1  0.393000  0.001000  0.609800  1.0
  H  H264  1  0.393000  0.390200  0.391200  1.0
  H  H265  1  0.887100  0.337400  0.935500  1.0
  H  H266  1  0.387100  0.662600  0.064500  1.0
  H  H267  1  0.887100  0.598100  0.662600  1.0
  H  H268  1  0.887100  0.064500  0.401900  1.0
  H  H269  1  0.387100  0.935500  0.598100  1.0
  H  H270  1  0.387100  0.401900  0.337400  1.0
  H  H271  1  0.791600  0.376200  0.965600  1.0
  H  H272  1  0.291600  0.623800  0.034400  1.0
  H  H273  1  0.791600  0.589400  0.623800  1.0
  H  H274  1  0.791600  0.034400  0.410600  1.0
  H  H275  1  0.291600  0.965600  0.589400  1.0
  H  H276  1  0.291600  0.410600  0.376200  1.0
  H  H277  1  0.334700  0.950200  0.177600  1.0
  H  H278  1  0.834700  0.049800  0.822400  1.0
  H  H279  1  0.334700  0.227400  0.049800  1.0
  H  H280  1  0.334700  0.822400  0.772600  1.0
  H  H281  1  0.834700  0.177600  0.227400  1.0
  H  H282  1  0.834700  0.772600  0.950200  1.0
  H  H283  1  0.428400  0.984300  0.172900  1.0
  H  H284  1  0.928400  0.015700  0.827100  1.0
  H  H285  1  0.428400  0.188600  0.015700  1.0
  H  H286  1  0.428400  0.827100  0.811400  1.0
  H  H287  1  0.928400  0.172900  0.188600  1.0
  H  H288  1  0.928400  0.811400  0.984300  1.0
  H  H289  1  0.369800  0.919100  0.081400  1.0
  H  H290  1  0.869800  0.080900  0.918600  1.0
  H  H291  1  0.369800  0.162300  0.080900  1.0
  H  H292  1  0.369800  0.918600  0.837700  1.0
  H  H293  1  0.869800  0.081400  0.162300  1.0
  H  H294  1  0.869800  0.837700  0.919100  1.0
  H  H295  1  0.384500  0.866500  0.094300  1.0
  H  H296  1  0.884500  0.133500  0.905700  1.0
  H  H297  1  0.384500  0.227800  0.133500  1.0
  H  H298  1  0.384500  0.905700  0.772200  1.0
  H  H299  1  0.884500  0.094300  0.227800  1.0
  H  H300  1  0.884500  0.772200  0.866500  1.0
  H  H301  1  0.478100  0.900600  0.089500  1.0
  H  H302  1  0.978100  0.099400  0.910500  1.0
  H  H303  1  0.478100  0.188900  0.099400  1.0
  H  H304  1  0.478100  0.910500  0.811100  1.0
  H  H305  1  0.978100  0.089500  0.188900  1.0
  H  H306  1  0.978100  0.811100  0.900600  1.0
  H  H307  1  0.350200  0.852400  0.203000  1.0
  H  H308  1  0.850200  0.147600  0.797000  1.0
  H  H309  1  0.350200  0.350600  0.147600  1.0
  H  H310  1  0.350200  0.797000  0.649400  1.0
  H  H311  1  0.850200  0.203000  0.350600  1.0
  H  H312  1  0.850200  0.649400  0.852400  1.0
  H  H313  1  0.437300  0.815200  0.159900  1.0
  H  H314  1  0.937300  0.184800  0.840100  1.0
  H  H315  1  0.437300  0.344700  0.184800  1.0
  H  H316  1  0.437300  0.840100  0.655300  1.0
  H  H317  1  0.937300  0.159900  0.344700  1.0
  H  H318  1  0.937300  0.655300  0.815200  1.0
  H  H319  1  0.530500  0.835600  0.242100  1.0
  H  H320  1  0.030500  0.164400  0.757900  1.0
  H  H321  1  0.530500  0.406500  0.164400  1.0
  H  H322  1  0.530500  0.757900  0.593500  1.0
  H  H323  1  0.030500  0.242100  0.406500  1.0
  H  H324  1  0.030500  0.593500  0.835600  1.0
  H  H325  1  0.435800  0.795800  0.232300  1.0
  H  H326  1  0.935800  0.204200  0.767700  1.0
  H  H327  1  0.435800  0.436500  0.204200  1.0
  H  H328  1  0.435800  0.767700  0.563500  1.0
  H  H329  1  0.935800  0.232300  0.436500  1.0
  H  H330  1  0.935800  0.563500  0.795800  1.0
  H  H331  1  0.433900  0.863700  0.280600  1.0
  H  H332  1  0.933900  0.136300  0.719400  1.0
  H  H333  1  0.433900  0.416900  0.136300  1.0
  H  H334  1  0.433900  0.719400  0.583100  1.0
  H  H335  1  0.933900  0.280600  0.416900  1.0
  H  H336  1  0.933900  0.583100  0.863700  1.0
  H  H337  1  0.488700  0.967000  0.310700  1.0
  H  H338  1  0.988700  0.033000  0.689300  1.0
  H  H339  1  0.488700  0.343700  0.033000  1.0
  H  H340  1  0.488700  0.689300  0.656300  1.0
  H  H341  1  0.988700  0.310700  0.343700  1.0
  H  H342  1  0.988700  0.656300  0.967000  1.0
  H  H343  1  0.469600  0.015100  0.292100  1.0
  H  H344  1  0.969600  0.984900  0.707900  1.0
  H  H345  1  0.469600  0.277000  0.984900  1.0
  H  H346  1  0.469600  0.707900  0.723000  1.0
  H  H347  1  0.969600  0.292100  0.277000  1.0
  H  H348  1  0.969600  0.723000  0.015100  1.0
  H  H349  1  0.304300  0.996000  0.282800  1.0
  H  H350  1  0.804300  0.004000  0.717200  1.0
  H  H351  1  0.304300  0.286800  0.004000  1.0
  H  H352  1  0.304300  0.717200  0.713200  1.0
  H  H353  1  0.804300  0.282800  0.286800  1.0
  H  H354  1  0.804300  0.713200  0.996000  1.0
  H  H355  1  0.337900  0.005800  0.345200  1.0
  H  H356  1  0.837900  0.994200  0.654800  1.0
  H  H357  1  0.337900  0.339400  0.994200  1.0
  H  H358  1  0.337900  0.654800  0.660600  1.0
  H  H359  1  0.837900  0.345200  0.339400  1.0
  H  H360  1  0.837900  0.660600  0.005800  1.0
  H  H361  1  0.319200  0.941000  0.292000  1.0
  H  H362  1  0.819200  0.059000  0.708000  1.0
  H  H363  1  0.319200  0.351000  0.059000  1.0
  H  H364  1  0.319200  0.708000  0.649000  1.0
  H  H365  1  0.819200  0.292000  0.351000  1.0
  H  H366  1  0.819200  0.649000  0.941000  1.0
  H  H367  1  0.792900  0.966800  0.103400  1.0
  H  H368  1  0.292900  0.033200  0.896600  1.0
  H  H369  1  0.792900  0.136600  0.033200  1.0
  H  H370  1  0.792900  0.896600  0.863400  1.0
  H  H371  1  0.292900  0.103400  0.136600  1.0
  H  H372  1  0.292900  0.863400  0.966800  1.0
  H  H373  1  0.871500  0.915500  0.071000  1.0
  H  H374  1  0.371500  0.084500  0.929000  1.0
  H  H375  1  0.871500  0.155500  0.084500  1.0
  H  H376  1  0.871500  0.929000  0.844500  1.0
  H  H377  1  0.371500  0.071000  0.155500  1.0
  H  H378  1  0.371500  0.844500  0.915500  1.0
  H  H379  1  0.735500  0.848300  0.026700  1.0
  H  H380  1  0.235500  0.151700  0.973300  1.0
  H  H381  1  0.735500  0.178400  0.151700  1.0
  H  H382  1  0.735500  0.973300  0.821600  1.0
  H  H383  1  0.235500  0.026700  0.178400  1.0
  H  H384  1  0.235500  0.821600  0.848300  1.0
  H  H385  1  0.744000  0.895500  0.005800  1.0
  H  H386  1  0.244000  0.104500  0.994200  1.0
  H  H387  1  0.744000  0.110300  0.104500  1.0
  H  H388  1  0.744000  0.994200  0.889700  1.0
  H  H389  1  0.244000  0.005800  0.110300  1.0
  H  H390  1  0.244000  0.889700  0.895500  1.0
  H  H391  1  0.663700  0.903600  0.053500  1.0
  H  H392  1  0.163700  0.096400  0.946500  1.0
  H  H393  1  0.663700  0.149900  0.096400  1.0
  H  H394  1  0.663700  0.946500  0.850100  1.0
  H  H395  1  0.163700  0.053500  0.149900  1.0
  H  H396  1  0.163700  0.850100  0.903600  1.0
  H  H397  1  0.821400  0.810700  0.082000  1.0
  H  H398  1  0.321400  0.189300  0.918000  1.0
  H  H399  1  0.821400  0.271300  0.189300  1.0
  H  H400  1  0.821400  0.918000  0.728700  1.0
  H  H401  1  0.321400  0.082000  0.271300  1.0
  H  H402  1  0.321400  0.728700  0.810700  1.0
  H  H403  1  0.924900  0.843800  0.099800  1.0
  H  H404  1  0.424900  0.156200  0.900200  1.0
  H  H405  1  0.924900  0.256000  0.156200  1.0
  H  H406  1  0.924900  0.900200  0.744000  1.0
  H  H407  1  0.424900  0.099800  0.256000  1.0
  H  H408  1  0.424900  0.744000  0.843800  1.0
  H  H409  1  0.915700  0.845900  0.191400  1.0
  H  H410  1  0.415700  0.154100  0.808600  1.0
  H  H411  1  0.915700  0.345500  0.154100  1.0
  H  H412  1  0.915700  0.808600  0.654500  1.0
  H  H413  1  0.415700  0.191400  0.345500  1.0
  H  H414  1  0.415700  0.654500  0.845900  1.0
  H  H415  1  0.917900  0.780500  0.137200  1.0
  H  H416  1  0.417900  0.219500  0.862800  1.0
  H  H417  1  0.917900  0.356700  0.219500  1.0
  H  H418  1  0.917900  0.862800  0.643300  1.0
  H  H419  1  0.417900  0.137200  0.356700  1.0
  H  H420  1  0.417900  0.643300  0.780500  1.0
  H  H421  1  0.816400  0.808700  0.169800  1.0
  H  H422  1  0.316400  0.191300  0.830200  1.0
  H  H423  1  0.816400  0.361100  0.191300  1.0
  H  H424  1  0.816400  0.830200  0.638900  1.0
  H  H425  1  0.316400  0.169800  0.361100  1.0
  H  H426  1  0.316400  0.638900  0.808700  1.0
  H  H427  1  0.949400  0.952500  0.182400  1.0
  H  H428  1  0.449400  0.047500  0.817600  1.0
  H  H429  1  0.949400  0.229900  0.047500  1.0
  H  H430  1  0.949400  0.817600  0.770100  1.0
  H  H431  1  0.449400  0.182400  0.229900  1.0
  H  H432  1  0.449400  0.770100  0.952500  1.0
  H  H433  1  0.865500  0.001100  0.204100  1.0
  H  H434  1  0.365500  0.998900  0.795900  1.0
  H  H435  1  0.865500  0.203000  0.998900  1.0
  H  H436  1  0.865500  0.795900  0.797000  1.0
  H  H437  1  0.365500  0.204100  0.203000  1.0
  H  H438  1  0.365500  0.797000  0.001100  1.0
  H  H439  1  0.820400  0.971600  0.273500  1.0
  H  H440  1  0.320400  0.028400  0.726500  1.0
  H  H441  1  0.820400  0.301900  0.028400  1.0
  H  H442  1  0.820400  0.726500  0.698100  1.0
  H  H443  1  0.320400  0.273500  0.301900  1.0
  H  H444  1  0.320400  0.698100  0.971600  1.0
  H  H445  1  0.923000  0.005300  0.285100  1.0
  H  H446  1  0.423000  0.994700  0.714900  1.0
  H  H447  1  0.923000  0.279800  0.994700  1.0
  H  H448  1  0.923000  0.714900  0.720200  1.0
  H  H449  1  0.423000  0.285100  0.279800  1.0
  H  H450  1  0.423000  0.720200  0.005300  1.0
  H  H451  1  0.921400  0.935800  0.256700  1.0
  H  H452  1  0.421400  0.064200  0.743300  1.0
  H  H453  1  0.921400  0.320900  0.064200  1.0
  H  H454  1  0.921400  0.743300  0.679100  1.0
  H  H455  1  0.421400  0.256700  0.320900  1.0
  H  H456  1  0.421400  0.679100  0.935800  1.0
  Pt  Pt457  1  0.662690  0.384268  0.866607  1.0
  Pt  Pt458  1  0.162690  0.615732  0.133393  1.0
  Pt  Pt459  1  0.662690  0.482339  0.615732  1.0
  Pt  Pt460  1  0.662690  0.133393  0.517661  1.0
  Pt  Pt461  1  0.162690  0.866607  0.482339  1.0
  Pt  Pt462  1  0.162690  0.517661  0.384268  1.0
  Pt  Pt463  1  0.640500  0.913182  0.181961  1.0
  Pt  Pt464  1  0.140500  0.086818  0.818039  1.0
  Pt  Pt465  1  0.640500  0.268779  0.086818  1.0
  Pt  Pt466  1  0.640500  0.818039  0.731221  1.0
  Pt  Pt467  1  0.140500  0.181961  0.268779  1.0
  Pt  Pt468  1  0.140500  0.731221  0.913182  1.0
  C  C469  1  0.664300  0.510400  0.952700  1.0
  C  C470  1  0.164300  0.489600  0.047300  1.0
  C  C471  1  0.664300  0.442300  0.489600  1.0
  C  C472  1  0.664300  0.047300  0.557700  1.0
  C  C473  1  0.164300  0.952700  0.442300  1.0
  C  C474  1  0.164300  0.557700  0.510400  1.0
  C  C475  1  0.632700  0.571800  0.970100  1.0
  C  C476  1  0.132700  0.428200  0.029900  1.0
  C  C477  1  0.632700  0.398300  0.428200  1.0
  C  C478  1  0.632700  0.029900  0.601700  1.0
  C  C479  1  0.132700  0.970100  0.398300  1.0
  C  C480  1  0.132700  0.601700  0.571800  1.0
  C  C481  1  0.646600  0.614400  0.021800  1.0
  C  C482  1  0.146600  0.385600  0.978200  1.0
  C  C483  1  0.646600  0.407400  0.385600  1.0
  C  C484  1  0.646600  0.978200  0.592600  1.0
  C  C485  1  0.146600  0.021800  0.407400  1.0
  C  C486  1  0.146600  0.592600  0.614400  1.0
  C  C487  1  0.624200  0.677800  0.040000  1.0
  C  C488  1  0.124200  0.322200  0.960000  1.0
  C  C489  1  0.624200  0.362200  0.322200  1.0
  C  C490  1  0.624200  0.960000  0.637800  1.0
  C  C491  1  0.124200  0.040000  0.362200  1.0
  C  C492  1  0.124200  0.637800  0.677800  1.0
  C  C493  1  0.639100  0.724400  0.091700  1.0
  C  C494  1  0.139100  0.275600  0.908300  1.0
  C  C495  1  0.639100  0.367300  0.275600  1.0
  C  C496  1  0.639100  0.908300  0.632700  1.0
  C  C497  1  0.139100  0.091700  0.367300  1.0
  C  C498  1  0.139100  0.632700  0.724400  1.0
  C  C499  1  0.628000  0.784500  0.102700  1.0
  C  C500  1  0.128000  0.215500  0.897300  1.0
  C  C501  1  0.628000  0.318200  0.215500  1.0
  C  C502  1  0.628000  0.897300  0.681800  1.0
  C  C503  1  0.128000  0.102700  0.318200  1.0
  C  C504  1  0.128000  0.681800  0.784500  1.0
  C  C505  1  0.664000  0.298400  0.837100  1.0
  C  C506  1  0.164000  0.701600  0.162900  1.0
  C  C507  1  0.664000  0.538700  0.701600  1.0
  C  C508  1  0.664000  0.162900  0.461300  1.0
  C  C509  1  0.164000  0.837100  0.538700  1.0
  C  C510  1  0.164000  0.461300  0.298400  1.0
  C  C511  1  0.664800  0.255200  0.777000  1.0
  C  C512  1  0.164800  0.744800  0.223000  1.0
  C  C513  1  0.664800  0.521800  0.744800  1.0
  C  C514  1  0.664800  0.223000  0.478200  1.0
  C  C515  1  0.164800  0.777000  0.521800  1.0
  C  C516  1  0.164800  0.478200  0.255200  1.0
  C  C517  1  0.662900  0.196600  0.757500  1.0
  C  C518  1  0.162900  0.803400  0.242500  1.0
  C  C519  1  0.662900  0.560900  0.803400  1.0
  C  C520  1  0.662900  0.242500  0.439100  1.0
  C  C521  1  0.162900  0.757500  0.560900  1.0
  C  C522  1  0.162900  0.439100  0.196600  1.0
  C  C523  1  0.652100  0.176200  0.797400  1.0
  C  C524  1  0.152100  0.823800  0.202600  1.0
  C  C525  1  0.652100  0.621200  0.823800  1.0
  C  C526  1  0.652100  0.202600  0.378800  1.0
  C  C527  1  0.152100  0.797400  0.621200  1.0
  C  C528  1  0.152100  0.378800  0.176200  1.0
  C  C529  1  0.640900  0.115100  0.778300  1.0
  C  C530  1  0.140900  0.884900  0.221700  1.0
  C  C531  1  0.640900  0.663200  0.884900  1.0
  C  C532  1  0.640900  0.221700  0.336800  1.0
  C  C533  1  0.140900  0.778300  0.663200  1.0
  C  C534  1  0.140900  0.336800  0.115100  1.0
  C  C535  1  0.633300  0.095800  0.814700  1.0
  C  C536  1  0.133300  0.904200  0.185300  1.0
  C  C537  1  0.633300  0.718900  0.904200  1.0
  C  C538  1  0.633300  0.185300  0.281100  1.0
  C  C539  1  0.133300  0.814700  0.718900  1.0
  C  C540  1  0.133300  0.281100  0.095800  1.0
  C  C541  1  0.635300  0.135300  0.876500  1.0
  C  C542  1  0.135300  0.864700  0.123500  1.0
  C  C543  1  0.635300  0.741200  0.864700  1.0
  C  C544  1  0.635300  0.123500  0.258800  1.0
  C  C545  1  0.135300  0.876500  0.741200  1.0
  C  C546  1  0.135300  0.258800  0.135300  1.0
  C  C547  1  0.623200  0.114600  0.916500  1.0
  C  C548  1  0.123200  0.885400  0.083500  1.0
  C  C549  1  0.623200  0.801900  0.885400  1.0
  C  C550  1  0.623200  0.083500  0.198100  1.0
  C  C551  1  0.123200  0.916500  0.801900  1.0
  C  C552  1  0.123200  0.198100  0.114600  1.0
  C  C553  1  0.624500  0.152600  0.976400  1.0
  C  C554  1  0.124500  0.847400  0.023600  1.0
  C  C555  1  0.624500  0.823800  0.847400  1.0
  C  C556  1  0.624500  0.023600  0.176200  1.0
  C  C557  1  0.124500  0.976400  0.823800  1.0
  C  C558  1  0.124500  0.176200  0.152600  1.0
  C  C559  1  0.640100  0.000100  0.214100  1.0
  C  C560  1  0.140100  0.999900  0.785900  1.0
  C  C561  1  0.640100  0.214000  0.999900  1.0
  C  C562  1  0.640100  0.785900  0.786000  1.0
  C  C563  1  0.140100  0.214100  0.214000  1.0
  C  C564  1  0.140100  0.786000  0.000100  1.0
  C  C565  1  0.652500  0.039600  0.271900  1.0
  C  C566  1  0.152500  0.960400  0.728100  1.0
  C  C567  1  0.652500  0.232300  0.960400  1.0
  C  C568  1  0.652500  0.728100  0.767700  1.0
  C  C569  1  0.152500  0.271900  0.232300  1.0
  C  C570  1  0.152500  0.767700  0.039600  1.0
  C  C571  1  0.648100  0.195700  0.899400  1.0
  C  C572  1  0.148100  0.804300  0.100600  1.0
  C  C573  1  0.648100  0.703700  0.804300  1.0
  C  C574  1  0.648100  0.100600  0.296300  1.0
  C  C575  1  0.148100  0.899400  0.703700  1.0
  C  C576  1  0.148100  0.296300  0.195700  1.0
  C  C577  1  0.654700  0.217600  0.858600  1.0
  C  C578  1  0.154700  0.782400  0.141400  1.0
  C  C579  1  0.654700  0.641000  0.782400  1.0
  C  C580  1  0.654700  0.141400  0.359000  1.0
  C  C581  1  0.154700  0.858600  0.641000  1.0
  C  C582  1  0.154700  0.359000  0.217600  1.0
  C  C583  1  0.661200  0.277700  0.876300  1.0
  C  C584  1  0.161200  0.722300  0.123700  1.0
  C  C585  1  0.661200  0.598600  0.722300  1.0
  C  C586  1  0.661200  0.123700  0.401400  1.0
  C  C587  1  0.161200  0.876300  0.598600  1.0
  C  C588  1  0.161200  0.401400  0.277700  1.0
  C  C589  1  0.435000  0.448900  0.875100  1.0
  C  C590  1  0.935000  0.551100  0.124900  1.0
  C  C591  1  0.435000  0.426200  0.551100  1.0
  C  C592  1  0.435000  0.124900  0.573800  1.0
  C  C593  1  0.935000  0.875100  0.426200  1.0
  C  C594  1  0.935000  0.573800  0.448900  1.0
  C  C595  1  0.460000  0.446500  0.815900  1.0
  C  C596  1  0.960000  0.553500  0.184100  1.0
  C  C597  1  0.460000  0.369400  0.553500  1.0
  C  C598  1  0.460000  0.184100  0.630600  1.0
  C  C599  1  0.960000  0.815900  0.369400  1.0
  C  C600  1  0.960000  0.630600  0.446500  1.0
  C  C601  1  0.438900  0.316400  0.806800  1.0
  C  C602  1  0.938900  0.683600  0.193200  1.0
  C  C603  1  0.438900  0.490400  0.683600  1.0
  C  C604  1  0.438900  0.193200  0.509600  1.0
  C  C605  1  0.938900  0.806800  0.490400  1.0
  C  C606  1  0.938900  0.509600  0.316400  1.0
  C  C607  1  0.327600  0.315300  0.805000  1.0
  C  C608  1  0.827600  0.684700  0.195000  1.0
  C  C609  1  0.327600  0.489700  0.684700  1.0
  C  C610  1  0.327600  0.195000  0.510300  1.0
  C  C611  1  0.827600  0.805000  0.489700  1.0
  C  C612  1  0.827600  0.510300  0.315300  1.0
  C  C613  1  0.433800  0.375400  0.924000  1.0
  C  C614  1  0.933800  0.624600  0.076000  1.0
  C  C615  1  0.433800  0.548600  0.624600  1.0
  C  C616  1  0.433800  0.076000  0.451400  1.0
  C  C617  1  0.933800  0.924000  0.548600  1.0
  C  C618  1  0.933800  0.451400  0.375400  1.0
  C  C619  1  0.476700  0.422000  0.983600  1.0
  C  C620  1  0.976700  0.578000  0.016400  1.0
  C  C621  1  0.476700  0.561600  0.578000  1.0
  C  C622  1  0.476700  0.016400  0.438400  1.0
  C  C623  1  0.976700  0.983600  0.561600  1.0
  C  C624  1  0.976700  0.438400  0.422000  1.0
  C  C625  1  0.878600  0.446100  0.853400  1.0
  C  C626  1  0.378600  0.553900  0.146600  1.0
  C  C627  1  0.878600  0.407300  0.553900  1.0
  C  C628  1  0.878600  0.146600  0.592700  1.0
  C  C629  1  0.378600  0.853400  0.407300  1.0
  C  C630  1  0.378600  0.592700  0.446100  1.0
  C  C631  1  0.839000  0.418600  0.788000  1.0
  C  C632  1  0.339000  0.581400  0.212000  1.0
  C  C633  1  0.839000  0.369400  0.581400  1.0
  C  C634  1  0.839000  0.212000  0.630600  1.0
  C  C635  1  0.339000  0.788000  0.369400  1.0
  C  C636  1  0.339000  0.630600  0.418600  1.0
  C  C637  1  0.895700  0.319900  0.811200  1.0
  C  C638  1  0.395700  0.680100  0.188800  1.0
  C  C639  1  0.895700  0.491300  0.680100  1.0
  C  C640  1  0.895700  0.188800  0.508700  1.0
  C  C641  1  0.395700  0.811200  0.491300  1.0
  C  C642  1  0.395700  0.508700  0.319900  1.0
  C  C643  1  0.001500  0.325700  0.807000  1.0
  C  C644  1  0.501500  0.674300  0.193000  1.0
  C  C645  1  0.001500  0.481300  0.674300  1.0
  C  C646  1  0.001500  0.193000  0.518700  1.0
  C  C647  1  0.501500  0.807000  0.481300  1.0
  C  C648  1  0.501500  0.518700  0.325700  1.0
  C  C649  1  0.891000  0.416900  0.939400  1.0
  C  C650  1  0.391000  0.583100  0.060600  1.0
  C  C651  1  0.891000  0.522500  0.583100  1.0
  C  C652  1  0.891000  0.060600  0.477500  1.0
  C  C653  1  0.391000  0.939400  0.522500  1.0
  C  C654  1  0.391000  0.477500  0.416900  1.0
  C  C655  1  0.863000  0.376900  0.962300  1.0
  C  C656  1  0.363000  0.623100  0.037700  1.0
  C  C657  1  0.863000  0.585400  0.623100  1.0
  C  C658  1  0.863000  0.037700  0.414600  1.0
  C  C659  1  0.363000  0.962300  0.585400  1.0
  C  C660  1  0.363000  0.414600  0.376900  1.0
  C  C661  1  0.404000  0.945600  0.164700  1.0
  C  C662  1  0.904000  0.054400  0.835300  1.0
  C  C663  1  0.404000  0.219100  0.054400  1.0
  C  C664  1  0.404000  0.835300  0.780900  1.0
  C  C665  1  0.904000  0.164700  0.219100  1.0
  C  C666  1  0.904000  0.780900  0.945600  1.0
  C  C667  1  0.409600  0.904700  0.102500  1.0
  C  C668  1  0.909600  0.095300  0.897500  1.0
  C  C669  1  0.409600  0.197800  0.095300  1.0
  C  C670  1  0.409600  0.897500  0.802200  1.0
  C  C671  1  0.909600  0.102500  0.197800  1.0
  C  C672  1  0.909600  0.802200  0.904700  1.0
  C  C673  1  0.422500  0.848400  0.199400  1.0
  C  C674  1  0.922500  0.151600  0.800600  1.0
  C  C675  1  0.422500  0.351000  0.151600  1.0
  C  C676  1  0.422500  0.800600  0.649000  1.0
  C  C677  1  0.922500  0.199400  0.351000  1.0
  C  C678  1  0.922500  0.649000  0.848400  1.0
  C  C679  1  0.458000  0.834800  0.241900  1.0
  C  C680  1  0.958000  0.165200  0.758100  1.0
  C  C681  1  0.458000  0.407100  0.165200  1.0
  C  C682  1  0.458000  0.758100  0.592900  1.0
  C  C683  1  0.958000  0.241900  0.407100  1.0
  C  C684  1  0.958000  0.592900  0.834800  1.0
  C  C685  1  0.448600  0.976200  0.285000  1.0
  C  C686  1  0.948600  0.023800  0.715000  1.0
  C  C687  1  0.448600  0.308800  0.023800  1.0
  C  C688  1  0.448600  0.715000  0.691200  1.0
  C  C689  1  0.948600  0.285000  0.308800  1.0
  C  C690  1  0.948600  0.691200  0.976200  1.0
  C  C691  1  0.343400  0.980100  0.302800  1.0
  C  C692  1  0.843400  0.019900  0.697200  1.0
  C  C693  1  0.343400  0.322700  0.019900  1.0
  C  C694  1  0.343400  0.697200  0.677300  1.0
  C  C695  1  0.843400  0.302800  0.322700  1.0
  C  C696  1  0.843400  0.677300  0.980100  1.0
  C  C697  1  0.804400  0.924600  0.087800  1.0
  C  C698  1  0.304400  0.075400  0.912200  1.0
  C  C699  1  0.804400  0.163200  0.075400  1.0
  C  C700  1  0.804400  0.912200  0.836800  1.0
  C  C701  1  0.304400  0.087800  0.163200  1.0
  C  C702  1  0.304400  0.836800  0.924600  1.0
  C  C703  1  0.730300  0.889900  0.039100  1.0
  C  C704  1  0.230300  0.110100  0.960900  1.0
  C  C705  1  0.730300  0.149200  0.110100  1.0
  C  C706  1  0.730300  0.960900  0.850800  1.0
  C  C707  1  0.230300  0.039100  0.149200  1.0
  C  C708  1  0.230300  0.850800  0.889900  1.0
  C  C709  1  0.861000  0.839700  0.115400  1.0
  C  C710  1  0.361000  0.160300  0.884600  1.0
  C  C711  1  0.861000  0.275700  0.160300  1.0
  C  C712  1  0.861000  0.884600  0.724300  1.0
  C  C713  1  0.361000  0.115400  0.275700  1.0
  C  C714  1  0.361000  0.724300  0.839700  1.0
  C  C715  1  0.879400  0.816600  0.157100  1.0
  C  C716  1  0.379400  0.183400  0.842900  1.0
  C  C717  1  0.879400  0.340500  0.183400  1.0
  C  C718  1  0.879400  0.842900  0.659500  1.0
  C  C719  1  0.379400  0.157100  0.340500  1.0
  C  C720  1  0.379400  0.659500  0.816600  1.0
  C  C721  1  0.882800  0.962700  0.199800  1.0
  C  C722  1  0.382800  0.037300  0.800200  1.0
  C  C723  1  0.882800  0.237100  0.037300  1.0
  C  C724  1  0.882800  0.800200  0.762900  1.0
  C  C725  1  0.382800  0.199800  0.237100  1.0
  C  C726  1  0.382800  0.762900  0.962700  1.0
  C  C727  1  0.887300  0.969400  0.258700  1.0
  C  C728  1  0.387300  0.030600  0.741300  1.0
  C  C729  1  0.887300  0.289300  0.030600  1.0
  C  C730  1  0.887300  0.741300  0.710700  1.0
  C  C731  1  0.387300  0.258700  0.289300  1.0
  C  C732  1  0.387300  0.710700  0.969400  1.0
  O  O733  1  0.680100  0.402900  0.080300  1
  O  O734  1  0.180100  0.597100  0.919700  1
  O  O735  1  0.680100  0.677400  0.597100  1
  O  O736  1  0.680100  0.919700  0.322600  1
  O  O737  1  0.180100  0.080300  0.677400  1
  O  O738  1  0.180100  0.322600  0.402900  1
  O  O739  1  0.857000  0.453000  0.121700  1
  O  O740  1  0.357000  0.547000  0.878300  1
  O  O741  1  0.857000  0.668700  0.547000  1
  O  O742  1  0.857000  0.878300  0.331300  1
  O  O743  1  0.357000  0.121700  0.668700  1
  O  O744  1  0.357000  0.331300  0.453000  1
  O  O745  1  0.675000  0.520100  0.148300  1
  O  O746  1  0.175000  0.479900  0.851700  1
  O  O747  1  0.675000  0.628200  0.479900  1
  O  O748  1  0.675000  0.851700  0.371800  1
  O  O749  1  0.175000  0.148300  0.628200  1
  O  O750  1  0.175000  0.371800  0.520100  1
  O  O751  1  0.780000  0.666667  0.333333  1
  O  O752  1  0.280000  0.333333  0.666667  1
  O  O753  1  0.847000  0.000000  0.000000  1
  O  O754  1  0.347000  0.000000  0.000000  1
  O  O755  1  0.632000  0.000000  0.000000  1
  O  O756  1  0.132000  0.000000  0.000000  1
  O  O757  1  0.652800  0.475600  0.898300  1.0
  O  O758  1  0.152800  0.524400  0.101700  1.0
  O  O759  1  0.652800  0.422700  0.524400  1.0
  O  O760  1  0.652800  0.101700  0.577300  1.0
  O  O761  1  0.152800  0.898300  0.422700  1.0
  O  O762  1  0.152800  0.577300  0.475600  1.0
  O  O763  1  0.693700  0.499000  0.988500  1.0
  O  O764  1  0.193700  0.501000  0.011500  1.0
  O  O765  1  0.693700  0.489500  0.501000  1.0
  O  O766  1  0.693700  0.011500  0.510500  1.0
  O  O767  1  0.193700  0.988500  0.489500  1.0
  O  O768  1  0.193700  0.510500  0.499000  1.0
  O  O769  1  0.644800  0.823300  0.155600  1.0
  O  O770  1  0.144800  0.176700  0.844400  1.0
  O  O771  1  0.644800  0.332300  0.176700  1.0
  O  O772  1  0.644800  0.844400  0.667700  1.0
  O  O773  1  0.144800  0.155600  0.332300  1.0
  O  O774  1  0.144800  0.667700  0.823300  1.0
  O  O775  1  0.598000  0.793000  0.063200  1.0
  O  O776  1  0.098000  0.207000  0.936800  1.0
  O  O777  1  0.598000  0.270200  0.207000  1.0
  O  O778  1  0.598000  0.936800  0.729800  1.0
  O  O779  1  0.098000  0.063200  0.270200  1.0
  O  O780  1  0.098000  0.729800  0.793000  1.0
