# generated using pymatgen
data_P2H39PtC27NCl3O2
_symmetry_space_group_name_H-M   'P 1'
_cell_length_a   10.23700000
_cell_length_b   15.50790000
_cell_length_c   21.71840000
_cell_angle_alpha   110.76390000
_cell_angle_beta   92.45440000
_cell_angle_gamma   102.61230000
_symmetry_Int_Tables_number   1
_chemical_formula_structural   P2H39PtC27NCl3O2
_chemical_formula_sum   'P8 H156 Pt4 C108 N4 Cl12 O8'
_cell_volume   3118.72206354
_cell_formula_units_Z   4
loop_
 _symmetry_equiv_pos_site_id
 _symmetry_equiv_pos_as_xyz
  1  'x, y, z'
loop_
 _atom_site_type_symbol
 _atom_site_label
 _atom_site_symmetry_multiplicity
 _atom_site_fract_x
 _atom_site_fract_y
 _atom_site_fract_z
 _atom_site_occupancy
  P  P1  1  0.883500  0.280480  0.824020  1.0
  P  P2  1  0.116500  0.719520  0.175980  1.0
  P  P3  1  0.126400  0.081880  0.859380  1.0
  P  P4  1  0.873600  0.918120  0.140620  1.0
  P  P5  1  0.173900  0.297630  0.248760  1.0
  P  P6  1  0.826100  0.702370  0.751240  1.0
  P  P7  1  0.279700  0.123350  0.367520  1.0
  P  P8  1  0.720300  0.876650  0.632480  1.0
  H  H9  1  0.664700  0.530200  0.129800  1
  H  H10  1  0.335300  0.469800  0.870200  1
  H  H11  1  0.848900  0.565400  0.445400  1
  H  H12  1  0.151100  0.434600  0.554600  1
  H  H13  1  0.207700  0.121400  0.654900  1.0
  H  H14  1  0.792300  0.878600  0.345100  1.0
  H  H15  1  0.356300  0.111000  0.575100  1.0
  H  H16  1  0.643700  0.889000  0.424900  1.0
  H  H17  1  0.596900  0.364900  0.696100  1.0
  H  H18  1  0.403100  0.635100  0.303900  1.0
  H  H19  1  0.442400  0.375600  0.774200  1.0
  H  H20  1  0.557600  0.624400  0.225800  1.0
  H  H21  1  0.731300  0.138300  0.497500  1.0
  H  H22  1  0.268700  0.861700  0.502500  1.0
  H  H23  1  0.885400  0.137800  0.419300  1.0
  H  H24  1  0.114600  0.862200  0.580700  1.0
  H  H25  1  0.961200  0.422100  0.485200  1.0
  H  H26  1  0.038800  0.577900  0.514800  1.0
  H  H27  1  0.805100  0.424800  0.560400  1.0
  H  H28  1  0.194900  0.575200  0.439600  1.0
  H  H29  1  0.512200  0.301500  0.310700  1.0
  H  H30  1  0.487800  0.698500  0.689300  1.0
  H  H31  1  0.693200  0.288900  0.246900  1.0
  H  H32  1  0.306800  0.711100  0.753100  1.0
  H  H33  1  0.669800  0.162800  0.148300  1.0
  H  H34  1  0.330200  0.837200  0.851700  1.0
  H  H35  1  0.531400  0.009800  0.066900  1.0
  H  H36  1  0.468600  0.990200  0.933100  1.0
  H  H37  1  0.401800  0.854500  0.985500  1.0
  H  H38  1  0.598200  0.145500  0.014500  1.0
  H  H39  1  0.202900  0.735900  0.950800  1.0
  H  H40  1  0.797100  0.264100  0.049200  1.0
  H  H41  1  0.040300  0.730700  0.023400  1.0
  H  H42  1  0.959700  0.269300  0.976600  1.0
  H  H43  1  0.191400  0.014200  0.203500  1.0
  H  H44  1  0.808600  0.985800  0.796500  1.0
  H  H45  1  0.936600  0.384300  0.936900  1.0
  H  H46  1  0.063400  0.615700  0.063100  1.0
  H  H47  1  0.056300  0.409600  0.896700  1.0
  H  H48  1  0.943700  0.590400  0.103300  1.0
  H  H49  1  0.944100  0.499600  0.860400  1.0
  H  H50  1  0.055900  0.500400  0.139600  1.0
  H  H51  1  0.946100  0.533500  0.939200  1.0
  H  H52  1  0.053900  0.466500  0.060800  1.0
  H  H53  1  0.811800  0.465700  0.890800  1.0
  H  H54  1  0.188200  0.534300  0.109200  1.0
  H  H55  1  0.689200  0.257700  0.876000  1.0
  H  H56  1  0.310800  0.742300  0.124000  1.0
  H  H57  1  0.670600  0.314500  0.828900  1.0
  H  H58  1  0.329400  0.685500  0.171100  1.0
  H  H59  1  0.622300  0.173200  0.735800  1.0
  H  H60  1  0.377700  0.826800  0.264200  1.0
  H  H61  1  0.522000  0.162200  0.788600  1.0
  H  H62  1  0.478000  0.837800  0.211400  1.0
  H  H63  1  0.647900  0.115200  0.781200  1.0
  H  H64  1  0.352100  0.884800  0.218800  1.0
  H  H65  1  0.846600  0.356500  0.752400  1.0
  H  H66  1  0.153400  0.643500  0.247600  1.0
  H  H67  1  0.001200  0.353800  0.759300  1.0
  H  H68  1  0.998800  0.646200  0.240700  1.0
  H  H69  1  0.947100  0.197000  0.684100  1.0
  H  H70  1  0.052900  0.803000  0.315900  1.0
  H  H71  1  0.894800  0.263100  0.651500  1.0
  H  H72  1  0.105200  0.736900  0.348500  1.0
  H  H73  1  0.790500  0.196500  0.678600  1.0
  H  H74  1  0.209500  0.803500  0.321400  1.0
  H  H75  1  0.176000  0.933600  0.814500  1.0
  H  H76  1  0.824000  0.066400  0.185500  1.0
  H  H77  1  0.043000  0.933600  0.773600  1.0
  H  H78  1  0.957000  0.066400  0.226400  1.0
  H  H79  1  0.182900  0.021600  0.720600  1.0
  H  H80  1  0.817100  0.978400  0.279400  1.0
  H  H81  1  0.202800  0.916600  0.704300  1.0
  H  H82  1  0.797200  0.083400  0.295700  1.0
  H  H83  1  0.310800  0.006600  0.756800  1.0
  H  H84  1  0.689200  0.993400  0.243200  1.0
  H  H85  1  0.356500  0.112300  0.893500  1.0
  H  H86  1  0.643500  0.887700  0.106500  1.0
  H  H87  1  0.333500  0.164600  0.843800  1.0
  H  H88  1  0.666500  0.835400  0.156200  1.0
  H  H89  1  0.258200  0.280700  0.932600  1.0
  H  H90  1  0.741800  0.719300  0.067400  1.0
  H  H91  1  0.413200  0.282400  0.948200  1.0
  H  H92  1  0.586800  0.717600  0.051800  1.0
  H  H93  1  0.299900  0.231700  0.981500  1.0
  H  H94  1  0.700100  0.768300  0.018500  1.0
  H  H95  1  0.069800  0.102400  0.964900  1.0
  H  H96  1  0.930200  0.897600  0.035100  1.0
  H  H97  1  0.992200  0.999100  0.913600  1.0
  H  H98  1  0.007800  0.000900  0.086400  1.0
  H  H99  1  0.189700  0.945400  0.919600  1.0
  H  H100  1  0.810300  0.054600  0.080400  1.0
  H  H101  1  0.141800  0.985100  0.991300  1.0
  H  H102  1  0.858200  0.014900  0.008700  1.0
  H  H103  1  0.265900  0.048900  0.972000  1.0
  H  H104  1  0.734100  0.951100  0.028000  1.0
  H  H105  1  0.959400  0.213900  0.193500  1.0
  H  H106  1  0.040600  0.786100  0.806500  1.0
  H  H107  1  0.949800  0.287500  0.265400  1.0
  H  H108  1  0.050200  0.712500  0.734600  1.0
  H  H109  1  0.984000  0.413100  0.226400  1.0
  H  H110  1  0.016000  0.586900  0.773600  1.0
  H  H111  1  0.860600  0.328900  0.179600  1.0
  H  H112  1  0.139400  0.671100  0.820400  1.0
  H  H113  1  0.006200  0.343700  0.155100  1.0
  H  H114  1  0.993800  0.656300  0.844900  1.0
  H  H115  1  0.218400  0.462900  0.274400  1.0
  H  H116  1  0.781600  0.537100  0.725600  1.0
  H  H117  1  0.161200  0.438400  0.335200  1.0
  H  H118  1  0.838800  0.561600  0.664800  1.0
  H  H119  1  0.371000  0.423400  0.368300  1.0
  H  H120  1  0.629000  0.576600  0.631700  1.0
  H  H121  1  0.385800  0.525900  0.363900  1.0
  H  H122  1  0.614200  0.474100  0.636100  1.0
  H  H123  1  0.429000  0.443500  0.306100  1.0
  H  H124  1  0.571000  0.556500  0.693900  1.0
  H  H125  1  0.239300  0.348500  0.163400  1.0
  H  H126  1  0.760700  0.651500  0.836600  1.0
  H  H127  1  0.349400  0.301600  0.184300  1.0
  H  H128  1  0.650600  0.698400  0.815700  1.0
  H  H129  1  0.198900  0.147500  0.125600  1.0
  H  H130  1  0.801100  0.852500  0.874400  1.0
  H  H131  1  0.247900  0.203000  0.077800  1.0
  H  H132  1  0.752100  0.797000  0.922200  1.0
  H  H133  1  0.100400  0.198500  0.100100  1.0
  H  H134  1  0.899600  0.801500  0.899900  1.0
  H  H135  1  0.054000  0.041400  0.353600  1.0
  H  H136  1  0.946000  0.958600  0.646400  1.0
  H  H137  1  0.144700  0.967900  0.327100  1.0
  H  H138  1  0.855300  0.032100  0.672900  1.0
  H  H139  1  0.207900  0.983400  0.437800  1.0
  H  H140  1  0.792100  0.016600  0.562200  1.0
  H  H141  1  0.047500  0.947200  0.418200  1.0
  H  H142  1  0.952500  0.052800  0.581800  1.0
  H  H143  1  0.115000  0.056200  0.463900  1.0
  H  H144  1  0.885000  0.943800  0.536100  1.0
  H  H145  1  0.415400  0.034800  0.303900  1.0
  H  H146  1  0.584600  0.965200  0.696100  1.0
  H  H147  1  0.506500  0.130800  0.358600  1.0
  H  H148  1  0.493500  0.869200  0.641400  1.0
  H  H149  1  0.476600  0.060800  0.439800  1.0
  H  H150  1  0.523400  0.939200  0.560200  1.0
  H  H151  1  0.545700  0.000800  0.380000  1.0
  H  H152  1  0.454300  0.999200  0.620000  1.0
  H  H153  1  0.388700  0.964000  0.383900  1.0
  H  H154  1  0.611300  0.036000  0.616100  1.0
  H  H155  1  0.234000  0.221000  0.470500  1.0
  H  H156  1  0.766000  0.779000  0.529500  1.0
  H  H157  1  0.352100  0.173200  0.481500  1.0
  H  H158  1  0.647900  0.826800  0.518500  1.0
  H  H159  1  0.504100  0.282800  0.444600  1.0
  H  H160  1  0.495900  0.717200  0.555400  1.0
  H  H161  1  0.448800  0.335900  0.512000  1.0
  H  H162  1  0.551200  0.664100  0.488000  1.0
  H  H163  1  0.385700  0.334700  0.442900  1.0
  H  H164  1  0.614300  0.665300  0.557100  1.0
  Pt  Pt165  1  0.992480  0.168820  0.833680  1.0
  Pt  Pt166  1  0.007520  0.831180  0.166320  1.0
  Pt  Pt167  1  0.222200  0.200880  0.302528  1.0
  Pt  Pt168  1  0.777800  0.799120  0.697472  1.0
  C  C169  1  0.609700  0.465900  0.099700  1
  C  C170  1  0.390300  0.534100  0.900300  1
  C  C171  1  0.788000  0.532400  0.402400  1
  C  C172  1  0.212000  0.467600  0.597600  1
  C  C173  1  0.213300  0.257300  0.772700  1.0
  C  C174  1  0.786700  0.742700  0.227300  1.0
  C  C175  1  0.308200  0.249600  0.721300  1.0
  C  C176  1  0.691800  0.750400  0.278700  1.0
  C  C177  1  0.286000  0.172000  0.663200  1.0
  C  C178  1  0.714000  0.828000  0.336800  1.0
  C  C179  1  0.375300  0.164800  0.615600  1.0
  C  C180  1  0.624700  0.835200  0.384400  1.0
  C  C181  1  0.490800  0.236300  0.628100  1.0
  C  C182  1  0.509200  0.763700  0.371900  1.0
  C  C183  1  0.517000  0.315400  0.687200  1.0
  C  C184  1  0.483000  0.684600  0.312800  1.0
  C  C185  1  0.424700  0.321600  0.733800  1.0
  C  C186  1  0.575300  0.678400  0.266200  1.0
  C  C187  1  0.754400  0.283000  0.533200  1.0
  C  C188  1  0.245600  0.717000  0.466800  1.0
  C  C189  1  0.777700  0.196000  0.493800  1.0
  C  C190  1  0.222300  0.804000  0.506200  1.0
  C  C191  1  0.871300  0.196100  0.448700  1.0
  C  C192  1  0.128700  0.803900  0.551300  1.0
  C  C193  1  0.943300  0.282000  0.447300  1.0
  C  C194  1  0.056700  0.718000  0.552700  1.0
  C  C195  1  0.914400  0.363600  0.487700  1.0
  C  C196  1  0.085600  0.636400  0.512300  1.0
  C  C197  1  0.821000  0.366400  0.532100  1.0
  C  C198  1  0.179000  0.633600  0.467900  1.0
  C  C199  1  0.054500  0.288200  0.404500  1.0
  C  C200  1  0.945500  0.711800  0.595500  1.0
  C  C201  1  0.379100  0.179800  0.252000  1.0
  C  C202  1  0.620900  0.820200  0.748000  1.0
  C  C203  1  0.500900  0.247700  0.270600  1.0
  C  C204  1  0.499100  0.752300  0.729400  1.0
  C  C205  1  0.611100  0.240600  0.232000  1.0
  C  C206  1  0.388900  0.759400  0.768000  1.0
  C  C207  1  0.598200  0.165500  0.174800  1.0
  C  C208  1  0.401800  0.834500  0.825200  1.0
  C  C209  1  0.477400  0.089200  0.153400  1.0
  C  C210  1  0.522600  0.910800  0.846600  1.0
  C  C211  1  0.462000  0.010800  0.094600  1.0
  C  C212  1  0.538000  0.989200  0.905400  1.0
  C  C213  1  0.348800  0.933200  0.074500  1.0
  C  C214  1  0.651200  0.066800  0.925500  1.0
  C  C215  1  0.332500  0.856300  0.013300  1.0
  C  C216  1  0.667500  0.143700  0.986700  1.0
  C  C217  1  0.217400  0.784300  0.993900  1.0
  C  C218  1  0.782600  0.215700  0.006100  1.0
  C  C219  1  0.119300  0.781800  0.038000  1.0
  C  C220  1  0.880700  0.218200  0.962000  1.0
  C  C221  1  0.866400  0.149900  0.899200  1.0
  C  C222  1  0.133600  0.850100  0.100800  1.0
  C  C223  1  0.246100  0.932100  0.118300  1.0
  C  C224  1  0.753900  0.067900  0.881700  1.0
  C  C225  1  0.260200  0.013300  0.175400  1.0
  C  C226  1  0.739800  0.986700  0.824600  1.0
  C  C227  1  0.370400  0.094600  0.194300  1.0
  C  C228  1  0.629600  0.905400  0.805700  1.0
  C  C229  1  0.956900  0.394700  0.895600  1.0
  C  C230  1  0.043100  0.605300  0.104400  1.0
  C  C231  1  0.910700  0.480900  0.896600  1.0
  C  C232  1  0.089300  0.519100  0.103400  1.0
  C  C233  1  0.702200  0.259800  0.831600  1.0
  C  C234  1  0.297800  0.740200  0.168400  1.0
  C  C235  1  0.616100  0.169800  0.779800  1.0
  C  C236  1  0.383900  0.830200  0.220200  1.0
  C  C237  1  0.907400  0.315000  0.752800  1.0
  C  C238  1  0.092600  0.685000  0.247200  1.0
  C  C239  1  0.882800  0.236100  0.686000  1.0
  C  C240  1  0.117200  0.763900  0.314000  1.0
  C  C241  1  0.136200  0.970900  0.793600  1.0
  C  C242  1  0.863800  0.029100  0.206400  1.0
  C  C243  1  0.214900  0.979700  0.739200  1.0
  C  C244  1  0.785100  0.020300  0.260800  1.0
  C  C245  1  0.300700  0.150800  0.882400  1.0
  C  C246  1  0.699300  0.849200  0.117600  1.0
  C  C247  1  0.319700  0.244800  0.941500  1.0
  C  C248  1  0.680300  0.755200  0.058500  1.0
  C  C249  1  0.081200  0.045900  0.927900  1.0
  C  C250  1  0.918800  0.954100  0.072100  1.0
  C  C251  1  0.178300  0.002400  0.955100  1.0
  C  C252  1  0.821700  0.997600  0.044900  1.0
  C  C253  1  0.995700  0.280200  0.225300  1.0
  C  C254  1  0.004300  0.719800  0.774700  1.0
  C  C255  1  0.958200  0.347600  0.193700  1.0
  C  C256  1  0.041800  0.652400  0.806300  1.0
  C  C257  1  0.225300  0.425000  0.302200  1.0
  C  C258  1  0.774700  0.575000  0.697800  1.0
  C  C259  1  0.364600  0.457200  0.338200  1.0
  C  C260  1  0.635400  0.542800  0.661800  1.0
  C  C261  1  0.251200  0.293800  0.174600  1.0
  C  C262  1  0.748800  0.706200  0.825400  1.0
  C  C263  1  0.194500  0.202600  0.114100  1.0
  C  C264  1  0.805500  0.797400  0.885900  1.0
  C  C265  1  0.138600  0.025800  0.364400  1.0
  C  C266  1  0.861400  0.974200  0.635600  1.0
  C  C267  1  0.126100  0.000900  0.426700  1.0
  C  C268  1  0.873900  0.999100  0.573300  1.0
  C  C269  1  0.427800  0.076600  0.351500  1.0
  C  C270  1  0.572200  0.923400  0.648500  1.0
  C  C271  1  0.462900  0.020500  0.392500  1.0
  C  C272  1  0.537100  0.979500  0.607500  1.0
  C  C273  1  0.318200  0.205300  0.454400  1.0
  C  C274  1  0.681800  0.794700  0.545600  1.0
  C  C275  1  0.423800  0.298100  0.464400  1.0
  C  C276  1  0.576200  0.701900  0.535600  1.0
  N  N277  1  0.583700  0.218800  0.574800  1.0
  N  N278  1  0.416300  0.781200  0.425200  1.0
  N  N279  1  0.659100  0.292900  0.584400  1.0
  N  N280  1  0.340900  0.707100  0.415600  1.0
  Cl  Cl281  1  0.685000  0.431500  0.028150  1
  Cl  Cl282  1  0.315000  0.568500  0.971850  1
  Cl  Cl283  1  0.611200  0.387200  0.140800  1
  Cl  Cl284  1  0.388800  0.612800  0.859200  1
  Cl  Cl285  1  0.446400  0.474200  0.087400  1
  Cl  Cl286  1  0.553600  0.525800  0.912600  1
  Cl  Cl287  1  0.886100  0.473500  0.359300  1
  Cl  Cl288  1  0.113900  0.526500  0.640700  1
  Cl  Cl289  1  0.665000  0.475000  0.427800  1
  Cl  Cl290  1  0.335000  0.525000  0.572200  1
  Cl  Cl291  1  0.775000  0.629100  0.386400  1
  Cl  Cl292  1  0.225000  0.370900  0.613600  1
  O  O293  1  0.121000  0.180300  0.760800  1.0
  O  O294  1  0.879000  0.819700  0.239200  1.0
  O  O295  1  0.227100  0.331700  0.820900  1.0
  O  O296  1  0.772900  0.668300  0.179100  1.0
  O  O297  1  0.052800  0.211300  0.355700  1.0
  O  O298  1  0.947200  0.788700  0.644300  1.0
  O  O299  1  0.138200  0.364800  0.420600  1.0
  O  O300  1  0.861800  0.635200  0.579400  1.0
