# generated using pymatgen
data_P4H73Pt2C45Cl3O4
_symmetry_space_group_name_H-M   'P 1'
_cell_length_a   12.29300000
_cell_length_b   13.33460000
_cell_length_c   18.45680000
_cell_angle_alpha   83.69360000
_cell_angle_beta   82.69780000
_cell_angle_gamma   63.39600000
_symmetry_Int_Tables_number   1
_chemical_formula_structural   P4H73Pt2C45Cl3O4
_chemical_formula_sum   'P8 H146 Pt4 C90 Cl6 O8'
_cell_volume   2678.42896650
_cell_formula_units_Z   2
loop_
 _symmetry_equiv_pos_site_id
 _symmetry_equiv_pos_as_xyz
  1  'x, y, z'
loop_
 _atom_site_type_symbol
 _atom_site_label
 _atom_site_symmetry_multiplicity
 _atom_site_fract_x
 _atom_site_fract_y
 _atom_site_fract_z
 _atom_site_occupancy
  P  P1  1  0.644510  0.963960  0.804290  1.0
  P  P2  1  0.355490  0.036040  0.195710  1.0
  P  P3  1  0.929970  0.593230  0.809380  1.0
  P  P4  1  0.070030  0.406770  0.190620  1.0
  P  P5  1  0.245120  0.619030  0.368570  1.0
  P  P6  1  0.754880  0.380970  0.631430  1.0
  P  P7  1  0.567590  0.294220  0.294180  1.0
  P  P8  1  0.432410  0.705780  0.705820  1.0
  H  H9  1  0.871000  0.874500  0.049500  1
  H  H10  1  0.129000  0.125500  0.950500  1
  H  H11  1  0.738800  0.754500  0.083300  1.0
  H  H12  1  0.261200  0.245500  0.916700  1.0
  H  H13  1  0.606200  0.678200  0.012000  1.0
  H  H14  1  0.393800  0.321800  0.988000  1.0
  H  H15  1  0.621200  0.683500  0.166000  1.0
  H  H16  1  0.378800  0.316500  0.834000  1.0
  H  H17  1  0.480200  0.606800  0.104200  1.0
  H  H18  1  0.519800  0.393200  0.895800  1.0
  H  H19  1  0.446500  0.422000  0.482600  1.0
  H  H20  1  0.553500  0.578000  0.517400  1.0
  H  H21  1  0.395000  0.350100  0.595400  1.0
  H  H22  1  0.605000  0.649900  0.404600  1.0
  H  H23  1  0.274500  0.257200  0.603000  1.0
  H  H24  1  0.725500  0.742800  0.397000  1.0
  H  H25  1  0.167400  0.176900  0.541300  1.0
  H  H26  1  0.832600  0.823100  0.458700  1.0
  H  H27  1  0.049500  0.103200  0.485800  1.0
  H  H28  1  0.950500  0.896800  0.514200  1.0
  H  H29  1  0.977300  0.080200  0.382600  1.0
  H  H30  1  0.022700  0.919800  0.617400  1.0
  H  H31  1  0.047800  0.128800  0.266200  1.0
  H  H32  1  0.952200  0.871200  0.733800  1.0
  H  H33  1  0.286100  0.301100  0.312300  1.0
  H  H34  1  0.713900  0.698900  0.687700  1.0
  H  H35  1  0.600400  0.994200  0.682300  1.0
  H  H36  1  0.399600  0.005800  0.317700  1.0
  H  H37  1  0.508800  0.953800  0.731100  1.0
  H  H38  1  0.491200  0.046200  0.268900  1.0
  H  H39  1  0.397500  0.139300  0.773400  1.0
  H  H40  1  0.602500  0.860700  0.226600  1.0
  H  H41  1  0.396300  0.136000  0.687100  1.0
  H  H42  1  0.603700  0.864000  0.312900  1.0
  H  H43  1  0.484600  0.177400  0.717500  1.0
  H  H44  1  0.515400  0.822600  0.282500  1.0
  H  H45  1  0.760500  0.054100  0.745900  1.0
  H  H46  1  0.239500  0.945900  0.254100  1.0
  H  H47  1  0.641100  0.142300  0.789900  1.0
  H  H48  1  0.358900  0.857700  0.210100  1.0
  H  H49  1  0.731700  0.074800  0.900400  1.0
  H  H50  1  0.268300  0.925200  0.099600  1.0
  H  H51  1  0.822600  0.106600  0.843400  1.0
  H  H52  1  0.177400  0.893400  0.156600  1.0
  H  H53  1  0.848200  0.977900  0.860000  1.0
  H  H54  1  0.151800  0.022100  0.140000  1.0
  H  H55  1  0.589300  0.984100  0.929300  1.0
  H  H56  1  0.410700  0.015900  0.070700  1.0
  H  H57  1  0.493200  0.088000  0.883800  1.0
  H  H58  1  0.506800  0.912000  0.116200  1.0
  H  H59  1  0.398700  0.976300  0.859400  1.0
  H  H60  1  0.601300  0.023700  0.140600  1.0
  H  H61  1  0.399300  0.978900  0.945800  1.0
  H  H62  1  0.600700  0.021100  0.054200  1.0
  H  H63  1  0.495900  0.871100  0.903800  1.0
  H  H64  1  0.504100  0.128900  0.096200  1.0
  H  H65  1  0.015600  0.569800  0.688800  1.0
  H  H66  1  0.984400  0.430200  0.311200  1.0
  H  H67  1  0.089400  0.609700  0.734600  1.0
  H  H68  1  0.910600  0.390300  0.265400  1.0
  H  H69  1  0.189300  0.421300  0.787400  1.0
  H  H70  1  0.810700  0.578700  0.212600  1.0
  H  H71  1  0.218400  0.427700  0.700400  1.0
  H  H72  1  0.781600  0.572300  0.299600  1.0
  H  H73  1  0.120800  0.383400  0.735800  1.0
  H  H74  1  0.879200  0.616600  0.264200  1.0
  H  H75  1  0.829700  0.505900  0.760600  1.0
  H  H76  1  0.170300  0.494100  0.239400  1.0
  H  H77  1  0.932800  0.416400  0.809800  1.0
  H  H78  1  0.067200  0.583600  0.190200  1.0
  H  H79  1  0.804200  0.487900  0.917000  1.0
  H  H80  1  0.195800  0.512100  0.083000  1.0
  H  H81  1  0.737300  0.448300  0.865300  1.0
  H  H82  1  0.262700  0.551700  0.134700  1.0
  H  H83  1  0.701200  0.579100  0.868200  1.0
  H  H84  1  0.298800  0.420900  0.131800  1.0
  H  H85  1  0.945600  0.566100  0.936400  1.0
  H  H86  1  0.054400  0.433900  0.063600  1.0
  H  H87  1  0.060000  0.468000  0.895400  1.0
  H  H88  1  0.940000  0.532000  0.104600  1.0
  H  H89  1  0.148500  0.593100  0.858700  1.0
  H  H90  1  0.851500  0.406900  0.141300  1.0
  H  H91  1  0.124800  0.585100  0.946000  1.0
  H  H92  1  0.875200  0.414900  0.054000  1.0
  H  H93  1  0.033900  0.691600  0.899300  1.0
  H  H94  1  0.966100  0.308400  0.100700  1.0
  H  H95  1  0.234500  0.750900  0.270500  1.0
  H  H96  1  0.765500  0.249100  0.729500  1.0
  H  H97  1  0.154600  0.688800  0.257400  1.0
  H  H98  1  0.845400  0.311200  0.742600  1.0
  H  H99  1  0.992300  0.807700  0.333333  1.0
  H  H100  1  0.007700  0.192300  0.666667  1.0
  H  H101  1  0.033500  0.882400  0.272700  1.0
  H  H102  1  0.966500  0.117600  0.727300  1.0
  H  H103  1  0.072700  0.865300  0.354300  1.0
  H  H104  1  0.927300  0.134700  0.645700  1.0
  H  H105  1  0.347800  0.629400  0.465100  1.0
  H  H106  1  0.652200  0.370600  0.534900  1.0
  H  H107  1  0.400200  0.667900  0.389600  1.0
  H  H108  1  0.599800  0.332100  0.610400  1.0
  H  H109  1  0.243000  0.846900  0.395600  1.0
  H  H110  1  0.757000  0.153100  0.604400  1.0
  H  H111  1  0.309900  0.812200  0.469600  1.0
  H  H112  1  0.690100  0.187800  0.530400  1.0
  H  H113  1  0.181300  0.809500  0.468400  1.0
  H  H114  1  0.818700  0.190500  0.531600  1.0
  H  H115  1  0.158100  0.566200  0.476200  1.0
  H  H116  1  0.841900  0.433800  0.523800  1.0
  H  H117  1  0.071900  0.693300  0.450300  1.0
  H  H118  1  0.928100  0.306700  0.549700  1.0
  H  H119  1  0.004500  0.630300  0.359100  1.0
  H  H120  1  0.995500  0.369700  0.640900  1.0
  H  H121  1  0.982000  0.572400  0.436500  1.0
  H  H122  1  0.018000  0.427600  0.563500  1.0
  H  H123  1  0.095500  0.502700  0.380500  1.0
  H  H124  1  0.904500  0.497300  0.619500  1.0
  H  H125  1  0.642300  0.160600  0.203900  1.0
  H  H126  1  0.357700  0.839400  0.796100  1.0
  H  H127  1  0.498200  0.233700  0.201500  1.0
  H  H128  1  0.501800  0.766300  0.798500  1.0
  H  H129  1  0.529900  0.384600  0.137300  1.0
  H  H130  1  0.470100  0.615400  0.862700  1.0
  H  H131  1  0.603700  0.273300  0.093200  1.0
  H  H132  1  0.396300  0.726700  0.906800  1.0
  H  H133  1  0.674200  0.314100  0.141300  1.0
  H  H134  1  0.325800  0.685900  0.858700  1.0
  H  H135  1  0.772700  0.248800  0.280600  1.0
  H  H136  1  0.227300  0.751200  0.719400  1.0
  H  H137  1  0.694700  0.376600  0.252400  1.0
  H  H138  1  0.305300  0.623400  0.747600  1.0
  H  H139  1  0.634900  0.429900  0.377100  1.0
  H  H140  1  0.365100  0.570100  0.622900  1.0
  H  H141  1  0.780700  0.370900  0.363800  1.0
  H  H142  1  0.219300  0.629100  0.636200  1.0
  H  H143  1  0.710800  0.302100  0.405800  1.0
  H  H144  1  0.289200  0.697900  0.594200  1.0
  H  H145  1  0.594100  0.190400  0.407600  1.0
  H  H146  1  0.405900  0.809600  0.592400  1.0
  H  H147  1  0.531500  0.146600  0.356100  1.0
  H  H148  1  0.468500  0.853400  0.643900  1.0
  H  H149  1  0.727600  0.043700  0.291300  1.0
  H  H150  1  0.272400  0.956300  0.708700  1.0
  H  H151  1  0.728100  0.002900  0.376200  1.0
  H  H152  1  0.271900  0.997100  0.623800  1.0
  H  H153  1  0.789000  0.084800  0.345700  1.0
  H  H154  1  0.211000  0.915200  0.654300  1.0
  Pt  Pt155  1  0.786291  0.778039  0.805807  1.0
  Pt  Pt156  1  0.213709  0.221961  0.194193  1.0
  Pt  Pt157  1  0.392929  0.451735  0.325820  1.0
  Pt  Pt158  1  0.607071  0.548265  0.674180  1.0
  C  C159  1  0.917700  0.879000  0.088600  1
  C  C160  1  0.082300  0.121000  0.911400  1
  C  C161  1  0.754600  0.774400  0.968400  1.0
  C  C162  1  0.245400  0.225600  0.031600  1.0
  C  C163  1  0.710300  0.741200  0.041600  1.0
  C  C164  1  0.289700  0.258800  0.958400  1.0
  C  C165  1  0.633900  0.694300  0.053000  1.0
  C  C166  1  0.366100  0.305700  0.947000  1.0
  C  C167  1  0.591200  0.666900  0.126200  1.0
  C  C168  1  0.408800  0.333100  0.873800  1.0
  C  C169  1  0.514900  0.621300  0.142600  1.0
  C  C170  1  0.485100  0.378700  0.857400  1.0
  C  C171  1  0.481700  0.591700  0.219900  1.0
  C  C172  1  0.518300  0.408300  0.780100  1.0
  C  C173  1  0.360300  0.371600  0.418700  1.0
  C  C174  1  0.639700  0.628400  0.581300  1.0
  C  C175  1  0.397800  0.383000  0.484100  1.0
  C  C176  1  0.602200  0.617000  0.515900  1.0
  C  C177  1  0.367300  0.339800  0.552300  1.0
  C  C178  1  0.632700  0.660200  0.447700  1.0
  C  C179  1  0.298100  0.283300  0.556500  1.0
  C  C180  1  0.701900  0.716700  0.443500  1.0
  C  C181  1  0.259900  0.262500  0.491700  1.0
  C  C182  1  0.740100  0.737500  0.508300  1.0
  C  C183  1  0.189800  0.203900  0.494800  1.0
  C  C184  1  0.810200  0.796100  0.505200  1.0
  C  C185  1  0.151200  0.183100  0.433400  1.0
  C  C186  1  0.848800  0.816900  0.566600  1.0
  C  C187  1  0.073300  0.128400  0.439100  1.0
  C  C188  1  0.926700  0.871600  0.560900  1.0
  C  C189  1  0.033200  0.112200  0.378300  1.0
  C  C190  1  0.966800  0.887800  0.621700  1.0
  C  C191  1  0.075000  0.143200  0.308100  1.0
  C  C192  1  0.925000  0.856800  0.691900  1.0
  C  C193  1  0.848300  0.807800  0.702100  1.0
  C  C194  1  0.151700  0.192200  0.297900  1.0
  C  C195  1  0.189200  0.218600  0.362300  1.0
  C  C196  1  0.810800  0.781400  0.637700  1.0
  C  C197  1  0.260000  0.277900  0.359000  1.0
  C  C198  1  0.740000  0.722100  0.641000  1.0
  C  C199  1  0.294200  0.304700  0.421300  1.0
  C  C200  1  0.705800  0.695300  0.578700  1.0
  C  C201  1  0.547600  0.005300  0.728800  1.0
  C  C202  1  0.452400  0.994700  0.271200  1.0
  C  C203  1  0.447700  0.125100  0.726500  1.0
  C  C204  1  0.552300  0.874900  0.273500  1.0
  C  C205  1  0.708600  0.065400  0.792700  1.0
  C  C206  1  0.291400  0.934600  0.207300  1.0
  C  C207  1  0.784500  0.055300  0.854700  1.0
  C  C208  1  0.215500  0.944700  0.145300  1.0
  C  C209  1  0.540400  0.005200  0.886700  1.0
  C  C210  1  0.459600  0.994800  0.113300  1.0
  C  C211  1  0.450500  0.953200  0.900100  1.0
  C  C212  1  0.549500  0.046800  0.099900  1.0
  C  C213  1  0.052200  0.557200  0.735700  1.0
  C  C214  1  0.947800  0.442800  0.264300  1.0
  C  C215  1  0.154400  0.436500  0.740200  1.0
  C  C216  1  0.845600  0.563500  0.259800  1.0
  C  C217  1  0.865800  0.493600  0.807600  1.0
  C  C218  1  0.134200  0.506400  0.192400  1.0
  C  C219  1  0.768400  0.503100  0.870100  1.0
  C  C220  1  0.231600  0.496900  0.129900  1.0
  C  C221  1  0.007500  0.550000  0.893900  1.0
  C  C222  1  0.992500  0.450000  0.106100  1.0
  C  C223  1  0.085700  0.610300  0.900000  1.0
  C  C224  1  0.914300  0.389700  0.100000  1.0
  C  C225  1  0.173300  0.725900  0.294400  1.0
  C  C226  1  0.826700  0.274100  0.705600  1.0
  C  C227  1  0.057800  0.829400  0.315500  1.0
  C  C228  1  0.942200  0.170600  0.684500  1.0
  C  C229  1  0.323800  0.677200  0.419400  1.0
  C  C230  1  0.676200  0.322800  0.580600  1.0
  C  C231  1  0.258900  0.796800  0.440100  1.0
  C  C232  1  0.741100  0.203200  0.559900  1.0
  C  C233  1  0.123100  0.616800  0.433200  1.0
  C  C234  1  0.876900  0.383200  0.566800  1.0
  C  C235  1  0.044300  0.577000  0.399300  1.0
  C  C236  1  0.955700  0.423000  0.600700  1.0
  C  C237  1  0.575600  0.237900  0.205200  1.0
  C  C238  1  0.424400  0.762100  0.794800  1.0
  C  C239  1  0.597900  0.309000  0.138100  1.0
  C  C240  1  0.402100  0.691000  0.861900  1.0
  C  C241  1  0.698400  0.318900  0.291900  1.0
  C  C242  1  0.301600  0.681100  0.708100  1.0
  C  C243  1  0.707000  0.359200  0.366600  1.0
  C  C244  1  0.293000  0.640800  0.633400  1.0
  C  C245  1  0.597800  0.169100  0.357300  1.0
  C  C246  1  0.402200  0.830900  0.642700  1.0
  C  C247  1  0.722100  0.065600  0.341100  1.0
  C  C248  1  0.277900  0.934400  0.658900  1.0
  Cl  Cl249  1  0.863200  0.834900  0.173700  1
  Cl  Cl250  1  0.136800  0.165100  0.826300  1
  Cl  Cl251  1  0.893000  0.018300  0.090400  1
  Cl  Cl252  1  0.107000  0.981700  0.909600  1
  Cl  Cl253  1  0.071600  0.789000  0.069450  1
  Cl  Cl254  1  0.928400  0.211000  0.930550  1
  O  O255  1  0.722400  0.745600  0.913600  1.0
  O  O256  1  0.277600  0.254400  0.086400  1.0
  O  O257  1  0.817500  0.826300  0.964700  1.0
  O  O258  1  0.182500  0.173700  0.035300  1.0
  O  O259  1  0.422500  0.532300  0.225200  1.0
  O  O260  1  0.577500  0.467700  0.774800  1.0
  O  O261  1  0.514200  0.621000  0.271000  1.0
  O  O262  1  0.485800  0.379000  0.729000  1.0
