# generated using pymatgen
data_P4H105Pt2C63Cl11O4
_symmetry_space_group_name_H-M   'P 1'
_cell_length_a   10.18980000
_cell_length_b   17.49600000
_cell_length_c   20.07710000
_cell_angle_alpha   65.80380000
_cell_angle_beta   89.45000000
_cell_angle_gamma   88.82280000
_symmetry_Int_Tables_number   1
_chemical_formula_structural   P4H105Pt2C63Cl11O4
_chemical_formula_sum   'P8 H210 Pt4 C126 Cl22 O8'
_cell_volume   3264.21197894
_cell_formula_units_Z   2
loop_
 _symmetry_equiv_pos_site_id
 _symmetry_equiv_pos_as_xyz
  1  'x, y, z'
loop_
 _atom_site_type_symbol
 _atom_site_label
 _atom_site_symmetry_multiplicity
 _atom_site_fract_x
 _atom_site_fract_y
 _atom_site_fract_z
 _atom_site_occupancy
  P  P1  1  0.644600  0.389000  0.200300  1.0
  P  P2  1  0.355400  0.611000  0.799700  1.0
  P  P3  1  0.355200  0.360200  0.387200  1.0
  P  P4  1  0.644800  0.639800  0.612800  1.0
  P  P5  1  0.696400  0.904500  0.705500  1.0
  P  P6  1  0.303600  0.095500  0.294500  1.0
  P  P7  1  0.518400  0.831300  0.932520  1.0
  P  P8  1  0.481600  0.168700  0.067480  1.0
  H  H9  1  0.562700  0.160800  0.766200  1
  H  H10  1  0.437300  0.839200  0.233800  1
  H  H11  1  0.899400  0.965100  0.048400  1
  H  H12  1  0.100600  0.034900  0.951600  1
  H  H13  1  0.446100  0.526300  0.438400  1
  H  H14  1  0.553900  0.473700  0.561600  1
  H  H15  1  0.338700  0.533800  0.380600  1
  H  H16  1  0.661300  0.466200  0.619400  1
  H  H17  1  0.486700  0.520800  0.365000  1
  H  H18  1  0.513300  0.479200  0.635000  1
  H  H19  1  0.014500  0.381200  0.324300  1
  H  H20  1  0.985500  0.618800  0.675700  1
  H  H21  1  0.088000  0.301000  0.379600  1
  H  H22  1  0.912000  0.699000  0.620400  1
  H  H23  1  0.135200  0.343500  0.298200  1
  H  H24  1  0.864800  0.656500  0.701800  1
  H  H25  1  0.344200  0.411000  0.478500  1
  H  H26  1  0.655800  0.589000  0.521500  1
  H  H27  1  0.493400  0.398100  0.460800  1
  H  H28  1  0.506600  0.601900  0.539200  1
  H  H29  1  0.144000  0.416400  0.396900  1
  H  H30  1  0.856000  0.583600  0.603100  1
  H  H31  1  0.193400  0.458900  0.314300  1
  H  H32  1  0.806600  0.541100  0.685700  1
  H  H33  1  0.257400  0.270500  0.484500  1
  H  H34  1  0.742600  0.729500  0.515500  1
  H  H35  1  0.291900  0.230000  0.428500  1
  H  H36  1  0.708100  0.770000  0.571500  1
  H  H37  1  0.409600  0.157600  0.541000  1
  H  H38  1  0.590400  0.842400  0.459000  1
  H  H39  1  0.483000  0.239600  0.530500  1
  H  H40  1  0.517000  0.760400  0.469500  1
  H  H41  1  0.508500  0.197400  0.476100  1
  H  H42  1  0.491500  0.802600  0.523900  1
  H  H43  1  0.728300  0.041700  0.604400  1
  H  H44  1  0.271700  0.958300  0.395600  1
  H  H45  1  0.598900  0.045900  0.649600  1
  H  H46  1  0.401100  0.954100  0.350400  1
  H  H47  1  0.767300  0.114700  0.674100  1
  H  H48  1  0.232700  0.885300  0.325900  1
  H  H49  1  0.856000  0.030900  0.700500  1
  H  H50  1  0.144000  0.969100  0.299500  1
  H  H51  1  0.727700  0.034400  0.745800  1
  H  H52  1  0.272300  0.965600  0.254200  1
  H  H53  1  0.906000  0.892600  0.707800  1
  H  H54  1  0.094000  0.107400  0.292200  1
  H  H55  1  0.838900  0.814900  0.701400  1
  H  H56  1  0.161100  0.185100  0.298600  1
  H  H57  1  0.968600  0.880600  0.604200  1
  H  H58  1  0.031400  0.119400  0.395800  1
  H  H59  1  0.889600  0.967200  0.584200  1
  H  H60  1  0.110400  0.032800  0.415800  1
  H  H61  1  0.819500  0.889800  0.577300  1
  H  H62  1  0.180500  0.110200  0.422700  1
  H  H63  1  0.848100  0.501400  0.381300  1
  H  H64  1  0.151900  0.498600  0.618700  1
  H  H65  1  0.793100  0.533300  0.324100  1
  H  H66  1  0.206900  0.466700  0.675900  1
  H  H67  1  0.786200  0.176600  0.441700  1.0
  H  H68  1  0.213800  0.823400  0.558300  1.0
  H  H69  1  0.941700  0.098200  0.526800  1.0
  H  H70  1  0.058300  0.901800  0.473200  1.0
  H  H71  1  0.006100  0.294300  0.574500  1.0
  H  H72  1  0.993900  0.705700  0.425500  1.0
  H  H73  1  0.851600  0.372800  0.487300  1.0
  H  H74  1  0.148400  0.627200  0.512700  1.0
  H  H75  1  0.101400  0.038400  0.589600  1.0
  H  H76  1  0.898600  0.961600  0.410400  1.0
  H  H77  1  0.262300  0.964300  0.672900  1.0
  H  H78  1  0.737700  0.035700  0.327100  1.0
  H  H79  1  0.308700  0.156800  0.724700  1.0
  H  H80  1  0.691300  0.843200  0.275300  1.0
  H  H81  1  0.146700  0.229300  0.644800  1.0
  H  H82  1  0.853300  0.770700  0.355200  1.0
  H  H83  1  0.842200  0.862800  0.898800  1.0
  H  H84  1  0.157800  0.137200  0.101200  1.0
  H  H85  1  0.021400  0.774000  0.962900  1.0
  H  H86  1  0.978600  0.226000  0.037100  1.0
  H  H87  1  0.053700  0.649200  0.964000  1.0
  H  H88  1  0.946300  0.350800  0.036000  1.0
  H  H89  1  0.983100  0.534800  0.925900  1.0
  H  H90  1  0.016900  0.465200  0.074100  1.0
  H  H91  1  0.915000  0.420000  0.895600  1.0
  H  H92  1  0.085000  0.580000  0.104400  1.0
  H  H93  1  0.772200  0.368700  0.836900  1.0
  H  H94  1  0.227800  0.631300  0.163100  1.0
  H  H95  1  0.605900  0.455200  0.765300  1.0
  H  H96  1  0.394100  0.544800  0.234700  1.0
  H  H97  1  0.629000  0.702600  0.798300  1.0
  H  H98  1  0.371000  0.297400  0.201700  1.0
  H  H99  1  0.627100  0.258000  0.194400  1.0
  H  H100  1  0.372900  0.742000  0.805600  1.0
  H  H101  1  0.751100  0.306100  0.148100  1.0
  H  H102  1  0.248900  0.693900  0.851900  1.0
  H  H103  1  0.818400  0.187100  0.248800  1.0
  H  H104  1  0.181600  0.812900  0.751200  1.0
  H  H105  1  0.747300  0.222000  0.302400  1.0
  H  H106  1  0.252700  0.778000  0.697600  1.0
  H  H107  1  0.871800  0.269100  0.255400  1.0
  H  H108  1  0.128200  0.730900  0.744600  1.0
  H  H109  1  0.515200  0.423100  0.096400  1.0
  H  H110  1  0.484800  0.576900  0.903600  1.0
  H  H111  1  0.552100  0.506200  0.106100  1.0
  H  H112  1  0.447900  0.493800  0.893900  1.0
  H  H113  1  0.655300  0.506700  0.000300  1.0
  H  H114  1  0.344700  0.493300  0.999700  1.0
  H  H115  1  0.727100  0.419000  0.047200  1.0
  H  H116  1  0.272900  0.581000  0.952800  1.0
  H  H117  1  0.766100  0.501300  0.058100  1.0
  H  H118  1  0.233900  0.498700  0.941900  1.0
  H  H119  1  0.829100  0.406100  0.256700  1.0
  H  H120  1  0.170900  0.593900  0.743300  1.0
  H  H121  1  0.856100  0.432700  0.171500  1.0
  H  H122  1  0.143900  0.567300  0.828500  1.0
  H  H123  1  0.851300  0.551300  0.200000  1.0
  H  H124  1  0.148700  0.448700  0.800000  1.0
  H  H125  1  0.703000  0.531500  0.227500  1.0
  H  H126  1  0.297000  0.468500  0.772500  1.0
  H  H127  1  0.737700  0.558500  0.143100  1.0
  H  H128  1  0.262300  0.441500  0.856900  1.0
  H  H129  1  0.252900  0.489500  0.351800  1.0
  H  H130  1  0.747100  0.510500  0.648200  1.0
  H  H131  1  0.248500  0.440100  0.438700  1.0
  H  H132  1  0.751500  0.559900  0.561300  1.0
  H  H133  1  0.385400  0.558000  0.405500  1.0
  H  H134  1  0.614600  0.442000  0.594500  1.0
  H  H135  1  0.477100  0.522500  0.359100  1.0
  H  H136  1  0.522900  0.477500  0.640900  1.0
  H  H137  1  0.471100  0.474100  0.446100  1.0
  H  H138  1  0.528900  0.525900  0.553900  1.0
  H  H139  1  0.220900  0.248900  0.395400  1.0
  H  H140  1  0.779100  0.751100  0.604600  1.0
  H  H141  1  0.164200  0.291600  0.446800  1.0
  H  H142  1  0.835800  0.708400  0.553200  1.0
  H  H143  1  0.018500  0.320700  0.346100  1.0
  H  H144  1  0.981500  0.679300  0.653900  1.0
  H  H145  1  0.134600  0.364300  0.289800  1.0
  H  H146  1  0.865400  0.635700  0.710200  1.0
  H  H147  1  0.077600  0.406800  0.341400  1.0
  H  H148  1  0.922400  0.593200  0.658600  1.0
  H  H149  1  0.510600  0.319500  0.489200  1.0
  H  H150  1  0.489400  0.680500  0.510800  1.0
  H  H151  1  0.364800  0.303600  0.521000  1.0
  H  H152  1  0.635200  0.696400  0.479000  1.0
  H  H153  1  0.478200  0.183200  0.555600  1.0
  H  H154  1  0.521800  0.816800  0.444400  1.0
  H  H155  1  0.506000  0.200100  0.472100  1.0
  H  H156  1  0.494000  0.799900  0.527900  1.0
  H  H157  1  0.359500  0.184200  0.503600  1.0
  H  H158  1  0.640500  0.815800  0.496400  1.0
  H  H159  1  0.841500  0.027000  0.657400  1.0
  H  H160  1  0.158500  0.973000  0.342600  1.0
  H  H161  1  0.734400  0.041900  0.709100  1.0
  H  H162  1  0.265600  0.958100  0.290900  1.0
  H  H163  1  0.939600  0.041200  0.751700  1.0
  H  H164  1  0.060400  0.958800  0.248300  1.0
  H  H165  1  0.966400  0.948200  0.757700  1.0
  H  H166  1  0.033600  0.051800  0.242300  1.0
  H  H167  1  0.859000  0.964700  0.809300  1.0
  H  H168  1  0.141000  0.035300  0.190700  1.0
  H  H169  1  0.905500  0.831600  0.743200  1.0
  H  H170  1  0.094500  0.168400  0.256800  1.0
  H  H171  1  0.817600  0.782600  0.708400  1.0
  H  H172  1  0.182400  0.217400  0.291600  1.0
  H  H173  1  0.001300  0.844600  0.627100  1.0
  H  H174  1  0.998700  0.155400  0.372900  1.0
  H  H175  1  0.958100  0.935700  0.621000  1.0
  H  H176  1  0.041900  0.064300  0.379000  1.0
  H  H177  1  0.868500  0.888000  0.585700  1.0
  H  H178  1  0.131500  0.112000  0.414300  1.0
  H  H179  1  0.565500  0.997900  0.609000  1.0
  H  H180  1  0.434500  0.002100  0.391000  1.0
  H  H181  1  0.677800  0.954100  0.577400  1.0
  H  H182  1  0.322200  0.045900  0.422600  1.0
  H  H183  1  0.481400  0.877900  0.595500  1.0
  H  H184  1  0.518600  0.122100  0.404500  1.0
  H  H185  1  0.477900  0.866700  0.678700  1.0
  H  H186  1  0.522100  0.133300  0.321300  1.0
  H  H187  1  0.591500  0.821700  0.651500  1.0
  H  H188  1  0.408500  0.178300  0.348500  1.0
  H  H189  1  0.337700  0.926200  0.910300  1.0
  H  H190  1  0.662300  0.073800  0.089700  1.0
  H  H191  1  0.293300  0.844900  0.899600  1.0
  H  H192  1  0.706700  0.155100  0.100400  1.0
  H  H193  1  0.190000  0.849700  0.001400  1.0
  H  H194  1  0.810000  0.150300  0.998600  1.0
  H  H195  1  0.329100  0.851500  0.037000  1.0
  H  H196  1  0.670900  0.148500  0.963000  1.0
  H  H197  1  0.286400  0.769500  0.026700  1.0
  H  H198  1  0.713600  0.230500  0.973300  1.0
  H  H199  1  0.610000  0.694100  0.005700  1.0
  H  H200  1  0.390000  0.305900  0.994300  1.0
  H  H201  1  0.491000  0.713600  0.048700  1.0
  H  H202  1  0.509000  0.286400  0.951300  1.0
  H  H203  1  0.440800  0.598200  0.022200  1.0
  H  H204  1  0.559200  0.401800  0.977800  1.0
  H  H205  1  0.458800  0.653900  0.936600  1.0
  H  H206  1  0.541200  0.346100  0.063400  1.0
  H  H207  1  0.339400  0.673300  0.980000  1.0
  H  H208  1  0.660600  0.326700  0.020000  1.0
  H  H209  1  0.549700  0.871300  0.026600  1.0
  H  H210  1  0.450300  0.128700  0.973400  1.0
  H  H211  1  0.686500  0.844500  0.002100  1.0
  H  H212  1  0.313500  0.155500  0.997900  1.0
  H  H213  1  0.682800  0.990200  0.971500  1.0
  H  H214  1  0.317200  0.009800  0.028500  1.0
  H  H215  1  0.554300  0.002000  0.922900  1.0
  H  H216  1  0.445700  0.998000  0.077100  1.0
  H  H217  1  0.691100  0.975200  0.898200  1.0
  H  H218  1  0.308900  0.024800  0.101800  1.0
  Pt  Pt219  1  0.495880  0.371240  0.291850  1.0
  Pt  Pt220  1  0.504120  0.628760  0.708150  1.0
  Pt  Pt221  1  0.602450  0.858230  0.818320  1.0
  Pt  Pt222  1  0.397550  0.141770  0.181680  1.0
  C  C223  1  0.595000  0.219000  0.750000  1
  C  C224  1  0.405000  0.781000  0.250000  1
  C  C225  1  0.897000  0.922000  0.100000  1
  C  C226  1  0.103000  0.078000  0.900000  1
  C  C227  1  0.408000  0.421000  0.438000  1
  C  C228  1  0.592000  0.579000  0.562000  1
  C  C229  1  0.185000  0.404700  0.357100  1
  C  C230  1  0.815000  0.595300  0.642900  1
  C  C231  1  0.328000  0.264000  0.453000  1
  C  C232  1  0.672000  0.736000  0.547000  1
  C  C233  1  0.690000  0.024000  0.653900  1
  C  C234  1  0.310000  0.976000  0.346100  1
  C  C235  1  0.766000  0.053000  0.697000  1
  C  C236  1  0.234000  0.947000  0.303000  1
  C  C237  1  0.838000  0.877000  0.681300  1
  C  C238  1  0.162000  0.123000  0.318700  1
  C  C239  1  0.883000  0.906000  0.605000  1
  C  C240  1  0.117000  0.094000  0.395000  1
  C  C241  1  0.881000  0.551000  0.388000  1
  C  C242  1  0.119000  0.449000  0.612000  1
  C  C243  1  0.817000  0.586300  0.328500  1
  C  C244  1  0.183000  0.413700  0.671500  1
  C  C245  1  0.709600  0.338100  0.395900  1.0
  C  C246  1  0.290400  0.661900  0.604100  1.0
  C  C247  1  0.804100  0.283000  0.455300  1.0
  C  C248  1  0.195900  0.717000  0.544700  1.0
  C  C249  1  0.832000  0.201800  0.468300  1.0
  C  C250  1  0.168000  0.798200  0.531700  1.0
  C  C251  1  0.925300  0.154900  0.519100  1.0
  C  C252  1  0.074700  0.845100  0.480900  1.0
  C  C253  1  0.994400  0.188400  0.558700  1.0
  C  C254  1  0.005600  0.811600  0.441300  1.0
  C  C255  1  0.963200  0.269300  0.546800  1.0
  C  C256  1  0.036800  0.730700  0.453200  1.0
  C  C257  1  0.869500  0.316400  0.494900  1.0
  C  C258  1  0.130500  0.683600  0.505100  1.0
  C  C259  1  0.098600  0.140300  0.611900  1.0
  C  C260  1  0.901400  0.859700  0.388100  1.0
  C  C261  1  0.140600  0.063000  0.618600  1.0
  C  C262  1  0.859400  0.937000  0.381400  1.0
  C  C263  1  0.239800  0.019600  0.667200  1.0
  C  C264  1  0.760200  0.980400  0.332800  1.0
  C  C265  1  0.306200  0.053500  0.707100  1.0
  C  C266  1  0.693800  0.946500  0.292900  1.0
  C  C267  1  0.267000  0.130700  0.697700  1.0
  C  C268  1  0.733000  0.869300  0.302300  1.0
  C  C269  1  0.168000  0.173800  0.650600  1.0
  C  C270  1  0.832000  0.826200  0.349400  1.0
  C  C271  1  0.418400  0.007300  0.755700  1.0
  C  C272  1  0.581600  0.992700  0.244300  1.0
  C  C273  1  0.760600  0.781600  0.865000  1.0
  C  C274  1  0.239400  0.218400  0.135000  1.0
  C  C275  1  0.851000  0.808000  0.899600  1.0
  C  C276  1  0.149000  0.192000  0.100400  1.0
  C  C277  1  0.961000  0.754400  0.937700  1.0
  C  C278  1  0.039000  0.245600  0.062300  1.0
  C  C279  1  0.979900  0.682000  0.938500  1.0
  C  C280  1  0.020100  0.318000  0.061500  1.0
  C  C281  1  0.893300  0.646800  0.901900  1.0
  C  C282  1  0.106700  0.353200  0.098100  1.0
  C  C283  1  0.910400  0.568800  0.900500  1.0
  C  C284  1  0.089600  0.431200  0.099500  1.0
  C  C285  1  0.829200  0.538800  0.865000  1.0
  C  C286  1  0.170800  0.461200  0.135000  1.0
  C  C287  1  0.844800  0.454700  0.867900  1.0
  C  C288  1  0.155200  0.545300  0.132100  1.0
  C  C289  1  0.762800  0.424600  0.832600  1.0
  C  C290  1  0.237200  0.575400  0.167400  1.0
  C  C291  1  0.663400  0.477500  0.789500  1.0
  C  C292  1  0.336600  0.522500  0.210500  1.0
  C  C293  1  0.357500  0.440400  0.220600  1.0
  C  C294  1  0.642500  0.559600  0.779400  1.0
  C  C295  1  0.720500  0.591400  0.823000  1.0
  C  C296  1  0.279500  0.408600  0.177000  1.0
  C  C297  1  0.701300  0.669300  0.824800  1.0
  C  C298  1  0.298700  0.330700  0.175200  1.0
  C  C299  1  0.781600  0.702900  0.863300  1.0
  C  C300  1  0.218400  0.297100  0.136700  1.0
  C  C301  1  0.704000  0.291300  0.195000  1.0
  C  C302  1  0.296000  0.708700  0.805000  1.0
  C  C303  1  0.793000  0.237800  0.255600  1.0
  C  C304  1  0.207000  0.762200  0.744400  1.0
  C  C305  1  0.588000  0.452500  0.107800  1.0
  C  C306  1  0.412000  0.547500  0.892200  1.0
  C  C307  1  0.694000  0.472000  0.047900  1.0
  C  C308  1  0.306000  0.528000  0.952100  1.0
  C  C309  1  0.791800  0.436500  0.207300  1.0
  C  C310  1  0.208200  0.563500  0.792700  1.0
  C  C311  1  0.769000  0.527000  0.193000  1.0
  C  C312  1  0.231000  0.473000  0.807000  1.0
  C  C313  1  0.306000  0.454600  0.395200  1.0
  C  C314  1  0.694000  0.545400  0.604800  1.0
  C  C315  1  0.420000  0.507100  0.402100  1.0
  C  C316  1  0.580000  0.492900  0.597900  1.0
  C  C317  1  0.202000  0.303300  0.398000  1.0
  C  C318  1  0.798000  0.696700  0.602000  1.0
  C  C319  1  0.098500  0.353500  0.338200  1.0
  C  C320  1  0.901500  0.646500  0.661800  1.0
  C  C321  1  0.425000  0.295600  0.485400  1.0
  C  C322  1  0.575000  0.704400  0.514600  1.0
  C  C323  1  0.443600  0.209200  0.505700  1.0
  C  C324  1  0.556400  0.790800  0.494300  1.0
  C  C325  1  0.799000  0.000400  0.705700  1.0
  C  C326  1  0.201000  0.999600  0.294300  1.0
  C  C327  1  0.899000  0.988000  0.760600  1.0
  C  C328  1  0.101000  0.012000  0.239400  1.0
  C  C329  1  0.846000  0.838800  0.702100  1.0
  C  C330  1  0.154000  0.161200  0.297900  1.0
  C  C331  1  0.926000  0.881000  0.626600  1.0
  C  C332  1  0.074000  0.119000  0.373400  1.0
  C  C333  1  0.617000  0.946000  0.618400  1.0
  C  C334  1  0.383000  0.054000  0.381600  1.0
  C  C335  1  0.535000  0.872000  0.637600  1.0
  C  C336  1  0.465000  0.128000  0.362400  1.0
  C  C337  1  0.343000  0.864000  0.931600  1.0
  C  C338  1  0.657000  0.136000  0.068400  1.0
  C  C339  1  0.282000  0.831000  0.005500  1.0
  C  C340  1  0.718000  0.169000  0.994500  1.0
  C  C341  1  0.518000  0.715700  0.000600  1.0
  C  C342  1  0.482000  0.284300  0.999400  1.0
  C  C343  1  0.431000  0.655000  0.983000  1.0
  C  C344  1  0.569000  0.345000  0.017000  1.0
  C  C345  1  0.604000  0.876600  0.983700  1.0
  C  C346  1  0.396000  0.123400  0.016300  1.0
  C  C347  1  0.636000  0.969400  0.940100  1.0
  C  C348  1  0.364000  0.030600  0.059900  1.0
  Cl  Cl349  1  0.568600  0.262200  0.659900  1
  Cl  Cl350  1  0.431400  0.737800  0.340100  1
  Cl  Cl351  1  0.485600  0.265900  0.791600  1
  Cl  Cl352  1  0.514400  0.734100  0.208400  1
  Cl  Cl353  1  0.749000  0.205300  0.792900  1
  Cl  Cl354  1  0.251000  0.794700  0.207100  1
  Cl  Cl355  1  0.944000  0.815800  0.103600  1
  Cl  Cl356  1  0.056000  0.184200  0.896400  1
  Cl  Cl357  1  0.983000  0.954000  0.157800  1
  Cl  Cl358  1  0.017000  0.046000  0.842200  1
  Cl  Cl359  1  0.735100  0.899500  0.130500  1
  Cl  Cl360  1  0.264900  0.100500  0.869500  1
  Cl  Cl361  1  0.939900  0.516900  0.477800  1
  Cl  Cl362  1  0.060100  0.483100  0.522200  1
  Cl  Cl363  1  0.750200  0.623500  0.370900  1
  Cl  Cl364  1  0.249800  0.376500  0.629100  1
  Cl  Cl365  1  0.998600  0.598300  0.321800  1
  Cl  Cl366  1  0.001400  0.401700  0.678200  1
  Cl  Cl367  1  0.778200  0.577400  0.417500  1
  Cl  Cl368  1  0.221800  0.422600  0.582500  1
  Cl  Cl369  1  0.729200  0.668900  0.265800  1
  Cl  Cl370  1  0.270800  0.331100  0.734200  1
  O  O371  1  0.639600  0.299200  0.369100  1.0
  O  O372  1  0.360400  0.700800  0.630900  1.0
  O  O373  1  0.705900  0.413800  0.382600  1.0
  O  O374  1  0.294100  0.586200  0.617400  1.0
  O  O375  1  0.433800  0.931100  0.766600  1.0
  O  O376  1  0.566200  0.068900  0.233400  1.0
  O  O377  1  0.487600  0.045300  0.781300  1.0
  O  O378  1  0.512400  0.954700  0.218700  1.0
