# generated using pymatgen
data_FeNiB2H74C90S8N15
_symmetry_space_group_name_H-M   'P 1'
_cell_length_a   13.99300000
_cell_length_b   16.12800000
_cell_length_c   20.79300000
_cell_angle_alpha   102.86600000
_cell_angle_beta   91.40000000
_cell_angle_gamma   101.28400000
_symmetry_Int_Tables_number   1
_chemical_formula_structural   FeNiB2H74C90S8N15
_chemical_formula_sum   'Fe2 Ni2 B4 H148 C180 S16 N30'
_cell_volume   4474.93635331
_cell_formula_units_Z   2
loop_
 _symmetry_equiv_pos_site_id
 _symmetry_equiv_pos_as_xyz
  1  'x, y, z'
loop_
 _atom_site_type_symbol
 _atom_site_label
 _atom_site_symmetry_multiplicity
 _atom_site_fract_x
 _atom_site_fract_y
 _atom_site_fract_z
 _atom_site_occupancy
  Fe  Fe1  1  0.805040  0.591790  0.427220  1.0
  Fe  Fe2  1  0.194960  0.408210  0.572780  1.0
  Ni  Ni3  1  0.082460  0.438950  0.346220  1.0
  Ni  Ni4  1  0.917540  0.561050  0.653780  1.0
  B  B5  1  0.184900  0.924100  0.221600  1
  B  B6  1  0.815100  0.075900  0.778400  1
  B  B7  1  0.739400  0.743700  0.384600  1.0
  B  B8  1  0.260600  0.256300  0.615400  1.0
  H  H9  1  0.003400  0.841800  0.148300  1
  H  H10  1  0.996600  0.158200  0.851700  1
  H  H11  1  0.207900  0.778400  0.135000  1
  H  H12  1  0.792100  0.221600  0.865000  1
  H  H13  1  0.889600  0.666100  0.249400  1
  H  H14  1  0.110400  0.333900  0.750600  1
  H  H15  1  0.142500  0.832600  0.317100  1
  H  H16  1  0.857500  0.167400  0.682900  1
  H  H17  1  0.017100  0.721600  0.329200  1
  H  H18  1  0.982900  0.278400  0.670800  1
  H  H19  1  0.045300  0.005400  0.178700  1
  H  H20  1  0.954700  0.994600  0.821300  1
  H  H21  1  0.878900  0.730700  0.161800  1
  H  H22  1  0.121100  0.269300  0.838200  1
  H  H23  1  0.234400  0.208700  0.427100  1
  H  H24  1  0.765600  0.791300  0.572900  1
  H  H25  1  0.075400  0.977700  0.330500  1
  H  H26  1  0.924600  0.022300  0.669500  1
  H  H27  1  0.287100  0.933500  0.108900  1
  H  H28  1  0.712900  0.066500  0.891100  1
  H  H29  1  0.024300  0.059700  0.085800  1
  H  H30  1  0.975700  0.940300  0.914200  1
  H  H31  1  0.325500  0.696100  0.120100  1
  H  H32  1  0.674500  0.303900  0.879900  1
  H  H33  1  0.463600  0.735200  0.191300  1
  H  H34  1  0.536400  0.264800  0.808700  1
  H  H35  1  0.327900  0.072200  0.258400  1
  H  H36  1  0.672100  0.927800  0.741600  1
  H  H37  1  0.482800  0.851300  0.279700  1
  H  H38  1  0.517200  0.148700  0.720300  1
  H  H39  1  0.135000  0.048800  0.005000  1
  H  H40  1  0.865000  0.951200  0.995000  1
  H  H41  1  0.364300  0.939000  0.294100  1
  H  H42  1  0.635700  0.061000  0.705900  1
  H  H43  1  0.100600  0.100100  0.416700  1
  H  H44  1  0.899400  0.899900  0.583300  1
  H  H45  1  0.263700  0.983200  0.014400  1
  H  H46  1  0.736300  0.016800  0.985600  1
  H  H47  1  0.351000  0.197600  0.348000  1
  H  H48  1  0.649000  0.802400  0.652000  1
  H  H49  1  0.568000  0.094200  0.902000  1
  H  H50  1  0.432000  0.905800  0.098000  1
  H  H51  1  0.401100  0.051300  0.894300  1
  H  H52  1  0.598900  0.948700  0.105700  1
  H  H53  1  0.337400  0.155200  0.986300  1
  H  H54  1  0.662600  0.844800  0.013700  1
  H  H55  1  0.421400  0.130200  0.897300  1
  H  H56  1  0.578600  0.869800  0.102700  1
  H  H57  1  0.542100  0.607800  0.010500  1
  H  H58  1  0.457900  0.392200  0.989500  1
  H  H59  1  0.601400  0.564300  0.901300  1
  H  H60  1  0.398600  0.435700  0.098700  1
  H  H61  1  0.733500  0.471700  0.907400  1
  H  H62  1  0.266500  0.528300  0.092600  1
  H  H63  1  0.960900  0.390600  0.194300  1.0
  H  H64  1  0.039100  0.609400  0.805700  1.0
  H  H65  1  0.300300  0.425500  0.278300  1.0
  H  H66  1  0.699700  0.574500  0.721700  1.0
  H  H67  1  0.631300  0.512200  0.518400  1.0
  H  H68  1  0.368700  0.487800  0.481600  1.0
  H  H69  1  0.556900  0.557600  0.564100  1.0
  H  H70  1  0.443100  0.442400  0.435900  1.0
  H  H71  1  0.672100  0.588200  0.582400  1.0
  H  H72  1  0.327900  0.411800  0.417600  1.0
  H  H73  1  0.336500  0.712500  0.457200  1.0
  H  H74  1  0.663500  0.287500  0.542800  1.0
  H  H75  1  0.022200  0.686200  0.528100  1.0
  H  H76  1  0.977800  0.313800  0.471900  1.0
  H  H77  1  0.110700  0.747600  0.503200  1.0
  H  H78  1  0.889300  0.252400  0.496800  1.0
  H  H79  1  0.058200  0.656800  0.455700  1.0
  H  H80  1  0.941800  0.343200  0.544300  1.0
  H  H81  1  0.828300  0.448600  0.285700  1.0
  H  H82  1  0.171700  0.551400  0.714300  1.0
  H  H83  1  0.763300  0.422700  0.217000  1.0
  H  H84  1  0.236700  0.577300  0.783000  1.0
  H  H85  1  0.713900  0.408300  0.283400  1.0
  H  H86  1  0.286100  0.591700  0.716600  1.0
  H  H87  1  0.052400  0.877800  0.470000  1.0
  H  H88  1  0.947600  0.122200  0.530000  1.0
  H  H89  1  0.234900  0.706200  0.272600  1.0
  H  H90  1  0.765100  0.293800  0.727400  1.0
  H  H91  1  0.873100  0.340600  0.362100  1.0
  H  H92  1  0.126900  0.659400  0.637900  1.0
  H  H93  1  0.685800  0.545700  0.185700  1.0
  H  H94  1  0.314200  0.454300  0.814300  1.0
  H  H95  1  0.241500  0.574000  0.449000  1.0
  H  H96  1  0.758500  0.426000  0.551000  1.0
  H  H97  1  0.109100  0.614200  0.174200  1.0
  H  H98  1  0.890900  0.385800  0.825800  1.0
  H  H99  1  0.509600  0.694600  0.532900  1.0
  H  H100  1  0.490400  0.305400  0.467100  1.0
  H  H101  1  0.873900  0.575100  0.124500  1.0
  H  H102  1  0.126100  0.424900  0.875500  1.0
  H  H103  1  0.613800  0.744900  0.261200  1.0
  H  H104  1  0.386200  0.255100  0.738800  1.0
  H  H105  1  0.644800  0.702800  0.189600  1.0
  H  H106  1  0.355200  0.297200  0.810400  1.0
  H  H107  1  0.722600  0.774500  0.240900  1.0
  H  H108  1  0.277400  0.225500  0.759100  1.0
  H  H109  1  0.330100  0.779500  0.369500  1.0
  H  H110  1  0.669900  0.220500  0.630500  1.0
  H  H111  1  0.316800  0.176700  0.126200  1.0
  H  H112  1  0.683200  0.823300  0.873800  1.0
  H  H113  1  0.529700  0.429000  0.324400  1.0
  H  H114  1  0.470300  0.571000  0.675600  1.0
  H  H115  1  0.718300  0.793200  0.370600  1.0
  H  H116  1  0.281700  0.206800  0.629400  1.0
  H  H117  1  0.789400  0.202500  0.346600  1.0
  H  H118  1  0.210600  0.797500  0.653400  1.0
  H  H119  1  0.611600  0.869500  0.461700  1.0
  H  H120  1  0.388400  0.130500  0.538300  1.0
  H  H121  1  0.502400  0.824000  0.471700  1.0
  H  H122  1  0.497600  0.176000  0.528300  1.0
  H  H123  1  0.544900  0.804500  0.400300  1.0
  H  H124  1  0.455100  0.195500  0.599700  1.0
  H  H125  1  0.866200  0.087800  0.303000  1.0
  H  H126  1  0.133800  0.912200  0.697000  1.0
  H  H127  1  0.454100  0.657200  0.314100  1.0
  H  H128  1  0.545900  0.342800  0.685900  1.0
  H  H129  1  0.522800  0.583900  0.381500  1.0
  H  H130  1  0.477200  0.416100  0.618500  1.0
  H  H131  1  0.180900  0.178000  0.204600  1.0
  H  H132  1  0.819100  0.822000  0.795400  1.0
  H  H133  1  0.177300  0.222800  0.050900  1.0
  H  H134  1  0.822700  0.777200  0.949100  1.0
  H  H135  1  0.907200  0.235000  0.961100  1.0
  H  H136  1  0.092800  0.765000  0.038900  1.0
  H  H137  1  0.024000  0.119000  0.267500  1.0
  H  H138  1  0.976000  0.881000  0.732500  1.0
  H  H139  1  0.864000  0.907900  0.360100  1.0
  H  H140  1  0.136000  0.092100  0.639900  1.0
  H  H141  1  0.947700  0.970100  0.412500  1.0
  H  H142  1  0.052300  0.029900  0.587500  1.0
  H  H143  1  0.838600  0.946200  0.434000  1.0
  H  H144  1  0.161400  0.053800  0.566000  1.0
  H  H145  1  0.054600  0.156300  0.964100  1.0
  H  H146  1  0.945400  0.843700  0.035900  1.0
  H  H147  1  0.531200  0.557200  0.949100  1.0
  H  H148  1  0.468800  0.442800  0.050900  1.0
  H  H149  1  0.621100  0.684600  0.011700  1.0
  H  H150  1  0.378900  0.315400  0.988300  1.0
  H  H151  1  0.783200  0.674200  0.076100  1.0
  H  H152  1  0.216800  0.325800  0.923900  1.0
  H  H153  1  0.371800  0.021800  0.952900  1.0
  H  H154  1  0.628200  0.978200  0.047100  1.0
  H  H155  1  0.450300  0.051800  0.070900  1.0
  H  H156  1  0.549700  0.948200  0.929100  1.0
  C  C157  1  0.089000  0.850700  0.230700  1
  C  C158  1  0.911000  0.149300  0.769300  1
  C  C159  1  0.169600  0.960900  0.155600  1
  C  C160  1  0.830400  0.039100  0.844400  1
  C  C161  1  0.007900  0.817600  0.185600  1
  C  C162  1  0.992100  0.182400  0.814400  1
  C  C163  1  0.272600  0.871100  0.214700  1
  C  C164  1  0.727400  0.128900  0.785300  1
  C  C165  1  0.264800  0.796000  0.164600  1
  C  C166  1  0.735200  0.204000  0.835400  1
  C  C167  1  0.938900  0.713900  0.245300  1
  C  C168  1  0.061100  0.286100  0.754700  1
  C  C169  1  0.199800  0.007800  0.285600  1
  C  C170  1  0.800200  0.992200  0.714400  1
  C  C171  1  0.089400  0.812300  0.284400  1
  C  C172  1  0.910600  0.187700  0.715600  1
  C  C173  1  0.015000  0.745600  0.291500  1
  C  C174  1  0.985000  0.254400  0.708500  1
  C  C175  1  0.091300  0.000500  0.145900  1
  C  C176  1  0.908700  0.999500  0.854100  1
  C  C177  1  0.933600  0.750700  0.193200  1
  C  C178  1  0.066400  0.249300  0.806800  1
  C  C179  1  0.226000  0.159100  0.391200  1
  C  C180  1  0.774000  0.840900  0.608800  1
  C  C181  1  0.133200  0.020800  0.333100  1
  C  C182  1  0.866800  0.979200  0.666900  1
  C  C183  1  0.231600  0.958300  0.104900  1
  C  C184  1  0.768400  0.041700  0.895100  1
  C  C185  1  0.078100  0.033100  0.090500  1
  C  C186  1  0.921900  0.966900  0.909500  1
  C  C187  1  0.333900  0.746100  0.155600  1
  C  C188  1  0.666100  0.253900  0.844400  1
  C  C189  1  0.414600  0.768900  0.198100  1
  C  C190  1  0.585400  0.231100  0.801900  1
  C  C191  1  0.281200  0.076200  0.290800  1
  C  C192  1  0.718800  0.923800  0.709200  1
  C  C193  1  0.427000  0.837600  0.249400  1
  C  C194  1  0.573000  0.162400  0.750600  1
  C  C195  1  0.143700  0.026300  0.042800  1
  C  C196  1  0.856300  0.973700  0.957200  1
  C  C197  1  0.355300  0.889800  0.257900  1
  C  C198  1  0.644700  0.110200  0.742100  1
  C  C199  1  0.148000  0.095200  0.384900  1
  C  C200  1  0.852000  0.904800  0.615100  1
  C  C201  1  0.219300  0.988900  0.048200  1
  C  C202  1  0.780700  0.011100  0.951800  1
  C  C203  1  0.295000  0.152300  0.344500  1
  C  C204  1  0.705000  0.847700  0.655500  1
  C  C205  1  0.529900  0.113700  0.937300  1
  C  C206  1  0.470100  0.886300  0.062700  1
  C  C207  1  0.439100  0.093000  0.929900  1
  C  C208  1  0.560900  0.907000  0.070100  1
  C  C209  1  0.402400  0.145900  0.986600  1
  C  C210  1  0.597600  0.854100  0.013400  1
  C  C211  1  0.740500  0.522300  0.011500  1
  C  C212  1  0.259500  0.477700  0.988500  1
  C  C213  1  0.604400  0.595200  0.000500  1
  C  C214  1  0.395600  0.404800  0.999500  1
  C  C215  1  0.709600  0.506900  0.943800  1
  C  C216  1  0.290400  0.493100  0.056200  1
  C  C217  1  0.630200  0.558600  0.941500  1
  C  C218  1  0.369800  0.441400  0.058500  1
  C  C219  1  0.534000  0.167400  0.053600  1
  C  C220  1  0.466000  0.832600  0.946400  1
  C  C221  1  0.910700  0.535800  0.396800  1.0
  C  C222  1  0.089300  0.464200  0.603200  1.0
  C  C223  1  0.728500  0.476100  0.419100  1.0
  C  C224  1  0.271500  0.523900  0.580900  1.0
  C  C225  1  0.847800  0.585600  0.513700  1.0
  C  C226  1  0.152200  0.414400  0.486300  1.0
  C  C227  1  0.441000  0.366500  0.194500  1.0
  C  C228  1  0.559000  0.633500  0.805500  1.0
  C  C229  1  0.621100  0.567100  0.546000  1.0
  C  C230  1  0.378900  0.432900  0.454000  1.0
  C  C231  1  0.597500  0.742400  0.464000  1.0
  C  C232  1  0.402500  0.257600  0.536000  1.0
  C  C233  1  0.112300  0.548300  0.251600  1.0
  C  C234  1  0.887700  0.451700  0.748400  1.0
  C  C235  1  0.180300  0.597800  0.306700  1.0
  C  C236  1  0.819700  0.402200  0.693300  1.0
  C  C237  1  0.296100  0.683500  0.418200  1.0
  C  C238  1  0.703900  0.316500  0.581800  1.0
  C  C239  1  0.048200  0.706500  0.489700  1.0
  C  C240  1  0.951800  0.293500  0.510300  1.0
  C  C241  1  0.625600  0.632200  0.505600  1.0
  C  C242  1  0.374400  0.367800  0.494400  1.0
  C  C243  1  0.763900  0.446100  0.264800  1.0
  C  C244  1  0.236100  0.553900  0.735200  1.0
  C  C245  1  0.978600  0.749900  0.463000  1.0
  C  C246  1  0.021400  0.250100  0.537000  1.0
  C  C247  1  0.994100  0.835100  0.456400  1.0
  C  C248  1  0.005900  0.164900  0.543600  1.0
  C  C249  1  0.236100  0.680100  0.309300  1.0
  C  C250  1  0.763900  0.319900  0.690700  1.0
  C  C251  1  0.903500  0.294600  0.341700  1.0
  C  C252  1  0.096500  0.705400  0.658300  1.0
  C  C253  1  0.704300  0.572400  0.231000  1.0
  C  C254  1  0.295700  0.427600  0.769000  1.0
  C  C255  1  0.698000  0.655600  0.263100  1.0
  C  C256  1  0.302000  0.344400  0.736900  1.0
  C  C257  1  0.743100  0.534500  0.277400  1.0
  C  C258  1  0.256900  0.465500  0.722600  1.0
  C  C259  1  0.239800  0.601100  0.412900  1.0
  C  C260  1  0.760200  0.398900  0.587100  1.0
  C  C261  1  0.083900  0.564800  0.191000  1.0
  C  C262  1  0.916100  0.435200  0.809000  1.0
  C  C263  1  0.564300  0.690800  0.507100  1.0
  C  C264  1  0.435700  0.309200  0.492900  1.0
  C  C265  1  0.359800  0.300900  0.188500  1.0
  C  C266  1  0.640200  0.699100  0.811500  1.0
  C  C267  1  0.879900  0.524400  0.092600  1.0
  C  C268  1  0.120100  0.475600  0.907400  1.0
  C  C269  1  0.274700  0.303000  0.227500  1.0
  C  C270  1  0.725300  0.697000  0.772500  1.0
  C  C271  1  0.012900  0.495000  0.161400  1.0
  C  C272  1  0.987100  0.505000  0.838600  1.0
  C  C273  1  0.460300  0.452300  0.241800  1.0
  C  C274  1  0.539700  0.547700  0.758200  1.0
  C  C275  1  0.132800  0.278100  0.273900  1.0
  C  C276  1  0.867200  0.721900  0.726100  1.0
  C  C277  1  0.667100  0.725400  0.236400  1.0
  C  C278  1  0.332900  0.274600  0.763600  1.0
  C  C279  1  0.292800  0.722500  0.366100  1.0
  C  C280  1  0.707200  0.277500  0.633900  1.0
  C  C281  1  0.034100  0.250100  0.294600  1.0
  C  C282  1  0.965900  0.749900  0.705400  1.0
  C  C283  1  0.366300  0.228100  0.136400  1.0
  C  C284  1  0.633700  0.771900  0.863600  1.0
  C  C285  1  0.949700  0.476000  0.100300  1.0
  C  C286  1  0.050300  0.524000  0.899700  1.0
  C  C287  1  0.911800  0.846900  0.427100  1.0
  C  C288  1  0.088200  0.153100  0.572900  1.0
  C  C289  1  0.820600  0.493200  0.035500  1.0
  C  C290  1  0.179400  0.506800  0.964500  1.0
  C  C291  1  0.503000  0.468400  0.305200  1.0
  C  C292  1  0.497000  0.531600  0.694800  1.0
  C  C293  1  0.949800  0.406100  0.047900  1.0
  C  C294  1  0.050200  0.593900  0.952100  1.0
  C  C295  1  0.854600  0.213900  0.333900  1.0
  C  C296  1  0.145400  0.786100  0.666100  1.0
  C  C297  1  0.561000  0.816400  0.448100  1.0
  C  C298  1  0.439000  0.183600  0.551900  1.0
  C  C299  1  0.004700  0.336800  0.037100  1.0
  C  C300  1  0.995300  0.663200  0.962900  1.0
  C  C301  1  0.899300  0.146300  0.307100  1.0
  C  C302  1  0.100700  0.853700  0.692900  1.0
  C  C303  1  0.461000  0.598700  0.299400  1.0
  C  C304  1  0.539000  0.401300  0.700600  1.0
  C  C305  1  0.499200  0.557800  0.336900  1.0
  C  C306  1  0.500800  0.442200  0.663100  1.0
  C  C307  1  0.448200  0.237100  0.102400  1.0
  C  C308  1  0.551800  0.762900  0.897600  1.0
  C  C309  1  0.193000  0.236900  0.228600  1.0
  C  C310  1  0.807000  0.763100  0.771400  1.0
  C  C311  1  0.125100  0.249100  0.041700  1.0
  C  C312  1  0.874900  0.750900  0.958300  1.0
  C  C313  1  0.966800  0.254400  0.988000  1.0
  C  C314  1  0.033200  0.745600  0.012000  1.0
  C  C315  1  0.991300  0.164000  0.286500  1.0
  C  C316  1  0.008700  0.836000  0.713500  1.0
  C  C317  1  0.888500  0.924500  0.406700  1.0
  C  C318  1  0.111500  0.075500  0.593300  1.0
  C  C319  1  0.052200  0.210100  0.993600  1.0
  C  C320  1  0.947800  0.789900  0.006400  1.0
  C  C321  1  0.472400  0.183300  0.043600  1.0
  C  C322  1  0.527600  0.816700  0.956400  1.0
  C  C323  1  0.590600  0.560000  0.973400  1.0
  C  C324  1  0.409400  0.440000  0.026600  1.0
  C  C325  1  0.641700  0.631200  0.008800  1.0
  C  C326  1  0.358300  0.368800  0.991200  1.0
  C  C327  1  0.738100  0.629000  0.046900  1.0
  C  C328  1  0.261900  0.371000  0.953100  1.0
  C  C329  1  0.738300  0.537800  0.024800  1.0
  C  C330  1  0.261700  0.462200  0.975200  1.0
  C  C331  1  0.447000  0.131000  0.940100  1.0
  C  C332  1  0.553000  0.869000  0.059900  1.0
  C  C333  1  0.419400  0.072800  0.971800  1.0
  C  C334  1  0.580600  0.927200  0.028200  1.0
  C  C335  1  0.465400  0.088600  0.041100  1.0
  C  C336  1  0.534600  0.911400  0.958900  1.0
  S  S337  1  0.588400  0.179200  0.013400  1
  S  S338  1  0.411600  0.820800  0.986600  1
  S  S339  1  0.705600  0.615700  0.056000  1
  S  S340  1  0.294400  0.384300  0.944000  1
  S  S341  1  0.424750  0.539650  0.223000  1.0
  S  S342  1  0.575250  0.460350  0.777000  1.0
  S  S343  1  0.854600  0.402890  0.988800  1.0
  S  S344  1  0.145400  0.597110  0.011200  1.0
  S  S345  1  0.521970  0.339120  0.136900  1.0
  S  S346  1  0.478030  0.660880  0.863100  1.0
  S  S347  1  0.113600  0.348840  0.083210  1.0
  S  S348  1  0.886400  0.651160  0.916790  1.0
  S  S349  1  0.640000  0.469300  0.974000  1.0
  S  S350  1  0.360000  0.530700  0.026000  1.0
  S  S351  1  0.538500  0.210900  0.985200  1.0
  S  S352  1  0.461500  0.789100  0.014800  1.0
  N  N353  1  0.974000  0.500500  0.382400  1.0
  N  N354  1  0.026000  0.499500  0.617600  1.0
  N  N355  1  0.886400  0.709300  0.436500  1.0
  N  N356  1  0.113600  0.290700  0.563500  1.0
  N  N357  1  0.732300  0.665900  0.326800  1.0
  N  N358  1  0.267700  0.334100  0.673200  1.0
  N  N359  1  0.002300  0.441000  0.202600  1.0
  N  N360  1  0.997700  0.559000  0.797400  1.0
  N  N361  1  0.759500  0.592500  0.335900  1.0
  N  N362  1  0.240500  0.407500  0.664100  1.0
  N  N363  1  0.060900  0.472200  0.257200  1.0
  N  N364  1  0.939100  0.527800  0.742800  1.0
  N  N365  1  0.676100  0.713400  0.437000  1.0
  N  N366  1  0.323900  0.286600  0.563000  1.0
  N  N367  1  0.258900  0.375100  0.270100  1.0
  N  N368  1  0.741100  0.624900  0.729900  1.0
  N  N369  1  0.693300  0.645600  0.461500  1.0
  N  N370  1  0.306700  0.354400  0.538500  1.0
  N  N371  1  0.846100  0.770000  0.415700  1.0
  N  N372  1  0.153900  0.230000  0.584300  1.0
  N  N373  1  0.182800  0.558700  0.358000  1.0
  N  N374  1  0.817200  0.441300  0.642000  1.0
  N  N375  1  0.991100  0.314300  0.322900  1.0
  N  N376  1  0.008900  0.685700  0.677100  1.0
  N  N377  1  0.174700  0.362100  0.298200  1.0
  N  N378  1  0.825300  0.637900  0.701800  1.0
  N  N379  1  0.683000  0.407500  0.414100  1.0
  N  N380  1  0.317000  0.592500  0.585900  1.0
  N  N381  1  0.124700  0.421400  0.436500  1.0
  N  N382  1  0.875300  0.578600  0.563500  1.0
