# generated using pymatgen
data_ZnH107C92N17Cl21O4
_symmetry_space_group_name_H-M   'P 1'
_cell_length_a   13.23000000
_cell_length_b   18.19900000
_cell_length_c   21.74600000
_cell_angle_alpha   112.84200000
_cell_angle_beta   105.02000000
_cell_angle_gamma   95.22300000
_symmetry_Int_Tables_number   1
_chemical_formula_structural   ZnH107C92N17Cl21O4
_chemical_formula_sum   'Zn2 H214 C184 N34 Cl42 O8'
_cell_volume   4551.09855145
_cell_formula_units_Z   2
loop_
 _symmetry_equiv_pos_site_id
 _symmetry_equiv_pos_as_xyz
  1  'x, y, z'
loop_
 _atom_site_type_symbol
 _atom_site_label
 _atom_site_symmetry_multiplicity
 _atom_site_fract_x
 _atom_site_fract_y
 _atom_site_fract_z
 _atom_site_occupancy
  Zn  Zn1  1  0.252670  0.466840  0.567640  1.0
  Zn  Zn2  1  0.747330  0.533160  0.432360  1.0
  H  H3  1  0.065900  0.890300  0.681700  1
  H  H4  1  0.934100  0.109700  0.318300  1
  H  H5  1  0.245100  0.315300  0.143600  1
  H  H6  1  0.754900  0.684700  0.856400  1
  H  H7  1  0.241000  0.354200  0.088700  1
  H  H8  1  0.759000  0.645800  0.911300  1
  H  H9  1  0.198200  0.258200  0.060700  1
  H  H10  1  0.801800  0.741800  0.939300  1
  H  H11  1  0.040500  0.276300  0.087500  1
  H  H12  1  0.959500  0.723700  0.912500  1
  H  H13  1  0.060900  0.352600  0.067600  1
  H  H14  1  0.939100  0.647400  0.932400  1
  H  H15  1  0.172500  0.359300  0.205100  1
  H  H16  1  0.827500  0.640700  0.794900  1
  H  H17  1  0.181000  0.435400  0.185200  1
  H  H18  1  0.819000  0.564600  0.814800  1
  H  H19  1  0.997200  0.362100  0.205100  1
  H  H20  1  0.002800  0.637900  0.794900  1
  H  H21  1  0.985400  0.421200  0.166100  1
  H  H22  1  0.014600  0.578800  0.833900  1
  H  H23  1  0.031100  0.475800  0.302800  1
  H  H24  1  0.968900  0.524200  0.697200  1
  H  H25  1  0.060000  0.532600  0.266500  1
  H  H26  1  0.940000  0.467400  0.733500  1
  H  H27  1  0.148600  0.490300  0.296900  1
  H  H28  1  0.851400  0.509700  0.703100  1
  H  H29  1  0.573700  0.534800  0.290400  1
  H  H30  1  0.426300  0.465200  0.709600  1
  H  H31  1  0.335800  0.829800  0.274600  1
  H  H32  1  0.664200  0.170200  0.725400  1
  H  H33  1  0.059400  0.864900  0.658700  1
  H  H34  1  0.940600  0.135100  0.341300  1
  H  H35  1  0.193700  0.544100  0.292400  1
  H  H36  1  0.806300  0.455900  0.707600  1
  H  H37  1  0.415000  0.232800  0.881400  1
  H  H38  1  0.585000  0.767200  0.118600  1
  H  H39  1  0.112200  0.108700  0.792500  1
  H  H40  1  0.887800  0.891300  0.207500  1
  H  H41  1  0.501800  0.305000  0.925200  1
  H  H42  1  0.498200  0.695000  0.074800  1
  H  H43  1  0.557900  0.350700  0.889000  1
  H  H44  1  0.442100  0.649300  0.111000  1
  H  H45  1  0.499300  0.256300  0.845600  1
  H  H46  1  0.500700  0.743700  0.154400  1
  H  H47  1  0.401200  0.371700  0.833400  1
  H  H48  1  0.598800  0.628300  0.166600  1
  H  H49  1  0.360700  0.357900  0.893000  1
  H  H50  1  0.639300  0.642100  0.107000  1
  H  H51  1  0.290500  0.251800  0.753800  1
  H  H52  1  0.709500  0.748200  0.246200  1
  H  H53  1  0.368300  0.208200  0.791400  1
  H  H54  1  0.631700  0.791800  0.208600  1
  H  H55  1  0.169400  0.242900  0.808500  1
  H  H56  1  0.830600  0.757100  0.191500  1
  H  H57  1  0.258700  0.250000  0.877600  1
  H  H58  1  0.741300  0.750000  0.122400  1
  H  H59  1  0.222800  0.105000  0.753700  1
  H  H60  1  0.777200  0.895000  0.246300  1
  H  H61  1  0.131600  0.112000  0.790500  1
  H  H62  1  0.868400  0.888000  0.209500  1
  H  H63  1  0.251400  0.114900  0.833100  1
  H  H64  1  0.748600  0.885100  0.166900  1
  H  H65  1  0.124300  0.540500  0.935100  1
  H  H66  1  0.875700  0.459500  0.064900  1
  H  H67  1  0.231700  0.602100  0.950300  1
  H  H68  1  0.768300  0.397900  0.049700  1
  H  H69  1  0.213800  0.578700  0.011100  1
  H  H70  1  0.786200  0.421300  0.988900  1
  H  H71  1  0.264400  0.474300  0.889400  1
  H  H72  1  0.735600  0.525700  0.110600  1
  H  H73  1  0.215800  0.435900  0.934100  1
  H  H74  1  0.784200  0.564100  0.065900  1
  H  H75  1  0.407700  0.563900  0.991300  1
  H  H76  1  0.592300  0.436100  0.008700  1
  H  H77  1  0.353400  0.542100  0.041800  1
  H  H78  1  0.646600  0.457900  0.958200  1
  H  H79  1  0.501700  0.472600  0.015700  1
  H  H80  1  0.498300  0.527400  0.984300  1
  H  H81  1  0.417300  0.417000  0.939000  1
  H  H82  1  0.582700  0.583000  0.061000  1
  H  H83  1  0.309000  0.407100  0.023600  1
  H  H84  1  0.691000  0.592900  0.976400  1
  H  H85  1  0.427700  0.405100  0.064200  1
  H  H86  1  0.572300  0.594900  0.935800  1
  H  H87  1  0.366700  0.337400  0.985600  1
  H  H88  1  0.633300  0.662600  0.014400  1
  H  H89  1  0.127800  0.352800  0.725400  1.0
  H  H90  1  0.872200  0.647200  0.274600  1.0
  H  H91  1  0.195600  0.501000  0.802800  1.0
  H  H92  1  0.804400  0.499000  0.197200  1.0
  H  H93  1  0.399200  0.600600  0.869900  1.0
  H  H94  1  0.600800  0.399400  0.130100  1.0
  H  H95  1  0.394100  0.684800  0.981700  1.0
  H  H96  1  0.605900  0.315200  0.018300  1.0
  H  H97  1  0.191700  0.797800  0.896200  1.0
  H  H98  1  0.808300  0.202200  0.103800  1.0
  H  H99  1  0.194100  0.712400  0.784700  1.0
  H  H100  1  0.805900  0.287600  0.215300  1.0
  H  H101  1  0.223900  0.827400  0.017300  1.0
  H  H102  1  0.776100  0.172600  0.982700  1.0
  H  H103  1  0.287900  0.773400  0.049800  1.0
  H  H104  1  0.712100  0.226600  0.950200  1.0
  H  H105  1  0.327500  0.975300  0.058400  1.0
  H  H106  1  0.672500  0.024700  0.941600  1.0
  H  H107  1  0.564900  0.101200  0.196800  1.0
  H  H108  1  0.435100  0.898800  0.803200  1.0
  H  H109  1  0.604500  0.089000  0.130500  1.0
  H  H110  1  0.395500  0.911000  0.869500  1.0
  H  H111  1  0.458700  0.071800  0.023700  1.0
  H  H112  1  0.541300  0.928200  0.976300  1.0
  H  H113  1  0.535700  0.161000  0.066200  1.0
  H  H114  1  0.464300  0.839000  0.933800  1.0
  H  H115  1  0.409200  0.746600  0.781900  1.0
  H  H116  1  0.590800  0.253400  0.218100  1.0
  H  H117  1  0.455300  0.766800  0.685800  1.0
  H  H118  1  0.544700  0.233200  0.314200  1.0
  H  H119  1  0.305300  0.755200  0.566600  1.0
  H  H120  1  0.694700  0.244800  0.433400  1.0
  H  H121  1  0.363400  0.873300  0.556500  1.0
  H  H122  1  0.636600  0.126700  0.443500  1.0
  H  H123  1  0.622700  0.788000  0.515300  1.0
  H  H124  1  0.377300  0.212000  0.484700  1.0
  H  H125  1  0.558600  0.667000  0.519600  1.0
  H  H126  1  0.441400  0.333000  0.480400  1.0
  H  H127  1  0.488800  0.957700  0.545300  1.0
  H  H128  1  0.511200  0.042300  0.454700  1.0
  H  H129  1  0.606900  0.954200  0.585300  1.0
  H  H130  1  0.393100  0.045800  0.414700  1.0
  H  H131  1  0.461900  0.829400  0.391400  1.0
  H  H132  1  0.538100  0.170600  0.608600  1.0
  H  H133  1  0.648000  0.883400  0.298500  1.0
  H  H134  1  0.352000  0.116600  0.701500  1.0
  H  H135  1  0.573500  0.799900  0.284000  1.0
  H  H136  1  0.426500  0.200100  0.716000  1.0
  H  H137  1  0.532000  0.998800  0.332100  1.0
  H  H138  1  0.468000  0.001200  0.667900  1.0
  H  H139  1  0.567100  0.976900  0.262800  1.0
  H  H140  1  0.432900  0.023100  0.737200  1.0
  H  H141  1  0.384300  0.935400  0.197000  1.0
  H  H142  1  0.615700  0.064600  0.803000  1.0
  H  H143  1  0.427300  0.031400  0.244500  1.0
  H  H144  1  0.572700  0.968600  0.755500  1.0
  H  H145  1  0.199700  0.943600  0.195300  1.0
  H  H146  1  0.800300  0.056400  0.804700  1.0
  H  H147  1  0.241400  0.040700  0.237600  1.0
  H  H148  1  0.758600  0.959300  0.762400  1.0
  H  H149  1  0.400000  0.577500  0.416200  1.0
  H  H150  1  0.600000  0.422500  0.583800  1.0
  H  H151  1  0.328500  0.429400  0.337400  1.0
  H  H152  1  0.671500  0.570600  0.662600  1.0
  H  H153  1  0.370200  0.280600  0.319600  1.0
  H  H154  1  0.629800  0.719400  0.680400  1.0
  H  H155  1  0.319300  0.185300  0.202300  1.0
  H  H156  1  0.680700  0.814700  0.797700  1.0
  H  H157  1  0.008400  0.179900  0.187300  1.0
  H  H158  1  0.991600  0.820100  0.812700  1.0
  H  H159  1  0.057900  0.275000  0.303800  1.0
  H  H160  1  0.942100  0.725000  0.696200  1.0
  H  H161  1  0.149100  0.131200  0.080000  1.0
  H  H162  1  0.850900  0.868800  0.920000  1.0
  H  H163  1  0.172500  0.063700  0.108800  1.0
  H  H164  1  0.827500  0.936300  0.891200  1.0
  H  H165  1  0.991100  0.988600  0.124000  1.0
  H  H166  1  0.008900  0.011400  0.876000  1.0
  H  H167  1  0.772900  0.930700  0.086700  1.0
  H  H168  1  0.227100  0.069300  0.913300  1.0
  H  H169  1  0.702600  0.984400  0.057000  1.0
  H  H170  1  0.297400  0.015600  0.943000  1.0
  H  H171  1  0.618900  0.827500  0.005200  1.0
  H  H172  1  0.381100  0.172500  0.994800  1.0
  H  H173  1  0.618100  0.782000  0.925500  1.0
  H  H174  1  0.381900  0.218000  0.074500  1.0
  H  H175  1  0.156500  0.176300  0.369000  1.0
  H  H176  1  0.843500  0.823700  0.631000  1.0
  H  H177  1  0.112400  0.157000  0.465700  1.0
  H  H178  1  0.887600  0.843000  0.534300  1.0
  H  H179  1  0.949400  0.228100  0.540200  1.0
  H  H180  1  0.050600  0.771900  0.459800  1.0
  H  H181  1  0.864000  0.108600  0.537500  1.0
  H  H182  1  0.136000  0.891400  0.462500  1.0
  H  H183  1  0.143200  0.086200  0.645300  1.0
  H  H184  1  0.856800  0.913800  0.354700  1.0
  H  H185  1  0.227600  0.208000  0.652300  1.0
  H  H186  1  0.772400  0.792000  0.347700  1.0
  H  H187  1  0.879000  0.981600  0.540600  1.0
  H  H188  1  0.121000  0.018400  0.459400  1.0
  H  H189  1  0.993900  0.965100  0.571200  1.0
  H  H190  1  0.006100  0.034900  0.428800  1.0
  H  H191  1  0.772200  0.029000  0.628600  1.0
  H  H192  1  0.227800  0.971000  0.371400  1.0
  H  H193  1  0.094700  0.573600  0.615800  1.0
  H  H194  1  0.905300  0.426400  0.384200  1.0
  H  H195  1  0.040600  0.483500  0.601400  1.0
  H  H196  1  0.959400  0.516500  0.398600  1.0
  H  H197  1  0.045700  0.379700  0.430500  1.0
  H  H198  1  0.954300  0.620300  0.569500  1.0
  H  H199  1  0.010200  0.367800  0.491800  1.0
  H  H200  1  0.989800  0.632200  0.508200  1.0
  H  H201  1  0.125900  0.508100  0.447000  1.0
  H  H202  1  0.874100  0.491900  0.553000  1.0
  H  H203  1  0.149800  0.589100  0.518400  1.0
  H  H204  1  0.850200  0.410900  0.481600  1.0
  H  H205  1  0.990900  0.611500  0.477500  1.0
  H  H206  1  0.009100  0.388500  0.522500  1.0
  H  H207  1  0.967600  0.531200  0.405800  1.0
  H  H208  1  0.032400  0.468800  0.594200  1.0
  H  H209  1  0.882600  0.504400  0.560000  1.0
  H  H210  1  0.117400  0.495600  0.440000  1.0
  H  H211  1  0.936600  0.594700  0.575100  1.0
  H  H212  1  0.063400  0.405300  0.424900  1.0
  H  H213  1  0.852300  0.389700  0.450300  1.0
  H  H214  1  0.147700  0.610300  0.549700  1.0
  H  H215  1  0.887800  0.401400  0.389100  1.0
  H  H216  1  0.112200  0.598600  0.610900  1.0
  C  C217  1  0.141100  0.886100  0.682700  1
  C  C218  1  0.858900  0.113900  0.317300  1
  C  C219  1  0.204200  0.312200  0.097800  1
  C  C220  1  0.795800  0.687800  0.902200  1
  C  C221  1  0.091500  0.326400  0.098300  1
  C  C222  1  0.908500  0.673600  0.901700  1
  C  C223  1  0.132300  0.385700  0.177400  1
  C  C224  1  0.867700  0.614300  0.822600  1
  C  C225  1  0.035600  0.408800  0.201500  1
  C  C226  1  0.964400  0.591200  0.798500  1
  C  C227  1  0.072100  0.483700  0.273400  1
  C  C228  1  0.927900  0.516300  0.726600  1
  C  C229  1  0.517800  0.563600  0.275700  1
  C  C230  1  0.482200  0.436400  0.724300  1
  C  C231  1  0.276200  0.780400  0.252900  1
  C  C232  1  0.723800  0.219600  0.747100  1
  C  C233  1  0.132900  0.855000  0.674200  1
  C  C234  1  0.867100  0.145000  0.325800  1
  C  C235  1  0.119500  0.551900  0.291200  1
  C  C236  1  0.880500  0.448100  0.708800  1
  C  C237  1  0.347000  0.252000  0.879900  1
  C  C238  1  0.653000  0.748000  0.120100  1
  C  C239  1  0.137000  0.169000  0.821600  1
  C  C240  1  0.863000  0.831000  0.178400  1
  C  C241  1  0.497200  0.309200  0.881000  1
  C  C242  1  0.502800  0.690800  0.119000  1
  C  C243  1  0.391600  0.333400  0.854700  1
  C  C244  1  0.608400  0.666600  0.145300  1
  C  C245  1  0.322900  0.249100  0.799100  1
  C  C246  1  0.677100  0.750900  0.200900  1
  C  C247  1  0.234400  0.224000  0.825500  1
  C  C248  1  0.765600  0.776000  0.174500  1
  C  C249  1  0.208000  0.130500  0.798200  1
  C  C250  1  0.792000  0.869500  0.201800  1
  C  C251  1  0.201400  0.558400  0.960300  1
  C  C252  1  0.798600  0.441600  0.039700  1
  C  C253  1  0.255800  0.485900  0.935900  1
  C  C254  1  0.744200  0.514100  0.064100  1
  C  C255  1  0.364800  0.519500  0.995400  1
  C  C256  1  0.635200  0.480500  0.004600  1
  C  C257  1  0.424600  0.449700  0.989000  1
  C  C258  1  0.575400  0.550300  0.011000  1
  C  C259  1  0.378000  0.394800  0.018300  1
  C  C260  1  0.622000  0.605200  0.981700  1
  C  C261  1  0.182700  0.376590  0.649310  1.0
  C  C262  1  0.817300  0.623410  0.350690  1.0
  C  C263  1  0.161600  0.391990  0.714190  1.0
  C  C264  1  0.838400  0.608010  0.285810  1.0
  C  C265  1  0.198700  0.472800  0.756510  1.0
  C  C266  1  0.801300  0.527200  0.243490  1.0
  C  C267  1  0.243700  0.507560  0.717820  1.0
  C  C268  1  0.756300  0.492440  0.282180  1.0
  C  C269  1  0.291700  0.589610  0.743420  1.0
  C  C270  1  0.708300  0.410390  0.256580  1.0
  C  C271  1  0.295700  0.646320  0.816160  1.0
  C  C272  1  0.704300  0.353680  0.183840  1.0
  C  C273  1  0.355700  0.640000  0.874760  1.0
  C  C274  1  0.644300  0.360000  0.125240  1.0
  C  C275  1  0.353500  0.690800  0.941500  1.0
  C  C276  1  0.646500  0.309200  0.058500  1.0
  C  C277  1  0.292500  0.750100  0.949700  1.0
  C  C278  1  0.707500  0.249900  0.050300  1.0
  C  C279  1  0.233700  0.757500  0.891200  1.0
  C  C280  1  0.766300  0.242500  0.108800  1.0
  C  C281  1  0.235000  0.706400  0.824810  1.0
  C  C282  1  0.765000  0.293600  0.175190  1.0
  C  C283  1  0.289900  0.805500  0.022200  1.0
  C  C284  1  0.710100  0.194500  0.977800  1.0
  C  C285  1  0.385800  0.952400  0.072940  1.0
  C  C286  1  0.614200  0.047600  0.927060  1.0
  C  C287  1  0.490500  0.991800  0.111540  1.0
  C  C288  1  0.509500  0.008200  0.888460  1.0
  C  C289  1  0.540900  0.080800  0.144900  1.0
  C  C290  1  0.459100  0.919200  0.855100  1.0
  C  C291  1  0.467000  0.127700  0.059800  1.0
  C  C292  1  0.533000  0.872300  0.940200  1.0
  C  C293  1  0.335600  0.623820  0.705950  1.0
  C  C294  1  0.664400  0.376180  0.294050  1.0
  C  C295  1  0.392600  0.706760  0.734740  1.0
  C  C296  1  0.607400  0.293240  0.265260  1.0
  C  C297  1  0.418000  0.717570  0.682550  1.0
  C  C298  1  0.582000  0.282430  0.317450  1.0
  C  C299  1  0.378200  0.640510  0.620240  1.0
  C  C300  1  0.621800  0.359490  0.379760  1.0
  C  C301  1  0.389000  0.627240  0.554560  1.0
  C  C302  1  0.611000  0.372760  0.445440  1.0
  C  C303  1  0.427500  0.700570  0.545720  1.0
  C  C304  1  0.572500  0.299430  0.454280  1.0
  C  C305  1  0.369900  0.762000  0.556000  1.0
  C  C306  1  0.630100  0.238000  0.444000  1.0
  C  C307  1  0.404900  0.832700  0.551200  1.0
  C  C308  1  0.595100  0.167300  0.448800  1.0
  C  C309  1  0.501500  0.843900  0.538540  1.0
  C  C310  1  0.498500  0.156100  0.461460  1.0
  C  C311  1  0.558200  0.781300  0.526000  1.0
  C  C312  1  0.441800  0.218700  0.474000  1.0
  C  C313  1  0.520600  0.709800  0.528990  1.0
  C  C314  1  0.479400  0.290200  0.471010  1.0
  C  C315  1  0.544500  0.924800  0.542000  1.0
  C  C316  1  0.455500  0.075200  0.458000  1.0
  C  C317  1  0.526600  0.869600  0.412500  1.0
  C  C318  1  0.473400  0.130400  0.587500  1.0
  C  C319  1  0.592300  0.892900  0.380900  1.0
  C  C320  1  0.407700  0.107100  0.619100  1.0
  C  C321  1  0.582200  0.860000  0.304000  1.0
  C  C322  1  0.417800  0.140000  0.696000  1.0
  C  C323  1  0.509900  0.963600  0.280900  1.0
  C  C324  1  0.490100  0.036400  0.719100  1.0
  C  C325  1  0.412400  0.978000  0.246200  1.0
  C  C326  1  0.587600  0.022000  0.753800  1.0
  C  C327  1  0.230200  0.989300  0.242900  1.0
  C  C328  1  0.769800  0.010700  0.757100  1.0
  C  C329  1  0.362900  0.550530  0.496490  1.0
  C  C330  1  0.637100  0.449470  0.503510  1.0
  C  C331  1  0.371800  0.537280  0.428560  1.0
  C  C332  1  0.628200  0.462720  0.571440  1.0
  C  C333  1  0.332500  0.456690  0.385430  1.0
  C  C334  1  0.667500  0.543310  0.614570  1.0
  C  C335  1  0.298200  0.420980  0.427340  1.0
  C  C336  1  0.701800  0.579020  0.572660  1.0
  C  C337  1  0.246000  0.339000  0.401290  1.0
  C  C338  1  0.754000  0.661000  0.598710  1.0
  C  C339  1  0.219100  0.285410  0.324850  1.0
  C  C340  1  0.780900  0.714590  0.675150  1.0
  C  C341  1  0.296400  0.259300  0.293210  1.0
  C  C342  1  0.703600  0.740700  0.706790  1.0
  C  C343  1  0.265900  0.202400  0.223310  1.0
  C  C344  1  0.734100  0.797600  0.776690  1.0
  C  C345  1  0.160100  0.170800  0.184450  1.0
  C  C346  1  0.839900  0.829200  0.815550  1.0
  C  C347  1  0.082100  0.199500  0.214600  1.0
  C  C348  1  0.917900  0.800500  0.785400  1.0
  C  C349  1  0.111600  0.255900  0.283790  1.0
  C  C350  1  0.888400  0.744100  0.716210  1.0
  C  C351  1  0.130500  0.106300  0.109800  1.0
  C  C352  1  0.869500  0.893700  0.890200  1.0
  C  C353  1  0.962400  0.014600  0.095100  1.0
  C  C354  1  0.037600  0.985400  0.904900  1.0
  C  C355  1  0.857600  0.005100  0.059190  1.0
  C  C356  1  0.142400  0.994900  0.940810  1.0
  C  C357  1  0.759100  0.952600  0.050900  1.0
  C  C358  1  0.240900  0.047400  0.949100  1.0
  C  C359  1  0.623800  0.836000  0.963700  1.0
  C  C360  1  0.376200  0.164000  0.036300  1.0
  C  C361  1  0.211700  0.303340  0.440560  1.0
  C  C362  1  0.788300  0.696660  0.559440  1.0
  C  C363  1  0.167000  0.217590  0.414700  1.0
  C  C364  1  0.833000  0.782410  0.585300  1.0
  C  C365  1  0.143200  0.207250  0.467400  1.0
  C  C366  1  0.856800  0.792750  0.532600  1.0
  C  C367  1  0.172700  0.286090  0.527490  1.0
  C  C368  1  0.827300  0.713910  0.472510  1.0
  C  C369  1  0.154500  0.301010  0.590990  1.0
  C  C370  1  0.845500  0.698990  0.409010  1.0
  C  C371  1  0.099700  0.229280  0.595280  1.0
  C  C372  1  0.900300  0.770720  0.404720  1.0
  C  C373  1  0.990100  0.199200  0.561900  1.0
  C  C374  1  0.009900  0.800800  0.438100  1.0
  C  C375  1  0.939200  0.127900  0.559800  1.0
  C  C376  1  0.060800  0.872100  0.440200  1.0
  C  C377  1  0.998500  0.085100  0.590200  1.0
  C  C378  1  0.001500  0.914900  0.409800  1.0
  C  C379  1  0.102500  0.115000  0.623400  1.0
  C  C380  1  0.897500  0.885000  0.376600  1.0
  C  C381  1  0.153300  0.187500  0.626900  1.0
  C  C382  1  0.846700  0.812500  0.373100  1.0
  C  C383  1  0.945500  0.003400  0.581600  1.0
  C  C384  1  0.054500  0.996600  0.418400  1.0
  C  C385  1  0.832200  0.017200  0.655300  1.0
  C  C386  1  0.167800  0.982800  0.344700  1.0
  C  C387  1  0.844200  0.007800  0.717200  1.0
  C  C388  1  0.155800  0.992200  0.282800  1.0
  C  C389  1  0.047000  0.521300  0.579200  1.0
  C  C390  1  0.953000  0.478700  0.420800  1.0
  C  C391  1  0.016700  0.405500  0.469600  1.0
  C  C392  1  0.983300  0.594500  0.530400  1.0
  C  C393  1  0.099000  0.536300  0.486600  1.0
  C  C394  1  0.901000  0.463700  0.513400  1.0
  C  C395  1  0.987600  0.552000  0.457600  1.0
  C  C396  1  0.012400  0.448000  0.542400  1.0
  C  C397  1  0.936500  0.536100  0.550400  1.0
  C  C398  1  0.063500  0.463900  0.449600  1.0
  C  C399  1  0.906800  0.420800  0.440700  1.0
  C  C400  1  0.093200  0.579200  0.559300  1.0
  N  N401  1  0.094000  0.487000  0.524000  1.0
  N  N402  1  0.906000  0.513000  0.476000  1.0
  N  N403  1  0.233000  0.448080  0.652710  1.0
  N  N404  1  0.767000  0.551920  0.347290  1.0
  N  N405  1  0.384700  0.874220  0.060570  1.0
  N  N406  1  0.615300  0.125780  0.939430  1.0
  N  N407  1  0.479700  0.863500  0.088660  1.0
  N  N408  1  0.520300  0.136500  0.911340  1.0
  N  N409  1  0.547000  0.936300  0.120640  1.0
  N  N410  1  0.453000  0.063700  0.879360  1.0
  N  N411  1  0.330200  0.584330  0.636440  1.0
  N  N412  1  0.669800  0.415670  0.363560  1.0
  N  N413  1  0.577300  0.918400  0.481220  1.0
  N  N414  1  0.422700  0.081600  0.518780  1.0
  N  N415  1  0.664900  0.970700  0.491200  1.0
  N  N416  1  0.335100  0.029300  0.508800  1.0
  N  N417  1  0.675600  0.954100  0.430900  1.0
  N  N418  1  0.324400  0.045900  0.569100  1.0
  N  N419  1  0.319500  0.478530  0.494740  1.0
  N  N420  1  0.680500  0.521470  0.505260  1.0
  N  N421  1  0.015600  0.068400  0.081040  1.0
  N  N422  1  0.984400  0.931600  0.918960  1.0
  N  N423  1  0.949900  0.092600  0.039460  1.0
  N  N424  1  0.050100  0.907400  0.960540  1.0
  N  N425  1  0.852000  0.053900  0.025080  1.0
  N  N426  1  0.148000  0.946100  0.974920  1.0
  N  N427  1  0.216700  0.343030  0.509440  1.0
  N  N428  1  0.783300  0.656970  0.490560  1.0
  N  N429  1  0.919100  0.006300  0.642900  1.0
  N  N430  1  0.080900  0.993700  0.357100  1.0
  N  N431  1  0.981500  0.987600  0.690200  1.0
  N  N432  1  0.018500  0.012400  0.309800  1.0
  N  N433  1  0.938700  0.993900  0.739400  1.0
  N  N434  1  0.061300  0.006100  0.260600  1.0
  Cl  Cl435  1  0.157100  0.785130  0.669200  1
  Cl  Cl436  1  0.842900  0.214870  0.330800  1
  Cl  Cl437  1  0.166100  0.903500  0.613660  1
  Cl  Cl438  1  0.833900  0.096500  0.386340  1
  Cl  Cl439  1  0.228900  0.957340  0.762780  1
  Cl  Cl440  1  0.771100  0.042660  0.237220  1
  Cl  Cl441  1  0.531300  0.649320  0.350860  1
  Cl  Cl442  1  0.468700  0.350680  0.649140  1
  Cl  Cl443  1  0.399000  0.495800  0.244940  1
  Cl  Cl444  1  0.601000  0.504200  0.755060  1
  Cl  Cl445  1  0.548600  0.585300  0.214600  1
  Cl  Cl446  1  0.451400  0.414700  0.785400  1
  Cl  Cl447  1  0.324600  0.698100  0.227000  1
  Cl  Cl448  1  0.675400  0.301900  0.773000  1
  Cl  Cl449  1  0.166700  0.769300  0.162800  1
  Cl  Cl450  1  0.833300  0.230700  0.837200  1
  Cl  Cl451  1  0.212600  0.785100  0.307100  1
  Cl  Cl452  1  0.787400  0.214900  0.692900  1
  Cl  Cl453  1  0.127300  0.748180  0.629570  1
  Cl  Cl454  1  0.872700  0.251820  0.370430  1
  Cl  Cl455  1  0.218700  0.908850  0.649200  1
  Cl  Cl456  1  0.781300  0.091150  0.350800  1
  Cl  Cl457  1  0.172400  0.887000  0.764400  1
  Cl  Cl458  1  0.827600  0.113000  0.235600  1
  Cl  Cl459  1  0.055000  0.444900  0.280100  1
  Cl  Cl460  1  0.945000  0.555100  0.719900  1
  Cl  Cl461  1  0.079400  0.554400  0.218800  1
  Cl  Cl462  1  0.920600  0.445600  0.781200  1
  Cl  Cl463  1  0.144000  0.618900  0.369500  1
  Cl  Cl464  1  0.856000  0.381100  0.630500  1
  Cl  Cl465  1  0.235900  0.161200  0.831200  1
  Cl  Cl466  1  0.764100  0.838800  0.168800  1
  Cl  Cl467  1  0.333100  0.305700  0.824000  1
  Cl  Cl468  1  0.666900  0.694300  0.176000  1
  Cl  Cl469  1  0.356600  0.314900  0.966500  1
  Cl  Cl470  1  0.643400  0.685100  0.033500  1
  Cl  Cl471  1  0.051000  0.217800  0.774500  1
  Cl  Cl472  1  0.949000  0.782200  0.225500  1
  Cl  Cl473  1  0.100400  0.192000  0.900900  1
  Cl  Cl474  1  0.899600  0.808000  0.099100  1
  Cl  Cl475  1  0.273300  0.193200  0.835200  1
  Cl  Cl476  1  0.726700  0.806800  0.164800  1
  O  O477  1  0.467500  0.125610  0.124750  1.0
  O  O478  1  0.532500  0.874390  0.875250  1.0
  O  O479  1  0.494900  0.880100  0.268600  1.0
  O  O480  1  0.505100  0.119900  0.731400  1.0
  O  O481  1  0.331300  0.978100  0.279400  1.0
  O  O482  1  0.668700  0.021900  0.720600  1.0
  O  O483  1  0.725200  0.887120  0.981480  1.0
  O  O484  1  0.274800  0.112880  0.018520  1.0
