# generated using pymatgen
data_Fe2P4H99Pd2C127S2N7(O3F2)3
_symmetry_space_group_name_H-M   'P 1'
_cell_length_a   16.94900000
_cell_length_b   17.56200000
_cell_length_c   24.89500000
_cell_angle_alpha   86.38000000
_cell_angle_beta   85.86000000
_cell_angle_gamma   68.50000000
_symmetry_Int_Tables_number   1
_chemical_formula_structural   Fe2P4H99Pd2C127S2N7(O3F2)3
_chemical_formula_sum   'Fe4 P8 H198 Pd4 C254 S4 N14 O18 F12'
_cell_volume   6871.21994601
_cell_formula_units_Z   2
loop_
 _symmetry_equiv_pos_site_id
 _symmetry_equiv_pos_as_xyz
  1  'x, y, z'
loop_
 _atom_site_type_symbol
 _atom_site_label
 _atom_site_symmetry_multiplicity
 _atom_site_fract_x
 _atom_site_fract_y
 _atom_site_fract_z
 _atom_site_occupancy
  Fe  Fe1  1  0.158350  0.283120  0.267960  1
  Fe  Fe2  1  0.841650  0.716880  0.732040  1
  Fe  Fe3  1  0.695960  0.629470  0.214500  1
  Fe  Fe4  1  0.304040  0.370530  0.785500  1
  P  P5  1  0.602560  0.522870  0.152350  1
  P  P6  1  0.397440  0.477130  0.847650  1
  P  P7  1  0.300180  0.142700  0.191580  1
  P  P8  1  0.699820  0.857300  0.808420  1
  P  P9  1  0.269660  0.107300  0.330710  1
  P  P10  1  0.730340  0.892700  0.669290  1
  P  P11  1  0.594970  0.529100  0.292480  1
  P  P12  1  0.405030  0.470900  0.707520  1
  H  H13  1  0.903900  0.553900  0.888400  1
  H  H14  1  0.096100  0.446100  0.111600  1
  H  H15  1  0.878100  0.369800  0.525000  1
  H  H16  1  0.121900  0.630200  0.475000  1
  H  H17  1  0.535800  0.041500  0.207800  1
  H  H18  1  0.464200  0.958500  0.792200  1
  H  H19  1  0.391600  0.917300  0.183500  1
  H  H20  1  0.608400  0.082700  0.816500  1
  H  H21  1  0.643800  0.962800  0.147600  1
  H  H22  1  0.356200  0.037200  0.852400  1
  H  H23  1  0.489400  0.842600  0.119800  1
  H  H24  1  0.510600  0.157400  0.880200  1
  H  H25  1  0.649200  0.738500  0.972800  1
  H  H26  1  0.350800  0.261500  0.027200  1
  H  H27  1  0.849300  0.749600  0.044700  1
  H  H28  1  0.150700  0.250400  0.955300  1
  H  H29  1  0.739600  0.644500  0.910500  1
  H  H30  1  0.260400  0.355500  0.089500  1
  H  H31  1  0.027100  0.653500  0.040000  1
  H  H32  1  0.972900  0.346500  0.960000  1
  H  H33  1  0.070200  0.469200  0.900200  1
  H  H34  1  0.929800  0.530800  0.099800  1
  H  H35  1  0.184300  0.463400  0.949000  1
  H  H36  1  0.815700  0.536600  0.051000  1
  H  H37  1  0.257700  0.639000  0.126500  1
  H  H38  1  0.742300  0.361000  0.873500  1
  H  H39  1  0.375300  0.399600  0.091800  1
  H  H40  1  0.624700  0.600400  0.908200  1
  H  H41  1  0.367400  0.623500  0.181600  1
  H  H42  1  0.632600  0.376500  0.818400  1
  H  H43  1  0.472000  0.390600  0.153800  1
  H  H44  1  0.528000  0.609400  0.846200  1
  H  H45  1  0.370500  0.896800  0.323200  1
  H  H46  1  0.629500  0.103200  0.676800  1
  H  H47  1  0.529000  0.015400  0.314300  1
  H  H48  1  0.471000  0.984600  0.685700  1
  H  H49  1  0.455800  0.796400  0.375000  1
  H  H50  1  0.544200  0.203600  0.625000  1
  H  H51  1  0.628000  0.907500  0.356000  1
  H  H52  1  0.372000  0.092500  0.644000  1
  H  H53  1  0.621000  0.600200  0.483100  1
  H  H54  1  0.379000  0.399800  0.516900  1
  H  H55  1  0.828300  0.632300  0.404200  1
  H  H56  1  0.171700  0.367700  0.595800  1
  H  H57  1  0.707000  0.471900  0.518800  1
  H  H58  1  0.293000  0.528100  0.481200  1
  H  H59  1  0.047400  0.303200  0.509000  1
  H  H60  1  0.952600  0.696800  0.491000  1
  H  H61  1  0.004900  0.543400  0.397300  1
  H  H62  1  0.995100  0.456600  0.602700  1
  H  H63  1  0.161600  0.328600  0.463300  1
  H  H64  1  0.838400  0.671400  0.536700  1
  H  H65  1  0.247400  0.589900  0.343200  1
  H  H66  1  0.752600  0.410100  0.656800  1
  H  H67  1  0.380500  0.349500  0.348400  1
  H  H68  1  0.619500  0.650500  0.651600  1
  H  H69  1  0.354500  0.611600  0.288100  1
  H  H70  1  0.645500  0.388400  0.711900  1
  H  H71  1  0.482400  0.372800  0.288500  1
  H  H72  1  0.517600  0.627200  0.711500  1
  H  H73  1  0.649400  0.678500  0.111400  1
  H  H74  1  0.350600  0.321500  0.888600  1
  H  H75  1  0.789600  0.686500  0.140700  1
  H  H76  1  0.210400  0.313500  0.859300  1
  H  H77  1  0.868600  0.558900  0.195500  1
  H  H78  1  0.131400  0.441100  0.804500  1
  H  H79  1  0.782000  0.463700  0.204100  1
  H  H80  1  0.218000  0.536300  0.795900  1
  H  H81  1  0.615200  0.794000  0.231500  1
  H  H82  1  0.384800  0.206000  0.768500  1
  H  H83  1  0.753600  0.717300  0.280800  1
  H  H84  1  0.246400  0.282700  0.719200  1
  H  H85  1  0.752200  0.575700  0.315900  1
  H  H86  1  0.247800  0.424300  0.684100  1
  H  H87  1  0.523900  0.700800  0.236000  1
  H  H88  1  0.476100  0.299200  0.764000  1
  H  H89  1  0.175500  0.279300  0.379000  1
  H  H90  1  0.824500  0.720700  0.621000  1
  H  H91  1  0.112500  0.150700  0.258700  1
  H  H92  1  0.887500  0.849300  0.741300  1
  H  H93  1  0.990500  0.292200  0.266100  1
  H  H94  1  0.009500  0.707800  0.733900  1
  H  H95  1  0.031700  0.372500  0.335100  1
  H  H96  1  0.968300  0.627500  0.664900  1
  H  H97  1  0.136000  0.291900  0.158700  1
  H  H98  1  0.864000  0.708100  0.841300  1
  H  H99  1  0.101200  0.430600  0.210200  1
  H  H100  1  0.898800  0.569400  0.789800  1
  H  H101  1  0.218500  0.410500  0.275300  1
  H  H102  1  0.781500  0.589500  0.724700  1
  H  H103  1  0.322400  0.260900  0.267200  1
  H  H104  1  0.677600  0.739100  0.732800  1
  H  H105  1  0.604400  0.357900  0.177100  1
  H  H106  1  0.395600  0.642100  0.822900  1
  H  H107  1  0.716500  0.464800  0.062000  1
  H  H108  1  0.283500  0.535200  0.938000  1
  H  H109  1  0.668900  0.232900  0.135700  1
  H  H110  1  0.331100  0.767100  0.864300  1
  H  H111  1  0.774200  0.337900  0.018400  1
  H  H112  1  0.225800  0.662100  0.981600  1
  H  H113  1  0.754900  0.220800  0.058700  1
  H  H114  1  0.245100  0.779200  0.941300  1
  H  H115  1  0.563000  0.433300  0.385800  1
  H  H116  1  0.437000  0.566700  0.614200  1
  H  H117  1  0.481300  0.673200  0.339500  1
  H  H118  1  0.518700  0.326800  0.660500  1
  H  H119  1  0.468100  0.467000  0.462700  1
  H  H120  1  0.531900  0.533000  0.537300  1
  H  H121  1  0.393400  0.704800  0.419000  1
  H  H122  1  0.606600  0.295200  0.581000  1
  H  H123  1  0.375400  0.605200  0.474900  1
  H  H124  1  0.624600  0.394800  0.525100  1
  H  H125  1  0.416500  0.230400  0.174700  1
  H  H126  1  0.583500  0.769600  0.825300  1
  H  H127  1  0.360600  0.064400  0.088900  1
  H  H128  1  0.639400  0.935600  0.911100  1
  H  H129  1  0.518900  0.232000  0.106800  1
  H  H130  1  0.481100  0.768000  0.893200  1
  H  H131  1  0.470500  0.061000  0.026100  1
  H  H132  1  0.529500  0.939000  0.973900  1
  H  H133  1  0.547800  0.139300  0.033100  1
  H  H134  1  0.452200  0.860700  0.966900  1
  H  H135  1  0.229100  0.016500  0.214000  1
  H  H136  1  0.770900  0.983500  0.786000  1
  H  H137  1  0.202500  0.197700  0.097700  1
  H  H138  1  0.797500  0.802300  0.902300  1
  H  H139  1  0.134800  0.974200  0.167300  1
  H  H140  1  0.865200  0.025800  0.832700  1
  H  H141  1  0.109700  0.153300  0.057100  1
  H  H142  1  0.890300  0.846700  0.942900  1
  H  H143  1  0.070200  0.045100  0.093900  1
  H  H144  1  0.929800  0.954900  0.906100  1
  H  H145  1  0.411600  0.150000  0.330700  1
  H  H146  1  0.588400  0.850000  0.669300  1
  H  H147  1  0.228300  0.147700  0.443700  1
  H  H148  1  0.771700  0.852300  0.556300  1
  H  H149  1  0.478900  0.203300  0.394900  1
  H  H150  1  0.521100  0.796700  0.605100  1
  H  H151  1  0.293600  0.200500  0.505200  1
  H  H152  1  0.706400  0.799500  0.494800  1
  H  H153  1  0.413200  0.225600  0.480900  1
  H  H154  1  0.586800  0.774400  0.519100  1
  H  H155  1  0.487500  0.688400  0.151300  1
  H  H156  1  0.512500  0.311600  0.848700  1
  H  H157  1  0.563400  0.517800  0.041600  1
  H  H158  1  0.436600  0.482200  0.958400  1
  H  H159  1  0.400100  0.777000  0.092500  1
  H  H160  1  0.599900  0.223000  0.907500  1
  H  H161  1  0.470500  0.609000  0.980400  1
  H  H162  1  0.529500  0.391000  0.019600  1
  H  H163  1  0.382600  0.736400  0.009000  1
  H  H164  1  0.617400  0.263600  0.991000  1
  H  H165  1  0.716200  0.483600  0.378200  1
  H  H166  1  0.283800  0.516400  0.621800  1
  H  H167  1  0.681000  0.372300  0.246200  1
  H  H168  1  0.319000  0.627700  0.753800  1
  H  H169  1  0.838100  0.363900  0.397200  1
  H  H170  1  0.161900  0.636100  0.602800  1
  H  H171  1  0.802900  0.258500  0.270000  1
  H  H172  1  0.197100  0.741500  0.730000  1
  H  H173  1  0.884900  0.255100  0.340500  1
  H  H174  1  0.115100  0.744900  0.659500  1
  H  H175  1  0.148700  0.035400  0.305700  1
  H  H176  1  0.851300  0.964600  0.694300  1
  H  H177  1  0.321800  0.003700  0.429200  1
  H  H178  1  0.678200  0.996300  0.570800  1
  H  H179  1  0.273000  0.896800  0.475900  1
  H  H180  1  0.727000  0.103200  0.524100  1
  H  H181  1  0.168300  0.854500  0.434400  1
  H  H182  1  0.831700  0.145500  0.565600  1
  H  H183  1  0.098500  0.929400  0.351800  1
  H  H184  1  0.901500  0.070600  0.648200  1
  H  H185  1  0.241800  0.067400  0.970100  1
  H  H186  1  0.758200  0.932600  0.029900  1
  H  H187  1  0.171000  0.028800  0.986700  1
  H  H188  1  0.829000  0.971200  0.013300  1
  H  H189  1  0.231300  0.000200  0.933600  1
  H  H190  1  0.768700  0.999800  0.066400  1
  H  H191  1  0.855800  0.253900  0.158600  1
  H  H192  1  0.144200  0.746100  0.841400  1
  H  H193  1  0.942300  0.214800  0.122500  1
  H  H194  1  0.057700  0.785200  0.877500  1
  H  H195  1  0.923400  0.352900  0.127800  1
  H  H196  1  0.076600  0.647100  0.872200  1
  H  H197  1  0.997500  0.305200  0.167500  1
  H  H198  1  0.002500  0.694800  0.832500  1
  H  H199  1  0.902700  0.351200  0.191500  1
  H  H200  1  0.097300  0.648800  0.808500  1
  H  H201  1  0.956500  0.072800  0.178000  1
  H  H202  1  0.043500  0.927200  0.822000  1
  H  H203  1  0.866200  0.129000  0.204400  1
  H  H204  1  0.133800  0.871000  0.795600  1
  H  H205  1  0.950600  0.010100  0.263100  1
  H  H206  1  0.049400  0.989900  0.736900  1
  H  H207  1  0.913800  0.096100  0.291900  1
  H  H208  1  0.086200  0.903900  0.708100  1
  H  H209  1  0.011200  0.060000  0.270400  1
  H  H210  1  0.988800  0.940000  0.729600  1
  Pd  Pd211  1  0.517300  0.510830  0.226280  1
  Pd  Pd212  1  0.482700  0.489170  0.773720  1
  Pd  Pd213  1  0.365300  0.052670  0.259860  1
  Pd  Pd214  1  0.634700  0.947330  0.740140  1
  C  C215  1  0.527300  0.999400  0.189600  1
  C  C216  1  0.472700  0.000600  0.810400  1
  C  C217  1  0.442100  0.928300  0.175400  1
  C  C218  1  0.557900  0.071700  0.824600  1
  C  C219  1  0.591400  0.954600  0.152700  1
  C  C220  1  0.408600  0.045400  0.847300  1
  C  C221  1  0.500200  0.884000  0.137400  1
  C  C222  1  0.499800  0.116000  0.862600  1
  C  C223  1  0.574400  0.898200  0.124200  1
  C  C224  1  0.425600  0.101800  0.875800  1
  C  C225  1  0.635700  0.849900  0.085100  1
  C  C226  1  0.364300  0.150100  0.914900  1
  C  C227  1  0.685000  0.806300  0.053100  1
  C  C228  1  0.315000  0.193700  0.946900  1
  C  C229  1  0.741300  0.751300  0.016400  1
  C  C230  1  0.258700  0.248700  0.983600  1
  C  C231  1  0.708900  0.720500  0.975400  1
  C  C232  1  0.291100  0.279500  0.024600  1
  C  C233  1  0.826600  0.726900  0.018800  1
  C  C234  1  0.173400  0.273100  0.981200  1
  C  C235  1  0.762000  0.664100  0.938200  1
  C  C236  1  0.238000  0.335900  0.061800  1
  C  C237  1  0.883700  0.667700  0.983200  1
  C  C238  1  0.116300  0.332300  0.016800  1
  C  C239  1  0.846100  0.639800  0.944100  1
  C  C240  1  0.153900  0.360200  0.055900  1
  C  C241  1  0.971900  0.622600  0.979800  1
  C  C242  1  0.028100  0.377400  0.020200  1
  C  C243  1  0.985800  0.568000  0.939300  1
  C  C244  1  0.014200  0.432000  0.060700  1
  C  C245  1  0.036500  0.617500  0.011300  1
  C  C246  1  0.963500  0.382500  0.988700  1
  C  C247  1  0.063500  0.506700  0.927600  1
  C  C248  1  0.936500  0.493300  0.072400  1
  C  C249  1  0.117000  0.558000  0.000400  1
  C  C250  1  0.883000  0.442000  0.999600  1
  C  C251  1  0.129400  0.502800  0.956900  1
  C  C252  1  0.870600  0.497200  0.043100  1
  C  C253  1  0.182800  0.545700  0.034700  1
  C  C254  1  0.817200  0.454300  0.965300  1
  C  C255  1  0.240600  0.531800  0.064900  1
  C  C256  1  0.759400  0.468200  0.935100  1
  C  C257  1  0.304800  0.522300  0.102600  1
  C  C258  1  0.695200  0.477700  0.897400  1
  C  C259  1  0.302800  0.587600  0.130200  1
  C  C260  1  0.697200  0.412400  0.869800  1
  C  C261  1  0.371400  0.446300  0.110700  1
  C  C262  1  0.628600  0.553700  0.889300  1
  C  C263  1  0.367400  0.577500  0.163500  1
  C  C264  1  0.632600  0.422500  0.836500  1
  C  C265  1  0.429200  0.442400  0.146300  1
  C  C266  1  0.570800  0.557600  0.853700  1
  C  C267  1  0.422800  0.900200  0.331900  1
  C  C268  1  0.577200  0.099800  0.668100  1
  C  C269  1  0.515800  0.968400  0.325100  1
  C  C270  1  0.484200  0.031600  0.674900  1
  C  C271  1  0.473900  0.839300  0.361000  1
  C  C272  1  0.526100  0.160700  0.639000  1
  C  C273  1  0.573600  0.905600  0.351200  1
  C  C274  1  0.426400  0.094400  0.648800  1
  C  C275  1  0.555000  0.837100  0.371500  1
  C  C276  1  0.445000  0.162900  0.628500  1
  C  C277  1  0.616700  0.764500  0.399400  1
  C  C278  1  0.383300  0.235500  0.600600  1
  C  C279  1  0.661500  0.702800  0.415600  1
  C  C280  1  0.338500  0.297200  0.584400  1
  C  C281  1  0.715600  0.627000  0.438300  1
  C  C282  1  0.284400  0.373000  0.561700  1
  C  C283  1  0.680200  0.579600  0.474100  1
  C  C284  1  0.319800  0.420400  0.525900  1
  C  C285  1  0.804000  0.599400  0.426100  1
  C  C286  1  0.196000  0.400600  0.573900  1
  C  C287  1  0.730700  0.504100  0.495900  1
  C  C288  1  0.269300  0.495900  0.504100  1
  C  C289  1  0.855200  0.522800  0.447000  1
  C  C290  1  0.144800  0.477200  0.553000  1
  C  C291  1  0.818200  0.477600  0.482700  1
  C  C292  1  0.181800  0.522400  0.517300  1
  C  C293  1  0.944600  0.479400  0.444400  1
  C  C294  1  0.055400  0.520600  0.555600  1
  C  C295  1  0.957300  0.408100  0.478900  1
  C  C296  1  0.042700  0.591900  0.521100  1
  C  C297  1  0.038300  0.351000  0.486500  1
  C  C298  1  0.961700  0.649000  0.513500  1
  C  C299  1  0.013000  0.495200  0.419200  1
  C  C300  1  0.987000  0.504800  0.580800  1
  C  C301  1  0.105800  0.367500  0.459300  1
  C  C302  1  0.894200  0.632500  0.540700  1
  C  C303  1  0.096200  0.436200  0.427400  1
  C  C304  1  0.903800  0.563800  0.572600  1
  C  C305  1  0.166400  0.447900  0.400700  1
  C  C306  1  0.833600  0.552100  0.599300  1
  C  C307  1  0.229200  0.455200  0.377800  1
  C  C308  1  0.770800  0.544800  0.622200  1
  C  C309  1  0.299300  0.468300  0.348100  1
  C  C310  1  0.700700  0.531700  0.651900  1
  C  C311  1  0.295500  0.544100  0.332100  1
  C  C312  1  0.704500  0.455900  0.667900  1
  C  C313  1  0.372600  0.403400  0.334700  1
  C  C314  1  0.627400  0.596600  0.665300  1
  C  C315  1  0.359800  0.557400  0.299800  1
  C  C316  1  0.640200  0.442600  0.700200  1
  C  C317  1  0.434900  0.418200  0.300700  1
  C  C318  1  0.565100  0.581800  0.699300  1
  C  C319  1  0.689900  0.558100  0.157200  1
  C  C320  1  0.310100  0.441900  0.842800  1
  C  C321  1  0.692600  0.636800  0.133800  1
  C  C322  1  0.307400  0.363200  0.866200  1
  C  C323  1  0.770100  0.639500  0.149100  1
  C  C324  1  0.229900  0.360500  0.850900  1
  C  C325  1  0.813400  0.570000  0.178800  1
  C  C326  1  0.186600  0.430000  0.821200  1
  C  C327  1  0.765800  0.517900  0.184000  1
  C  C328  1  0.234200  0.482100  0.816000  1
  C  C329  1  0.630400  0.738700  0.250000  1
  C  C330  1  0.369600  0.261300  0.750000  1
  C  C331  1  0.706600  0.696600  0.277200  1
  C  C332  1  0.293400  0.303400  0.722800  1
  C  C333  1  0.706400  0.618800  0.295900  1
  C  C334  1  0.293600  0.381200  0.704100  1
  C  C335  1  0.629400  0.612700  0.280500  1
  C  C336  1  0.370600  0.387300  0.719500  1
  C  C337  1  0.580600  0.687300  0.251200  1
  C  C338  1  0.419400  0.312700  0.748800  1
  C  C339  1  0.172400  0.188200  0.322800  1
  C  C340  1  0.827600  0.811800  0.677200  1
  C  C341  1  0.146200  0.264300  0.350200  1
  C  C342  1  0.853800  0.735700  0.649800  1
  C  C343  1  0.109000  0.194200  0.283800  1
  C  C344  1  0.891000  0.805800  0.716200  1
  C  C345  1  0.042100  0.271100  0.287800  1
  C  C346  1  0.957900  0.728900  0.712200  1
  C  C347  1  0.065800  0.314600  0.325800  1
  C  C348  1  0.934200  0.685400  0.674200  1
  C  C349  1  0.247700  0.246700  0.208000  1
  C  C350  1  0.752300  0.753300  0.792000  1
  C  C351  1  0.169700  0.302200  0.186900  1
  C  C352  1  0.830300  0.697800  0.813100  1
  C  C353  1  0.152500  0.379700  0.214800  1
  C  C354  1  0.847500  0.620300  0.785200  1
  C  C355  1  0.214700  0.369200  0.250700  1
  C  C356  1  0.785300  0.630800  0.749300  1
  C  C357  1  0.271100  0.286800  0.245600  1
  C  C358  1  0.728900  0.713200  0.754400  1
  C  C359  1  0.651400  0.424800  0.120500  1
  C  C360  1  0.348600  0.575200  0.879500  1
  C  C361  1  0.638800  0.354200  0.144700  1
  C  C362  1  0.361200  0.645800  0.855300  1
  C  C363  1  0.704200  0.418700  0.076200  1
  C  C364  1  0.295800  0.581300  0.923800  1
  C  C365  1  0.677900  0.280100  0.120100  1
  C  C366  1  0.322100  0.719900  0.879900  1
  C  C367  1  0.740900  0.342000  0.051200  1
  C  C368  1  0.259100  0.658000  0.948800  1
  C  C369  1  0.728400  0.272500  0.074600  1
  C  C370  1  0.271600  0.727500  0.925400  1
  C  C371  1  0.531700  0.551100  0.354400  1
  C  C372  1  0.468300  0.448900  0.645600  1
  C  C373  1  0.527700  0.488700  0.391400  1
  C  C374  1  0.472300  0.511300  0.608600  1
  C  C375  1  0.480200  0.630300  0.364400  1
  C  C376  1  0.519800  0.369700  0.635600  1
  C  C377  1  0.470500  0.509000  0.437300  1
  C  C378  1  0.529500  0.491000  0.562700  1
  C  C379  1  0.425100  0.649000  0.411700  1
  C  C380  1  0.574900  0.351000  0.588300  1
  C  C381  1  0.416600  0.591700  0.445600  1
  C  C382  1  0.583400  0.408300  0.554400  1
  C  C383  1  0.379000  0.146400  0.138500  1
  C  C384  1  0.621000  0.853600  0.861500  1
  C  C385  1  0.426700  0.197300  0.144300  1
  C  C386  1  0.573300  0.802700  0.855700  1
  C  C387  1  0.394100  0.096500  0.093200  1
  C  C388  1  0.605900  0.903500  0.906800  1
  C  C389  1  0.487600  0.197200  0.105000  1
  C  C390  1  0.512400  0.802800  0.895000  1
  C  C391  1  0.458600  0.095800  0.055700  1
  C  C392  1  0.541400  0.904200  0.944300  1
  C  C393  1  0.503900  0.141700  0.059700  1
  C  C394  1  0.496100  0.858300  0.940300  1
  C  C395  1  0.228300  0.109900  0.159900  1
  C  C396  1  0.771700  0.890100  0.840100  1
  C  C397  1  0.206000  0.044600  0.181500  1
  C  C398  1  0.794000  0.955400  0.818500  1
  C  C399  1  0.190000  0.152100  0.112800  1
  C  C400  1  0.810000  0.847900  0.887200  1
  C  C401  1  0.147300  0.020500  0.153600  1
  C  C402  1  0.852700  0.979500  0.846400  1
  C  C403  1  0.134100  0.125700  0.089400  1
  C  C404  1  0.865900  0.874300  0.910600  1
  C  C405  1  0.110900  0.060000  0.110500  1
  C  C406  1  0.889100  0.940000  0.889500  1
  C  C407  1  0.316300  0.143800  0.380700  1
  C  C408  1  0.683700  0.856200  0.619300  1
  C  C409  1  0.387600  0.159900  0.366500  1
  C  C410  1  0.612400  0.840100  0.633500  1
  C  C411  1  0.278300  0.158500  0.433200  1
  C  C412  1  0.721700  0.841500  0.566800  1
  C  C413  1  0.428800  0.192200  0.404400  1
  C  C414  1  0.571200  0.807800  0.595600  1
  C  C415  1  0.317600  0.189800  0.469600  1
  C  C416  1  0.682400  0.810200  0.530400  1
  C  C417  1  0.389000  0.204800  0.454700  1
  C  C418  1  0.611000  0.795200  0.545300  1
  C  C419  1  0.534500  0.592500  0.102300  1
  C  C420  1  0.465500  0.407500  0.897700  1
  C  C421  1  0.484500  0.671000  0.116300  1
  C  C422  1  0.515500  0.329000  0.883700  1
  C  C423  1  0.528800  0.571100  0.052500  1
  C  C424  1  0.471200  0.428900  0.947500  1
  C  C425  1  0.432200  0.722700  0.082000  1
  C  C426  1  0.567800  0.277300  0.918000  1
  C  C427  1  0.473000  0.625100  0.015800  1
  C  C428  1  0.527000  0.374900  0.984200  1
  C  C429  1  0.423400  0.699900  0.032000  1
  C  C430  1  0.576600  0.300100  0.968000  1
  C  C431  1  0.688300  0.439400  0.310100  1
  C  C432  1  0.311700  0.560600  0.689900  1
  C  C433  1  0.733600  0.438300  0.355400  1
  C  C434  1  0.266400  0.561700  0.644600  1
  C  C435  1  0.711800  0.372600  0.276500  1
  C  C436  1  0.288200  0.627400  0.723500  1
  C  C437  1  0.807500  0.365900  0.366300  1
  C  C438  1  0.192500  0.634100  0.633700  1
  C  C439  1  0.785800  0.305100  0.291500  1
  C  C440  1  0.214200  0.694900  0.708500  1
  C  C441  1  0.834600  0.301100  0.334100  1
  C  C442  1  0.165400  0.698900  0.665900  1
  C  C443  1  0.238900  0.031600  0.363000  1
  C  C444  1  0.761100  0.968400  0.637000  1
  C  C445  1  0.172200  0.008900  0.338400  1
  C  C446  1  0.827800  0.991100  0.661600  1
  C  C447  1  0.279200  0.989300  0.414500  1
  C  C448  1  0.720800  0.010700  0.585500  1
  C  C449  1  0.249800  0.922400  0.442900  1
  C  C450  1  0.750200  0.077600  0.557100  1
  C  C451  1  0.183900  0.897700  0.418000  1
  C  C452  1  0.816100  0.102300  0.582000  1
  C  C453  1  0.142200  0.942500  0.366300  1
  C  C454  1  0.857800  0.057500  0.633700  1
  C  C455  1  0.783500  0.212800  0.771700  1
  C  C456  1  0.216500  0.787200  0.228300  1
  C  C457  1  0.338200  0.875000  0.757500  1
  C  C458  1  0.661800  0.125000  0.242500  1
  C  C459  1  0.228300  0.017600  0.970500  1
  C  C460  1  0.771700  0.982400  0.029500  1
  C  C461  1  0.918000  0.240400  0.157200  1
  C  C462  1  0.082000  0.759600  0.842800  1
  C  C463  1  0.937200  0.319800  0.161400  1
  C  C464  1  0.062800  0.680200  0.838600  1
  C  C465  1  0.928000  0.110400  0.207400  1
  C  C466  1  0.072000  0.889600  0.792600  1
  C  C467  1  0.953300  0.064900  0.263500  1
  C  C468  1  0.046700  0.935100  0.736500  1
  S  S469  1  0.691270  0.207300  0.744910  1
  S  S470  1  0.308730  0.792700  0.255090  1
  S  S471  1  0.438200  0.802000  0.739290  1
  S  S472  1  0.561800  0.198000  0.260710  1
  N  N473  1  0.454600  0.986100  0.200800  1
  N  N474  1  0.545400  0.013900  0.799200  1
  N  N475  1  0.910200  0.579800  0.916000  1
  N  N476  1  0.089800  0.420200  0.084000  1
  N  N477  1  0.430100  0.505800  0.171400  1
  N  N478  1  0.569900  0.494200  0.828600  1
  N  N479  1  0.439100  0.967100  0.313700  1
  N  N480  1  0.560900  0.032900  0.686300  1
  N  N481  1  0.884300  0.407500  0.501900  1
  N  N482  1  0.115700  0.592500  0.498100  1
  N  N483  1  0.430600  0.492900  0.284800  1
  N  N484  1  0.569400  0.507100  0.715200  1
  N  N485  1  0.290200  0.951900  0.002500  1
  N  N486  1  0.709800  0.048100  0.997500  1
  O  O487  1  0.696400  0.127500  0.754600  1
  O  O488  1  0.303600  0.872500  0.245400  1
  O  O489  1  0.623100  0.271700  0.768100  1
  O  O490  1  0.376900  0.728300  0.231900  1
  O  O491  1  0.705500  0.224700  0.684200  1
  O  O492  1  0.294500  0.775300  0.315800  1
  O  O493  1  0.491700  0.847800  0.738800  1
  O  O494  1  0.508300  0.152200  0.261200  1
  O  O495  1  0.450100  0.737400  0.778600  1
  O  O496  1  0.549900  0.262600  0.221400  1
  O  O497  1  0.426700  0.777000  0.683700  1
  O  O498  1  0.573300  0.223000  0.316300  1
  O  O499  1  0.273900  0.888100  0.013500  1
  O  O500  1  0.726100  0.111900  0.986500  1
  O  O501  1  0.332500  0.952900  0.033500  1
  O  O502  1  0.667500  0.047100  0.966500  1
  O  O503  1  0.956100  0.182600  0.202900  1
  O  O504  1  0.043900  0.817400  0.797100  1
  F  F505  1  0.855100  0.157500  0.755100  1
  F  F506  1  0.144900  0.842500  0.244900  1
  F  F507  1  0.778000  0.204900  0.827600  1
  F  F508  1  0.222000  0.795100  0.172400  1
  F  F509  1  0.789200  0.286200  0.759900  1
  F  F510  1  0.210800  0.713800  0.240100  1
  F  F511  1  0.334200  0.902400  0.805800  1
  F  F512  1  0.665800  0.097600  0.194200  1
  F  F513  1  0.277600  0.840200  0.755400  1
  F  F514  1  0.722400  0.159800  0.244600  1
  F  F515  1  0.316800  0.938100  0.721300  1
  F  F516  1  0.683200  0.061900  0.278700  1
