# generated using pymatgen
data_P4H71Pt2C43Cl3O4
_symmetry_space_group_name_H-M   'P 1'
_cell_length_a   14.57880000
_cell_length_b   16.53670000
_cell_length_c   22.37540000
_cell_angle_alpha   110.64430000
_cell_angle_beta   90.00000000
_cell_angle_gamma   90.00000000
_symmetry_Int_Tables_number   1
_chemical_formula_structural   P4H71Pt2C43Cl3O4
_chemical_formula_sum   'P16 H284 Pt8 C172 Cl12 O16'
_cell_volume   5047.99066201
_cell_formula_units_Z   4
loop_
 _symmetry_equiv_pos_site_id
 _symmetry_equiv_pos_as_xyz
  1  'x, y, z'
loop_
 _atom_site_type_symbol
 _atom_site_label
 _atom_site_symmetry_multiplicity
 _atom_site_fract_x
 _atom_site_fract_y
 _atom_site_fract_z
 _atom_site_occupancy
  P  P1  1  0.159800  0.317000  0.265300  1.0
  P  P2  1  0.340200  0.317000  0.765300  1.0
  P  P3  1  0.840200  0.683000  0.734700  1.0
  P  P4  1  0.659800  0.683000  0.234700  1.0
  P  P5  1  0.860800  0.279700  0.194500  1.0
  P  P6  1  0.639200  0.279700  0.694500  1.0
  P  P7  1  0.139200  0.720300  0.805500  1.0
  P  P8  1  0.360800  0.720300  0.305500  1.0
  P  P9  1  0.084200  0.786700  0.567900  1.0
  P  P10  1  0.415800  0.786700  0.067900  1.0
  P  P11  1  0.915800  0.213300  0.432100  1.0
  P  P12  1  0.584200  0.213300  0.932100  1.0
  P  P13  1  0.777400  0.835300  0.548700  1.0
  P  P14  1  0.722600  0.835300  0.048700  1.0
  P  P15  1  0.222600  0.164700  0.451300  1.0
  P  P16  1  0.277400  0.164700  0.951300  1.0
  H  H17  1  0.465200  0.554900  0.662500  1
  H  H18  1  0.034800  0.554900  0.162500  1
  H  H19  1  0.534800  0.445100  0.337500  1
  H  H20  1  0.965200  0.445100  0.837500  1
  H  H21  1  0.968500  0.625900  0.311900  1.0
  H  H22  1  0.531500  0.625900  0.811900  1.0
  H  H23  1  0.031500  0.374100  0.688100  1.0
  H  H24  1  0.468500  0.374100  0.188100  1.0
  H  H25  1  0.935600  0.544900  0.399600  1.0
  H  H26  1  0.564400  0.544900  0.899600  1.0
  H  H27  1  0.064400  0.455100  0.600400  1.0
  H  H28  1  0.435600  0.455100  0.100400  1.0
  H  H29  1  0.953700  0.990000  0.568200  1.0
  H  H30  1  0.546300  0.990000  0.068200  1.0
  H  H31  1  0.046300  0.010000  0.431800  1.0
  H  H32  1  0.453700  0.010000  0.931800  1.0
  H  H33  1  0.968500  0.131700  0.638700  1.0
  H  H34  1  0.531500  0.131700  0.138700  1.0
  H  H35  1  0.031500  0.868300  0.361300  1.0
  H  H36  1  0.468500  0.868300  0.861300  1.0
  H  H37  1  0.966000  0.160500  0.747600  1.0
  H  H38  1  0.534000  0.160500  0.247600  1.0
  H  H39  1  0.034000  0.839500  0.252400  1.0
  H  H40  1  0.466000  0.839500  0.752400  1.0
  H  H41  1  0.962000  0.108600  0.836600  1.0
  H  H42  1  0.538000  0.108600  0.336600  1.0
  H  H43  1  0.038000  0.891400  0.163400  1.0
  H  H44  1  0.462000  0.891400  0.663400  1.0
  H  H45  1  0.958500  0.058900  0.929300  1.0
  H  H46  1  0.541500  0.058900  0.429300  1.0
  H  H47  1  0.041500  0.941100  0.070700  1.0
  H  H48  1  0.458500  0.941100  0.570700  1.0
  H  H49  1  0.948700  0.950800  0.968700  1.0
  H  H50  1  0.551300  0.950800  0.468700  1.0
  H  H51  1  0.051300  0.049200  0.031300  1.0
  H  H52  1  0.448700  0.049200  0.531300  1.0
  H  H53  1  0.957000  0.806800  0.900600  1.0
  H  H54  1  0.543000  0.806800  0.400600  1.0
  H  H55  1  0.043000  0.193200  0.099400  1.0
  H  H56  1  0.457000  0.193200  0.599400  1.0
  H  H57  1  0.957200  0.820700  0.697000  1.0
  H  H58  1  0.542800  0.820700  0.197000  1.0
  H  H59  1  0.042800  0.179300  0.303000  1.0
  H  H60  1  0.457200  0.179300  0.803000  1.0
  H  H61  1  0.217700  0.177800  0.238100  1.0
  H  H62  1  0.282300  0.177800  0.738100  1.0
  H  H63  1  0.782300  0.822200  0.761900  1.0
  H  H64  1  0.717700  0.822200  0.261900  1.0
  H  H65  1  0.218100  0.206800  0.177300  1.0
  H  H66  1  0.281900  0.206800  0.677300  1.0
  H  H67  1  0.781900  0.793200  0.822700  1.0
  H  H68  1  0.718100  0.793200  0.322700  1.0
  H  H69  1  0.354500  0.280100  0.209800  1.0
  H  H70  1  0.145500  0.280100  0.709800  1.0
  H  H71  1  0.645500  0.719900  0.790200  1.0
  H  H72  1  0.854500  0.719900  0.290200  1.0
  H  H73  1  0.366200  0.182800  0.207400  1.0
  H  H74  1  0.133800  0.182800  0.707400  1.0
  H  H75  1  0.633800  0.817200  0.792600  1.0
  H  H76  1  0.866200  0.817200  0.292600  1.0
  H  H77  1  0.352800  0.259500  0.274500  1.0
  H  H78  1  0.147200  0.259500  0.774500  1.0
  H  H79  1  0.647200  0.740500  0.725500  1.0
  H  H80  1  0.852800  0.740500  0.225500  1.0
  H  H81  1  0.179400  0.458600  0.272500  1.0
  H  H82  1  0.320600  0.458600  0.772500  1.0
  H  H83  1  0.820600  0.541400  0.727500  1.0
  H  H84  1  0.679400  0.541400  0.227500  1.0
  H  H85  1  0.275500  0.409100  0.259400  1.0
  H  H86  1  0.224500  0.409100  0.759400  1.0
  H  H87  1  0.724500  0.590900  0.740600  1.0
  H  H88  1  0.775500  0.590900  0.240600  1.0
  H  H89  1  0.232400  0.340300  0.149400  1.0
  H  H90  1  0.267600  0.340300  0.649400  1.0
  H  H91  1  0.767600  0.659700  0.850600  1.0
  H  H92  1  0.732400  0.659700  0.350600  1.0
  H  H93  1  0.237500  0.443200  0.169600  1.0
  H  H94  1  0.262500  0.443200  0.669600  1.0
  H  H95  1  0.762500  0.556800  0.830400  1.0
  H  H96  1  0.737500  0.556800  0.330400  1.0
  H  H97  1  0.140100  0.396300  0.163700  1.0
  H  H98  1  0.359900  0.396300  0.663700  1.0
  H  H99  1  0.859900  0.603700  0.836300  1.0
  H  H100  1  0.640100  0.603700  0.336300  1.0
  H  H101  1  0.162300  0.289100  0.360100  1.0
  H  H102  1  0.337700  0.289100  0.860100  1.0
  H  H103  1  0.837700  0.710900  0.639900  1.0
  H  H104  1  0.662300  0.710900  0.139900  1.0
  H  H105  1  0.254300  0.337500  0.353100  1.0
  H  H106  1  0.245700  0.337500  0.853100  1.0
  H  H107  1  0.745700  0.662500  0.646900  1.0
  H  H108  1  0.754300  0.662500  0.146900  1.0
  H  H109  1  0.177100  0.470400  0.385700  1.0
  H  H110  1  0.322900  0.470400  0.885700  1.0
  H  H111  1  0.822900  0.529600  0.614300  1.0
  H  H112  1  0.677100  0.529600  0.114300  1.0
  H  H113  1  0.162100  0.426400  0.438300  1.0
  H  H114  1  0.337900  0.426400  0.938300  1.0
  H  H115  1  0.837900  0.573600  0.561700  1.0
  H  H116  1  0.662100  0.573600  0.061700  1.0
  H  H117  1  0.082100  0.423400  0.388600  1.0
  H  H118  1  0.417900  0.423400  0.888600  1.0
  H  H119  1  0.917900  0.576600  0.611400  1.0
  H  H120  1  0.582100  0.576600  0.111400  1.0
  H  H121  1  0.890100  0.224200  0.084600  1.0
  H  H122  1  0.609900  0.224200  0.584600  1.0
  H  H123  1  0.109900  0.775800  0.915400  1.0
  H  H124  1  0.390100  0.775800  0.415400  1.0
  H  H125  1  0.792000  0.269800  0.097600  1.0
  H  H126  1  0.708000  0.269800  0.597600  1.0
  H  H127  1  0.208000  0.730200  0.902400  1.0
  H  H128  1  0.292000  0.730200  0.402400  1.0
  H  H129  1  0.852700  0.400900  0.115600  1.0
  H  H130  1  0.647300  0.400900  0.615600  1.0
  H  H131  1  0.147300  0.599100  0.884400  1.0
  H  H132  1  0.352700  0.599100  0.384400  1.0
  H  H133  1  0.906800  0.338200  0.054700  1.0
  H  H134  1  0.593200  0.338200  0.554700  1.0
  H  H135  1  0.093200  0.661800  0.945300  1.0
  H  H136  1  0.406800  0.661800  0.445300  1.0
  H  H137  1  0.953900  0.368900  0.123700  1.0
  H  H138  1  0.546100  0.368900  0.623700  1.0
  H  H139  1  0.046100  0.631100  0.876300  1.0
  H  H140  1  0.453900  0.631100  0.376300  1.0
  H  H141  1  0.745200  0.172600  0.160300  1.0
  H  H142  1  0.754800  0.172600  0.660300  1.0
  H  H143  1  0.254800  0.827400  0.839700  1.0
  H  H144  1  0.245200  0.827400  0.339700  1.0
  H  H145  1  0.843000  0.127700  0.157800  1.0
  H  H146  1  0.657000  0.127700  0.657800  1.0
  H  H147  1  0.157000  0.872300  0.842200  1.0
  H  H148  1  0.343000  0.872300  0.342200  1.0
  H  H149  1  0.840600  0.159700  0.267900  1.0
  H  H150  1  0.659400  0.159700  0.767900  1.0
  H  H151  1  0.159400  0.840300  0.732100  1.0
  H  H152  1  0.340600  0.840300  0.232100  1.0
  H  H153  1  0.746500  0.112000  0.239200  1.0
  H  H154  1  0.753500  0.112000  0.739200  1.0
  H  H155  1  0.253500  0.888000  0.760800  1.0
  H  H156  1  0.246500  0.888000  0.260800  1.0
  H  H157  1  0.748300  0.214600  0.274500  1.0
  H  H158  1  0.751700  0.214600  0.774500  1.0
  H  H159  1  0.251700  0.785400  0.725500  1.0
  H  H160  1  0.248300  0.785400  0.225500  1.0
  H  H161  1  0.778200  0.364200  0.285300  1.0
  H  H162  1  0.721800  0.364200  0.785300  1.0
  H  H163  1  0.221800  0.635800  0.714700  1.0
  H  H164  1  0.278200  0.635800  0.214700  1.0
  H  H165  1  0.805600  0.421400  0.243600  1.0
  H  H166  1  0.694400  0.421400  0.743600  1.0
  H  H167  1  0.194400  0.578600  0.756400  1.0
  H  H168  1  0.305600  0.578600  0.256400  1.0
  H  H169  1  0.663500  0.295300  0.201000  1.0
  H  H170  1  0.836500  0.295300  0.701000  1.0
  H  H171  1  0.336500  0.704700  0.799000  1.0
  H  H172  1  0.163500  0.704700  0.299000  1.0
  H  H173  1  0.681100  0.375200  0.178000  1.0
  H  H174  1  0.818900  0.375200  0.678000  1.0
  H  H175  1  0.318900  0.624800  0.822000  1.0
  H  H176  1  0.181100  0.624800  0.322000  1.0
  H  H177  1  0.641100  0.391500  0.247800  1.0
  H  H178  1  0.858900  0.391500  0.747800  1.0
  H  H179  1  0.358900  0.608500  0.752200  1.0
  H  H180  1  0.141100  0.608500  0.252200  1.0
  H  H181  1  0.198500  0.734700  0.489500  1.0
  H  H182  1  0.301500  0.734700  0.989500  1.0
  H  H183  1  0.801500  0.265300  0.510500  1.0
  H  H184  1  0.698500  0.265300  0.010500  1.0
  H  H185  1  0.100100  0.699900  0.459600  1.0
  H  H186  1  0.399900  0.699900  0.959600  1.0
  H  H187  1  0.899900  0.300100  0.540400  1.0
  H  H188  1  0.600100  0.300100  0.040400  1.0
  H  H189  1  0.065000  0.845000  0.462200  1.0
  H  H190  1  0.435000  0.845000  0.962200  1.0
  H  H191  1  0.935000  0.155000  0.537800  1.0
  H  H192  1  0.565000  0.155000  0.037800  1.0
  H  H193  1  0.147300  0.801100  0.414500  1.0
  H  H194  1  0.352700  0.801100  0.914500  1.0
  H  H195  1  0.852700  0.198900  0.585500  1.0
  H  H196  1  0.647300  0.198900  0.085500  1.0
  H  H197  1  0.168800  0.871300  0.483400  1.0
  H  H198  1  0.331200  0.871300  0.983400  1.0
  H  H199  1  0.831200  0.128700  0.516600  1.0
  H  H200  1  0.668800  0.128700  0.016600  1.0
  H  H201  1  0.132700  0.928800  0.600200  1.0
  H  H202  1  0.367300  0.928800  0.100200  1.0
  H  H203  1  0.867300  0.071200  0.399800  1.0
  H  H204  1  0.632700  0.071200  0.899800  1.0
  H  H205  1  0.136500  0.895000  0.658500  1.0
  H  H206  1  0.363500  0.895000  0.158500  1.0
  H  H207  1  0.863500  0.105000  0.341500  1.0
  H  H208  1  0.636500  0.105000  0.841500  1.0
  H  H209  1  0.280100  0.842700  0.633900  1.0
  H  H210  1  0.219900  0.842700  0.133900  1.0
  H  H211  1  0.719900  0.157300  0.366100  1.0
  H  H212  1  0.780100  0.157300  0.866100  1.0
  H  H213  1  0.282100  0.933400  0.623300  1.0
  H  H214  1  0.217900  0.933400  0.123300  1.0
  H  H215  1  0.717900  0.066600  0.376700  1.0
  H  H216  1  0.782100  0.066600  0.876700  1.0
  H  H217  1  0.274200  0.845300  0.563200  1.0
  H  H218  1  0.225800  0.845300  0.063200  1.0
  H  H219  1  0.725800  0.154700  0.436800  1.0
  H  H220  1  0.774200  0.154700  0.936800  1.0
  H  H221  1  0.182700  0.705900  0.608600  1.0
  H  H222  1  0.317300  0.705900  0.108600  1.0
  H  H223  1  0.817300  0.294100  0.391400  1.0
  H  H224  1  0.682700  0.294100  0.891400  1.0
  H  H225  1  0.083600  0.712300  0.640200  1.0
  H  H226  1  0.416400  0.712300  0.140200  1.0
  H  H227  1  0.916400  0.287700  0.359800  1.0
  H  H228  1  0.583600  0.287700  0.859800  1.0
  H  H229  1  0.029400  0.605200  0.547000  1.0
  H  H230  1  0.470600  0.605200  0.047000  1.0
  H  H231  1  0.970600  0.394800  0.453000  1.0
  H  H232  1  0.529400  0.394800  0.953000  1.0
  H  H233  1  0.114100  0.570200  0.576400  1.0
  H  H234  1  0.385900  0.570200  0.076400  1.0
  H  H235  1  0.885900  0.429800  0.423600  1.0
  H  H236  1  0.614100  0.429800  0.923600  1.0
  H  H237  1  0.129100  0.598500  0.515700  1.0
  H  H238  1  0.370900  0.598500  0.015700  1.0
  H  H239  1  0.870900  0.401500  0.484300  1.0
  H  H240  1  0.629100  0.401500  0.984300  1.0
  H  H241  1  0.771500  0.802000  0.437200  1.0
  H  H242  1  0.728500  0.802000  0.937200  1.0
  H  H243  1  0.228500  0.198000  0.562800  1.0
  H  H244  1  0.271500  0.198000  0.062800  1.0
  H  H245  1  0.689000  0.865300  0.470600  1.0
  H  H246  1  0.811000  0.865300  0.970600  1.0
  H  H247  1  0.311000  0.134700  0.529400  1.0
  H  H248  1  0.189000  0.134700  0.029400  1.0
  H  H249  1  0.799700  0.980600  0.504800  1.0
  H  H250  1  0.700300  0.980600  0.004800  1.0
  H  H251  1  0.200300  0.019400  0.495200  1.0
  H  H252  1  0.299700  0.019400  0.995200  1.0
  H  H253  1  0.782400  0.941900  0.429400  1.0
  H  H254  1  0.717600  0.941900  0.929400  1.0
  H  H255  1  0.217600  0.058100  0.570600  1.0
  H  H256  1  0.282400  0.058100  0.070600  1.0
  H  H257  1  0.872100  0.914800  0.459000  1.0
  H  H258  1  0.627900  0.914800  0.959000  1.0
  H  H259  1  0.127900  0.085200  0.541000  1.0
  H  H260  1  0.372100  0.085200  0.041000  1.0
  H  H261  1  0.749800  0.978100  0.614600  1.0
  H  H262  1  0.750200  0.978100  0.114600  1.0
  H  H263  1  0.250200  0.021900  0.385400  1.0
  H  H264  1  0.249800  0.021900  0.885400  1.0
  H  H265  1  0.654700  0.928700  0.591200  1.0
  H  H266  1  0.845300  0.928700  0.091200  1.0
  H  H267  1  0.345300  0.071300  0.408800  1.0
  H  H268  1  0.154700  0.071300  0.908800  1.0
  H  H269  1  0.756300  0.872000  0.676100  1.0
  H  H270  1  0.743700  0.872000  0.176100  1.0
  H  H271  1  0.243700  0.128000  0.323900  1.0
  H  H272  1  0.256300  0.128000  0.823900  1.0
  H  H273  1  0.647400  0.882700  0.673200  1.0
  H  H274  1  0.852600  0.882700  0.173200  1.0
  H  H275  1  0.352600  0.117300  0.326800  1.0
  H  H276  1  0.147400  0.117300  0.826800  1.0
  H  H277  1  0.710400  0.965600  0.706700  1.0
  H  H278  1  0.789600  0.965600  0.206700  1.0
  H  H279  1  0.289600  0.034400  0.293300  1.0
  H  H280  1  0.210400  0.034400  0.793300  1.0
  H  H281  1  0.734200  0.692100  0.495700  1.0
  H  H282  1  0.765800  0.692100  0.995700  1.0
  H  H283  1  0.265800  0.307900  0.504300  1.0
  H  H284  1  0.234200  0.307900  0.004300  1.0
  H  H285  1  0.714400  0.719100  0.570300  1.0
  H  H286  1  0.785600  0.719100  0.070300  1.0
  H  H287  1  0.285600  0.280900  0.429700  1.0
  H  H288  1  0.214400  0.280900  0.929700  1.0
  H  H289  1  0.581700  0.802600  0.551700  1.0
  H  H290  1  0.918300  0.802600  0.051700  1.0
  H  H291  1  0.418300  0.197400  0.448300  1.0
  H  H292  1  0.081700  0.197400  0.948300  1.0
  H  H293  1  0.570600  0.699700  0.526300  1.0
  H  H294  1  0.929400  0.699700  0.026300  1.0
  H  H295  1  0.429400  0.300300  0.473700  1.0
  H  H296  1  0.070600  0.300300  0.973700  1.0
  H  H297  1  0.596000  0.747400  0.477500  1.0
  H  H298  1  0.904000  0.747400  0.977500  1.0
  H  H299  1  0.404000  0.252600  0.522500  1.0
  H  H300  1  0.096000  0.252600  0.022500  1.0
  Pt  Pt301  1  0.007300  0.297880  0.236210  1.0
  Pt  Pt302  1  0.492700  0.297880  0.736210  1.0
  Pt  Pt303  1  0.992700  0.702120  0.763790  1.0
  Pt  Pt304  1  0.507300  0.702120  0.263790  1.0
  Pt  Pt305  1  0.929980  0.811800  0.563690  1.0
  Pt  Pt306  1  0.570020  0.811800  0.063690  1.0
  Pt  Pt307  1  0.070020  0.188200  0.436310  1.0
  Pt  Pt308  1  0.429980  0.188200  0.936310  1.0
  C  C309  1  0.462000  0.573000  0.624400  1
  C  C310  1  0.038000  0.573000  0.124400  1
  C  C311  1  0.538000  0.427000  0.375600  1
  C  C312  1  0.962000  0.427000  0.875600  1
  C  C313  1  0.982400  0.489400  0.276100  1.0
  C  C314  1  0.517600  0.489400  0.776100  1.0
  C  C315  1  0.017600  0.510600  0.723900  1.0
  C  C316  1  0.482400  0.510600  0.223900  1.0
  C  C317  1  0.964100  0.577500  0.325300  1.0
  C  C318  1  0.535900  0.577500  0.825300  1.0
  C  C319  1  0.035900  0.422500  0.674700  1.0
  C  C320  1  0.464100  0.422500  0.174700  1.0
  C  C321  1  0.942600  0.592200  0.385300  1.0
  C  C322  1  0.557400  0.592200  0.885300  1.0
  C  C323  1  0.057400  0.407800  0.614700  1.0
  C  C324  1  0.442600  0.407800  0.114700  1.0
  C  C325  1  0.929000  0.682800  0.431500  1.0
  C  C326  1  0.571000  0.682800  0.931500  1.0
  C  C327  1  0.071000  0.317200  0.568500  1.0
  C  C328  1  0.429000  0.317200  0.068500  1.0
  C  C329  1  0.943600  0.930000  0.632600  1.0
  C  C330  1  0.556400  0.930000  0.132600  1.0
  C  C331  1  0.056400  0.070000  0.367400  1.0
  C  C332  1  0.443600  0.070000  0.867400  1.0
  C  C333  1  0.953400  0.000500  0.612800  1.0
  C  C334  1  0.546600  0.000500  0.112800  1.0
  C  C335  1  0.046600  0.999500  0.387200  1.0
  C  C336  1  0.453400  0.999500  0.887200  1.0
  C  C337  1  0.962700  0.085900  0.654700  1.0
  C  C338  1  0.537300  0.085900  0.154700  1.0
  C  C339  1  0.037300  0.914100  0.345300  1.0
  C  C340  1  0.462700  0.914100  0.845300  1.0
  C  C341  1  0.963400  0.102500  0.718700  1.0
  C  C342  1  0.536600  0.102500  0.218700  1.0
  C  C343  1  0.036600  0.897500  0.281300  1.0
  C  C344  1  0.463400  0.897500  0.781300  1.0
  C  C345  1  0.960100  0.033400  0.742600  1.0
  C  C346  1  0.539900  0.033400  0.242600  1.0
  C  C347  1  0.039900  0.966600  0.257400  1.0
  C  C348  1  0.460100  0.966600  0.757400  1.0
  C  C349  1  0.961500  0.050100  0.808300  1.0
  C  C350  1  0.538500  0.050100  0.308300  1.0
  C  C351  1  0.038500  0.949900  0.191700  1.0
  C  C352  1  0.461500  0.949900  0.691700  1.0
  C  C353  1  0.962100  0.984200  0.834500  1.0
  C  C354  1  0.537900  0.984200  0.334500  1.0
  C  C355  1  0.037900  0.015800  0.165500  1.0
  C  C356  1  0.462100  0.015800  0.665500  1.0
  C  C357  1  0.958400  0.000700  0.900600  1.0
  C  C358  1  0.541600  0.000700  0.400600  1.0
  C  C359  1  0.041600  0.999300  0.099400  1.0
  C  C360  1  0.458400  0.999300  0.599400  1.0
  C  C361  1  0.955000  0.937600  0.923900  1.0
  C  C362  1  0.545000  0.937600  0.423900  1.0
  C  C363  1  0.045000  0.062400  0.076100  1.0
  C  C364  1  0.455000  0.062400  0.576100  1.0
  C  C365  1  0.960500  0.851100  0.882800  1.0
  C  C366  1  0.539500  0.851100  0.382800  1.0
  C  C367  1  0.039500  0.148900  0.117200  1.0
  C  C368  1  0.460500  0.148900  0.617200  1.0
  C  C369  1  0.029300  0.172500  0.182600  1.0
  C  C370  1  0.470700  0.172500  0.682600  1.0
  C  C371  1  0.970700  0.827500  0.817400  1.0
  C  C372  1  0.529300  0.827500  0.317400  1.0
  C  C373  1  0.966500  0.895900  0.791300  1.0
  C  C374  1  0.533500  0.895900  0.291300  1.0
  C  C375  1  0.033500  0.104100  0.208700  1.0
  C  C376  1  0.466500  0.104100  0.708700  1.0
  C  C377  1  0.959200  0.879200  0.725200  1.0
  C  C378  1  0.540800  0.879200  0.225200  1.0
  C  C379  1  0.040800  0.120800  0.274800  1.0
  C  C380  1  0.459200  0.120800  0.774800  1.0
  C  C381  1  0.954600  0.945900  0.698800  1.0
  C  C382  1  0.545400  0.945900  0.198800  1.0
  C  C383  1  0.045400  0.054100  0.301200  1.0
  C  C384  1  0.454600  0.054100  0.801200  1.0
  C  C385  1  0.233700  0.225800  0.223300  1.0
  C  C386  1  0.266300  0.225800  0.723300  1.0
  C  C387  1  0.766300  0.774200  0.776700  1.0
  C  C388  1  0.733700  0.774200  0.276700  1.0
  C  C389  1  0.335600  0.238000  0.229200  1.0
  C  C390  1  0.164400  0.238000  0.729200  1.0
  C  C391  1  0.664400  0.762000  0.770800  1.0
  C  C392  1  0.835600  0.762000  0.270800  1.0
  C  C393  1  0.210200  0.404200  0.246600  1.0
  C  C394  1  0.289800  0.404200  0.746600  1.0
  C  C395  1  0.789800  0.595800  0.753400  1.0
  C  C396  1  0.710200  0.595800  0.253400  1.0
  C  C397  1  0.204500  0.395200  0.175900  1.0
  C  C398  1  0.295500  0.395200  0.675900  1.0
  C  C399  1  0.795500  0.604800  0.824100  1.0
  C  C400  1  0.704500  0.604800  0.324100  1.0
  C  C401  1  0.186800  0.337200  0.348200  1.0
  C  C402  1  0.313200  0.337200  0.848200  1.0
  C  C403  1  0.813200  0.662800  0.651800  1.0
  C  C404  1  0.686800  0.662800  0.151800  1.0
  C  C405  1  0.149000  0.422000  0.394300  1.0
  C  C406  1  0.351000  0.422000  0.894300  1.0
  C  C407  1  0.851000  0.578000  0.605700  1.0
  C  C408  1  0.649000  0.578000  0.105700  1.0
  C  C409  1  0.856800  0.276300  0.111800  1.0
  C  C410  1  0.643200  0.276300  0.611800  1.0
  C  C411  1  0.143200  0.723700  0.888200  1.0
  C  C412  1  0.356800  0.723700  0.388200  1.0
  C  C413  1  0.896000  0.353000  0.100500  1.0
  C  C414  1  0.604000  0.353000  0.600500  1.0
  C  C415  1  0.104000  0.647000  0.899500  1.0
  C  C416  1  0.396000  0.647000  0.399500  1.0
  C  C417  1  0.803300  0.175700  0.183900  1.0
  C  C418  1  0.696700  0.175700  0.683900  1.0
  C  C419  1  0.196700  0.824300  0.816100  1.0
  C  C420  1  0.303300  0.824300  0.316100  1.0
  C  C421  1  0.782900  0.165000  0.246900  1.0
  C  C422  1  0.717100  0.165000  0.746900  1.0
  C  C423  1  0.217100  0.835000  0.753100  1.0
  C  C424  1  0.282900  0.835000  0.253100  1.0
  C  C425  1  0.780800  0.364600  0.241300  1.0
  C  C426  1  0.719200  0.364600  0.741300  1.0
  C  C427  1  0.219200  0.635400  0.758700  1.0
  C  C428  1  0.280800  0.635400  0.258700  1.0
  C  C429  1  0.682700  0.355900  0.214600  1.0
  C  C430  1  0.817300  0.355900  0.714600  1.0
  C  C431  1  0.317300  0.644100  0.785400  1.0
  C  C432  1  0.182700  0.644100  0.285400  1.0
  C  C433  1  0.133600  0.751300  0.487600  1.0
  C  C434  1  0.366400  0.751300  0.987600  1.0
  C  C435  1  0.866400  0.248700  0.512400  1.0
  C  C436  1  0.633600  0.248700  0.012400  1.0
  C  C437  1  0.128200  0.823800  0.459300  1.0
  C  C438  1  0.371800  0.823800  0.959300  1.0
  C  C439  1  0.871800  0.176200  0.540700  1.0
  C  C440  1  0.628200  0.176200  0.040700  1.0
  C  C441  1  0.152500  0.879900  0.612900  1.0
  C  C442  1  0.347500  0.879900  0.112900  1.0
  C  C443  1  0.847500  0.120100  0.387100  1.0
  C  C444  1  0.652500  0.120100  0.887100  1.0
  C  C445  1  0.256400  0.874900  0.607900  1.0
  C  C446  1  0.243600  0.874900  0.107900  1.0
  C  C447  1  0.743600  0.125100  0.392100  1.0
  C  C448  1  0.756400  0.125100  0.892100  1.0
  C  C449  1  0.116200  0.701500  0.599300  1.0
  C  C450  1  0.383800  0.701500  0.099300  1.0
  C  C451  1  0.883800  0.298500  0.400700  1.0
  C  C452  1  0.616200  0.298500  0.900700  1.0
  C  C453  1  0.095000  0.611000  0.555800  1.0
  C  C454  1  0.405000  0.611000  0.055800  1.0
  C  C455  1  0.905000  0.389000  0.444200  1.0
  C  C456  1  0.595000  0.389000  0.944200  1.0
  C  C457  1  0.755500  0.855100  0.473500  1.0
  C  C458  1  0.744500  0.855100  0.973500  1.0
  C  C459  1  0.244500  0.144900  0.526500  1.0
  C  C460  1  0.255500  0.144900  0.026500  1.0
  C  C461  1  0.807000  0.929600  0.466000  1.0
  C  C462  1  0.693000  0.929600  0.966000  1.0
  C  C463  1  0.193000  0.070400  0.534000  1.0
  C  C464  1  0.307000  0.070400  0.034000  1.0
  C  C465  1  0.716500  0.923300  0.607700  1.0
  C  C466  1  0.783500  0.923300  0.107700  1.0
  C  C467  1  0.283500  0.076700  0.392300  1.0
  C  C468  1  0.216500  0.076700  0.892300  1.0
  C  C469  1  0.706800  0.910000  0.671700  1.0
  C  C470  1  0.793200  0.910000  0.171700  1.0
  C  C471  1  0.293200  0.090000  0.328300  1.0
  C  C472  1  0.206800  0.090000  0.828300  1.0
  C  C473  1  0.708400  0.738300  0.533300  1.0
  C  C474  1  0.791600  0.738300  0.033300  1.0
  C  C475  1  0.291600  0.261700  0.466700  1.0
  C  C476  1  0.208400  0.261700  0.966700  1.0
  C  C477  1  0.605000  0.748000  0.521100  1.0
  C  C478  1  0.895000  0.748000  0.021100  1.0
  C  C479  1  0.395000  0.252000  0.478900  1.0
  C  C480  1  0.105000  0.252000  0.978900  1.0
  Cl  Cl481  1  0.426700  0.682400  0.649100  1
  Cl  Cl482  1  0.073300  0.682400  0.149100  1
  Cl  Cl483  1  0.573300  0.317600  0.350900  1
  Cl  Cl484  1  0.926700  0.317600  0.850900  1
  Cl  Cl485  1  0.568600  0.563400  0.590300  1
  Cl  Cl486  1  0.931400  0.563400  0.090300  1
  Cl  Cl487  1  0.431400  0.436600  0.409700  1
  Cl  Cl488  1  0.068600  0.436600  0.909700  1
  Cl  Cl489  1  0.382200  0.512200  0.572700  1
  Cl  Cl490  1  0.117800  0.512200  0.072700  1
  Cl  Cl491  1  0.617800  0.487800  0.427300  1
  Cl  Cl492  1  0.882200  0.487800  0.927300  1
  O  O493  1  0.979500  0.426600  0.296600  1.0
  O  O494  1  0.520500  0.426600  0.796600  1.0
  O  O495  1  0.020500  0.573400  0.703400  1.0
  O  O496  1  0.479500  0.573400  0.203400  1.0
  O  O497  1  0.001000  0.485200  0.220500  1.0
  O  O498  1  0.499000  0.485200  0.720500  1.0
  O  O499  1  0.999000  0.514800  0.779500  1.0
  O  O500  1  0.501000  0.514800  0.279500  1.0
  O  O501  1  0.918800  0.686600  0.490900  1.0
  O  O502  1  0.581200  0.686600  0.990900  1.0
  O  O503  1  0.081200  0.313400  0.509100  1.0
  O  O504  1  0.418800  0.313400  0.009100  1.0
  O  O505  1  0.927800  0.743000  0.412800  1.0
  O  O506  1  0.572200  0.743000  0.912800  1.0
  O  O507  1  0.072200  0.257000  0.587200  1.0
  O  O508  1  0.427800  0.257000  0.087200  1.0
