# generated using pymatgen
data_P4H88Pt2C52Cl5O4
_symmetry_space_group_name_H-M   'P 1'
_cell_length_a   11.87200000
_cell_length_b   12.83550000
_cell_length_c   20.98170000
_cell_angle_alpha   79.83480000
_cell_angle_beta   74.16540000
_cell_angle_gamma   73.59590000
_symmetry_Int_Tables_number   1
_chemical_formula_structural   P4H88Pt2C52Cl5O4
_chemical_formula_sum   'P8 H176 Pt4 C104 Cl10 O8'
_cell_volume   2933.54664227
_cell_formula_units_Z   2
loop_
 _symmetry_equiv_pos_site_id
 _symmetry_equiv_pos_as_xyz
  1  'x, y, z'
loop_
 _atom_site_type_symbol
 _atom_site_label
 _atom_site_symmetry_multiplicity
 _atom_site_fract_x
 _atom_site_fract_y
 _atom_site_fract_z
 _atom_site_occupancy
  P  P1  1  0.948630  0.629380  0.845280  1.0
  P  P2  1  0.051370  0.370620  0.154720  1.0
  P  P3  1  0.498400  0.268170  0.287670  1.0
  P  P4  1  0.501600  0.731830  0.712330  1.0
  P  P5  1  0.720730  0.983600  0.852880  1.0
  P  P6  1  0.279270  0.016400  0.147120  1.0
  P  P7  1  0.161500  0.546200  0.346790  1.0
  P  P8  1  0.838500  0.453800  0.653210  1.0
  H  H9  1  0.000700  0.103200  0.941300  1
  H  H10  1  0.999300  0.896800  0.058700  1
  H  H11  1  0.131300  0.112400  0.943700  1
  H  H12  1  0.868700  0.887600  0.056300  1
  H  H13  1  0.471600  0.340200  0.650500  1
  H  H14  1  0.528400  0.659800  0.349500  1
  H  H15  1  0.506000  0.246400  0.602500  1
  H  H16  1  0.494000  0.753600  0.397500  1
  H  H17  1  0.641200  0.988900  0.758300  1
  H  H18  1  0.358800  0.011100  0.241700  1
  H  H19  1  0.584600  0.102600  0.789600  1
  H  H20  1  0.415400  0.897400  0.210400  1
  H  H21  1  0.778600  0.142700  0.742500  1
  H  H22  1  0.221400  0.857300  0.257500  1
  H  H23  1  0.703700  0.141800  0.689800  1
  H  H24  1  0.296300  0.858200  0.310200  1
  H  H25  1  0.812500  0.039400  0.701800  1
  H  H26  1  0.187500  0.960600  0.298200  1
  H  H27  1  0.052100  0.617900  0.441000  1
  H  H28  1  0.947900  0.382100  0.559000  1
  H  H29  1  0.156600  0.512000  0.455700  1
  H  H30  1  0.843400  0.488000  0.544300  1
  H  H31  1  0.284700  0.607700  0.439900  1
  H  H32  1  0.715300  0.392300  0.560100  1
  H  H33  1  0.172800  0.712800  0.442800  1
  H  H34  1  0.827200  0.287200  0.557200  1
  H  H35  1  0.249400  0.671100  0.372500  1
  H  H36  1  0.750600  0.328900  0.627500  1
  H  H37  1  0.481500  0.329100  0.650500  1
  H  H38  1  0.518500  0.670900  0.349500  1
  H  H39  1  0.414600  0.374300  0.590400  1
  H  H40  1  0.585400  0.625700  0.409600  1
  H  H41  1  0.587200  0.632200  0.008900  1.0
  H  H42  1  0.412800  0.367800  0.991100  1.0
  H  H43  1  0.479300  0.552100  0.105100  1.0
  H  H44  1  0.520700  0.447900  0.894900  1.0
  H  H45  1  0.586700  0.717000  0.216400  1.0
  H  H46  1  0.413300  0.283000  0.783600  1.0
  H  H47  1  0.694800  0.795600  0.120100  1.0
  H  H48  1  0.305200  0.204400  0.879900  1.0
  H  H49  1  0.321700  0.336000  0.453200  1.0
  H  H50  1  0.678300  0.664000  0.546800  1.0
  H  H51  1  0.221300  0.239700  0.546400  1.0
  H  H52  1  0.778700  0.760300  0.453600  1.0
  H  H53  1  0.079400  0.156000  0.537500  1.0
  H  H54  1  0.920600  0.844000  0.462500  1.0
  H  H55  1  0.976700  0.100700  0.467800  1.0
  H  H56  1  0.023300  0.899300  0.532200  1.0
  H  H57  1  0.869800  0.041300  0.399500  1.0
  H  H58  1  0.130200  0.958700  0.600500  1.0
  H  H59  1  0.846700  0.027300  0.297400  1.0
  H  H60  1  0.153300  0.972700  0.702600  1.0
  H  H61  1  0.972800  0.089000  0.199800  1.0
  H  H62  1  0.027200  0.911000  0.800200  1.0
  H  H63  1  0.205000  0.258600  0.275300  1.0
  H  H64  1  0.795000  0.741400  0.724700  1.0
  H  H65  1  0.071900  0.624000  0.736400  1.0
  H  H66  1  0.928100  0.376000  0.263600  1.0
  H  H67  1  0.131500  0.668800  0.782300  1.0
  H  H68  1  0.868500  0.331200  0.217700  1.0
  H  H69  1  0.201300  0.487000  0.830200  1.0
  H  H70  1  0.798700  0.513000  0.169800  1.0
  H  H71  1  0.253100  0.496800  0.751100  1.0
  H  H72  1  0.746900  0.503200  0.248900  1.0
  H  H73  1  0.142000  0.442300  0.784000  1.0
  H  H74  1  0.858000  0.557700  0.216000  1.0
  H  H75  1  0.916800  0.589500  0.960000  1.0
  H  H76  1  0.083200  0.410500  0.040000  1.0
  H  H77  1  0.038700  0.509300  0.923900  1.0
  H  H78  1  0.961300  0.490700  0.076100  1.0
  H  H79  1  0.130500  0.662600  0.897500  1.0
  H  H80  1  0.869500  0.337400  0.102500  1.0
  H  H81  1  0.096800  0.622700  0.975400  1.0
  H  H82  1  0.903200  0.377300  0.024600  1.0
  H  H83  1  0.011900  0.729300  0.944900  1.0
  H  H84  1  0.988100  0.270700  0.055100  1.0
  H  H85  1  0.861100  0.543800  0.788800  1.0
  H  H86  1  0.138900  0.456200  0.211200  1.0
  H  H87  1  0.941100  0.454300  0.832500  1.0
  H  H88  1  0.058900  0.545700  0.167500  1.0
  H  H89  1  0.789800  0.472700  0.925500  1.0
  H  H90  1  0.210200  0.527300  0.074500  1.0
  H  H91  1  0.725700  0.471800  0.867800  1.0
  H  H92  1  0.274300  0.528200  0.132200  1.0
  H  H93  1  0.715200  0.584900  0.893900  1.0
  H  H94  1  0.284800  0.415100  0.106100  1.0
  H  H95  1  0.825900  0.012000  0.924700  1.0
  H  H96  1  0.174100  0.988000  0.075300  1.0
  H  H97  1  0.879800  0.058500  0.850200  1.0
  H  H98  1  0.120200  0.941500  0.149800  1.0
  H  H99  1  0.724000  0.218400  0.859900  1.0
  H  H100  1  0.276000  0.781600  0.140100  1.0
  H  H101  1  0.787100  0.200200  0.920700  1.0
  H  H102  1  0.212900  0.799800  0.079300  1.0
  H  H103  1  0.660000  0.171100  0.932300  1.0
  H  H104  1  0.340000  0.828900  0.067700  1.0
  H  H105  1  0.589500  0.977200  0.958800  1.0
  H  H106  1  0.410500  0.022800  0.041200  1.0
  H  H107  1  0.535600  0.082100  0.912800  1.0
  H  H108  1  0.464400  0.917900  0.087200  1.0
  H  H109  1  0.475800  0.966700  0.858400  1.0
  H  H110  1  0.524200  0.033300  0.141600  1.0
  H  H111  1  0.410100  0.966400  0.935900  1.0
  H  H112  1  0.589900  0.033600  0.064100  1.0
  H  H113  1  0.520500  0.866400  0.910300  1.0
  H  H114  1  0.479500  0.133600  0.089700  1.0
  H  H115  1  0.680600  0.163600  0.791400  1.0
  H  H116  1  0.319400  0.836400  0.208600  1.0
  H  H117  1  0.803900  0.089000  0.752000  1.0
  H  H118  1  0.196100  0.911000  0.248000  1.0
  H  H119  1  0.698600  0.998500  0.712800  1.0
  H  H120  1  0.301400  0.001500  0.287200  1.0
  H  H121  1  0.644400  0.126700  0.696800  1.0
  H  H122  1  0.355600  0.873300  0.303200  1.0
  H  H123  1  0.573300  0.058900  0.758300  1.0
  H  H124  1  0.426700  0.941100  0.241700  1.0
  H  H125  1  0.524800  0.214400  0.396600  1.0
  H  H126  1  0.475200  0.785600  0.603400  1.0
  H  H127  1  0.651500  0.181800  0.344200  1.0
  H  H128  1  0.348500  0.818200  0.655800  1.0
  H  H129  1  0.673500  0.356900  0.330000  1.0
  H  H130  1  0.326500  0.643100  0.670000  1.0
  H  H131  1  0.642800  0.318800  0.408300  1.0
  H  H132  1  0.357200  0.681200  0.591700  1.0
  H  H133  1  0.539900  0.398900  0.374400  1.0
  H  H134  1  0.460100  0.601100  0.625600  1.0
  H  H135  1  0.629800  0.371400  0.216600  1.0
  H  H136  1  0.370200  0.628600  0.783400  1.0
  H  H137  1  0.694400  0.243600  0.216000  1.0
  H  H138  1  0.305600  0.756400  0.784000  1.0
  H  H139  1  0.590100  0.223100  0.140700  1.0
  H  H140  1  0.409900  0.776900  0.859300  1.0
  H  H141  1  0.630100  0.334400  0.111300  1.0
  H  H142  1  0.369900  0.665600  0.888700  1.0
  H  H143  1  0.494500  0.338100  0.152800  1.0
  H  H144  1  0.505500  0.661900  0.847200  1.0
  H  H145  1  0.425200  0.114700  0.319300  1.0
  H  H146  1  0.574800  0.885300  0.680700  1.0
  H  H147  1  0.446000  0.145700  0.240700  1.0
  H  H148  1  0.554000  0.854300  0.759300  1.0
  H  H149  1  0.658700  0.066200  0.229800  1.0
  H  H150  1  0.341300  0.933800  0.770200  1.0
  H  H151  1  0.579600  0.978800  0.260000  1.0
  H  H152  1  0.420400  0.021200  0.740000  1.0
  H  H153  1  0.630900  0.027700  0.308100  1.0
  H  H154  1  0.369100  0.972300  0.691900  1.0
  H  H155  1  0.202000  0.685900  0.265000  1.0
  H  H156  1  0.798000  0.314100  0.735000  1.0
  H  H157  1  0.107700  0.632800  0.249200  1.0
  H  H158  1  0.892300  0.367200  0.750800  1.0
  H  H159  1  0.952500  0.732000  0.331700  1.0
  H  H160  1  0.047500  0.268000  0.668300  1.0
  H  H161  1  0.010200  0.810300  0.271000  1.0
  H  H162  1  0.989800  0.189700  0.729000  1.0
  H  H163  1  0.048700  0.790900  0.340400  1.0
  H  H164  1  0.951300  0.209100  0.659600  1.0
  H  H165  1  0.048400  0.464500  0.440000  1.0
  H  H166  1  0.951600  0.535500  0.560000  1.0
  H  H167  1  0.979700  0.590300  0.424800  1.0
  H  H168  1  0.020300  0.409700  0.575200  1.0
  H  H169  1  0.925700  0.554600  0.338900  1.0
  H  H170  1  0.074300  0.445400  0.661100  1.0
  H  H171  1  0.900000  0.457700  0.396000  1.0
  H  H172  1  0.100000  0.542300  0.604000  1.0
  H  H173  1  0.018800  0.436900  0.336500  1.0
  H  H174  1  0.981200  0.563100  0.663500  1.0
  H  H175  1  0.261800  0.671800  0.363400  1.0
  H  H176  1  0.738200  0.328200  0.636600  1.0
  H  H177  1  0.135900  0.682500  0.416500  1.0
  H  H178  1  0.864100  0.317500  0.583500  1.0
  H  H179  1  0.216600  0.537900  0.471000  1.0
  H  H180  1  0.783400  0.462100  0.529000  1.0
  H  H181  1  0.269000  0.642600  0.463300  1.0
  H  H182  1  0.731000  0.357400  0.536700  1.0
  H  H183  1  0.343000  0.543500  0.419900  1.0
  H  H184  1  0.657000  0.456500  0.580100  1.0
  Pt  Pt185  1  0.826790  0.803280  0.845319  1.0
  Pt  Pt186  1  0.173210  0.196720  0.154681  1.0
  Pt  Pt187  1  0.323550  0.404240  0.309209  1.0
  Pt  Pt188  1  0.676450  0.595760  0.690791  1.0
  C  C189  1  0.087600  0.085700  0.918600  1
  C  C190  1  0.912400  0.914300  0.081400  1
  C  C191  1  0.441000  0.308800  0.620700  1
  C  C192  1  0.559000  0.691200  0.379300  1
  C  C193  1  0.660600  0.046300  0.776300  1
  C  C194  1  0.339400  0.953700  0.223700  1
  C  C195  1  0.746100  0.096800  0.723100  1
  C  C196  1  0.253900  0.903200  0.276900  1
  C  C197  1  0.137400  0.578600  0.424700  1
  C  C198  1  0.862600  0.421400  0.575300  1
  C  C199  1  0.218000  0.648000  0.420000  1
  C  C200  1  0.782000  0.352000  0.580000  1
  C  C201  1  0.725300  0.774100  0.992600  1.0
  C  C202  1  0.274700  0.225900  0.007400  1.0
  C  C203  1  0.653600  0.721400  0.054900  1.0
  C  C204  1  0.346400  0.278600  0.945100  1.0
  C  C205  1  0.587700  0.648900  0.051100  1.0
  C  C206  1  0.412300  0.351100  0.948900  1.0
  C  C207  1  0.523400  0.601500  0.108300  1.0
  C  C208  1  0.476600  0.398500  0.891700  1.0
  C  C209  1  0.522200  0.625500  0.171300  1.0
  C  C210  1  0.477800  0.374500  0.828700  1.0
  C  C211  1  0.587000  0.699000  0.174300  1.0
  C  C212  1  0.413000  0.301000  0.825700  1.0
  C  C213  1  0.651300  0.745700  0.117000  1.0
  C  C214  1  0.348700  0.254300  0.883000  1.0
  C  C215  1  0.456100  0.572200  0.234600  1.0
  C  C216  1  0.543900  0.427800  0.765400  1.0
  C  C217  1  0.251500  0.301600  0.383700  1.0
  C  C218  1  0.748500  0.698400  0.616300  1.0
  C  C219  1  0.267300  0.298400  0.447500  1.0
  C  C220  1  0.732700  0.701600  0.552500  1.0
  C  C221  1  0.205700  0.241500  0.504100  1.0
  C  C222  1  0.794300  0.758500  0.495900  1.0
  C  C223  1  0.124500  0.189400  0.498700  1.0
  C  C224  1  0.875500  0.810600  0.501300  1.0
  C  C225  1  0.106600  0.184500  0.434600  1.0
  C  C226  1  0.893400  0.815500  0.565400  1.0
  C  C227  1  0.023600  0.131600  0.428600  1.0
  C  C228  1  0.976400  0.868400  0.571400  1.0
  C  C229  1  0.006600  0.122000  0.366000  1.0
  C  C230  1  0.993400  0.878000  0.634000  1.0
  C  C231  1  0.919300  0.069700  0.360500  1.0
  C  C232  1  0.080700  0.930300  0.639500  1.0
  C  C233  1  0.906900  0.060400  0.300600  1.0
  C  C234  1  0.093100  0.939600  0.699400  1.0
  C  C235  1  0.982300  0.099100  0.241600  1.0
  C  C236  1  0.017700  0.900900  0.758400  1.0
  C  C237  1  0.931600  0.849400  0.757300  1.0
  C  C238  1  0.068400  0.150600  0.242700  1.0
  C  C239  1  0.080800  0.166400  0.305900  1.0
  C  C240  1  0.919200  0.833600  0.694100  1.0
  C  C241  1  0.159400  0.225700  0.314100  1.0
  C  C242  1  0.840600  0.774300  0.685900  1.0
  C  C243  1  0.173300  0.238200  0.376100  1.0
  C  C244  1  0.826700  0.761800  0.623900  1.0
  C  C245  1  0.091100  0.611900  0.780600  1.0
  C  C246  1  0.908900  0.388100  0.219400  1.0
  C  C247  1  0.179900  0.499200  0.787100  1.0
  C  C248  1  0.820100  0.500800  0.212900  1.0
  C  C249  1  0.990700  0.586200  0.923600  1.0
  C  C250  1  0.009300  0.413800  0.076400  1.0
  C  C251  1  0.064000  0.656400  0.936500  1.0
  C  C252  1  0.936000  0.343600  0.063500  1.0
  C  C253  1  0.880500  0.525500  0.833100  1.0
  C  C254  1  0.119500  0.474500  0.166900  1.0
  C  C255  1  0.768100  0.512600  0.884500  1.0
  C  C256  1  0.231900  0.487400  0.115500  1.0
  C  C257  1  0.803700  0.055500  0.884000  1.0
  C  C258  1  0.196300  0.944500  0.116000  1.0
  C  C259  1  0.737800  0.171700  0.900700  1.0
  C  C260  1  0.262200  0.828300  0.099300  1.0
  C  C261  1  0.574500  0.002900  0.913900  1.0
  C  C262  1  0.425500  0.997100  0.086100  1.0
  C  C263  1  0.487700  0.945600  0.903700  1.0
  C  C264  1  0.512300  0.054400  0.096300  1.0
  C  C265  1  0.719800  0.089900  0.776800  1.0
  C  C266  1  0.280200  0.910100  0.223200  1.0
  C  C267  1  0.653000  0.066500  0.732400  1.0
  C  C268  1  0.347000  0.933500  0.267600  1.0
  C  C269  1  0.577300  0.241000  0.355200  1.0
  C  C270  1  0.422700  0.759000  0.644800  1.0
  C  C271  1  0.611300  0.337100  0.368100  1.0
  C  C272  1  0.388700  0.662900  0.631900  1.0
  C  C273  1  0.617300  0.299000  0.214900  1.0
  C  C274  1  0.382700  0.701000  0.785100  1.0
  C  C275  1  0.579400  0.298600  0.148700  1.0
  C  C276  1  0.420600  0.701400  0.851300  1.0
  C  C277  1  0.482900  0.137300  0.278900  1.0
  C  C278  1  0.517100  0.862700  0.721100  1.0
  C  C279  1  0.598500  0.044000  0.268200  1.0
  C  C280  1  0.401500  0.956000  0.731800  1.0
  C  C281  1  0.127800  0.659800  0.285000  1.0
  C  C282  1  0.872200  0.340200  0.715000  1.0
  C  C283  1  0.025700  0.756900  0.309200  1.0
  C  C284  1  0.974300  0.243100  0.690800  1.0
  C  C285  1  0.028200  0.522900  0.404300  1.0
  C  C286  1  0.971800  0.477100  0.595700  1.0
  C  C287  1  0.963000  0.490500  0.365900  1.0
  C  C288  1  0.037000  0.509500  0.634100  1.0
  C  C289  1  0.210000  0.629000  0.396000  1.0
  C  C290  1  0.790000  0.371000  0.604000  1.0
  C  C291  1  0.262000  0.586000  0.439600  1.0
  C  C292  1  0.738000  0.414000  0.560400  1.0
  Cl  Cl293  1  0.142600  0.943900  0.917300  1
  Cl  Cl294  1  0.857400  0.056100  0.082700  1
  Cl  Cl295  1  0.106800  0.148900  0.839400  1
  Cl  Cl296  1  0.893200  0.851100  0.160600  1
  Cl  Cl297  1  0.315500  0.259800  0.668180  1
  Cl  Cl298  1  0.684500  0.740200  0.331820  1
  Cl  Cl299  1  0.410800  0.404200  0.557100  1
  Cl  Cl300  1  0.589200  0.595800  0.442900  1
  Cl  Cl301  1  0.549600  0.195300  0.570400  1
  Cl  Cl302  1  0.450400  0.804700  0.429600  1
  O  O303  1  0.718500  0.748900  0.937100  1.0
  O  O304  1  0.281500  0.251100  0.062900  1.0
  O  O305  1  0.782900  0.837500  0.997400  1.0
  O  O306  1  0.217100  0.162500  0.002600  1.0
  O  O307  1  0.463600  0.591600  0.288900  1.0
  O  O308  1  0.536400  0.408400  0.711100  1.0
  O  O309  1  0.396300  0.508500  0.227100  1.0
  O  O310  1  0.603700  0.491500  0.772900  1.0
