# generated using pymatgen
data_Cd3H70C89(N6O5)2
_symmetry_space_group_name_H-M   'P 1'
_cell_length_a   15.78000000
_cell_length_b   18.28760000
_cell_length_c   28.94950937
_cell_angle_alpha   108.18043799
_cell_angle_beta   90.00000000
_cell_angle_gamma   90.00000000
_symmetry_Int_Tables_number   1
_chemical_formula_structural   Cd3H70C89(N6O5)2
_chemical_formula_sum   'Cd12 H280 C356 N48 O40'
_cell_volume   7937.14788394
_cell_formula_units_Z   4
loop_
 _symmetry_equiv_pos_site_id
 _symmetry_equiv_pos_as_xyz
  1  'x, y, z'
loop_
 _atom_site_type_symbol
 _atom_site_label
 _atom_site_symmetry_multiplicity
 _atom_site_fract_x
 _atom_site_fract_y
 _atom_site_fract_z
 _atom_site_occupancy
  Cd  Cd1  1  0.021840  0.828073  0.879803  1.0
  Cd  Cd2  1  0.521840  0.671927  0.620197  1.0
  Cd  Cd3  1  0.978160  0.171927  0.120197  1.0
  Cd  Cd4  1  0.478160  0.328073  0.379803  1.0
  Cd  Cd5  1  0.920380  0.346203  0.841143  1.0
  Cd  Cd6  1  0.420380  0.153797  0.658857  1.0
  Cd  Cd7  1  0.079620  0.653797  0.158857  1.0
  Cd  Cd8  1  0.579620  0.846203  0.341143  1.0
  Cd  Cd9  1  0.441010  0.915250  0.046540  1.0
  Cd  Cd10  1  0.941010  0.584750  0.453460  1.0
  Cd  Cd11  1  0.558990  0.084750  0.953460  1.0
  Cd  Cd12  1  0.058990  0.415250  0.546540  1.0
  H  H13  1  0.294400  0.520600  0.027100  1
  H  H14  1  0.794400  0.979400  0.472900  1
  H  H15  1  0.705600  0.479400  0.972900  1
  H  H16  1  0.205600  0.020600  0.527100  1
  H  H17  1  0.298700  0.648700  0.027600  1
  H  H18  1  0.798700  0.851300  0.472400  1
  H  H19  1  0.701300  0.351300  0.972400  1
  H  H20  1  0.201300  0.148700  0.527600  1
  H  H21  1  0.394300  0.686000  0.977400  1
  H  H22  1  0.894300  0.814000  0.522600  1
  H  H23  1  0.605700  0.314000  0.022600  1
  H  H24  1  0.105700  0.186000  0.477400  1
  H  H25  1  0.485700  0.595200  0.926700  1
  H  H26  1  0.985700  0.904800  0.573300  1
  H  H27  1  0.514300  0.404800  0.073300  1
  H  H28  1  0.014300  0.095200  0.426700  1
  H  H29  1  0.481400  0.467000  0.926100  1
  H  H30  1  0.981400  0.033000  0.573900  1
  H  H31  1  0.518600  0.533000  0.073900  1
  H  H32  1  0.018600  0.967000  0.426100  1
  H  H33  1  0.121900  0.253700  0.973700  1
  H  H34  1  0.621900  0.246300  0.526300  1
  H  H35  1  0.878100  0.746300  0.026300  1
  H  H36  1  0.378100  0.753700  0.473700  1
  H  H37  1  0.260700  0.235500  0.990000  1
  H  H38  1  0.760700  0.264500  0.510000  1
  H  H39  1  0.739300  0.764500  0.010000  1
  H  H40  1  0.239300  0.735500  0.490000  1
  H  H41  1  0.327100  0.121900  0.944800  1
  H  H42  1  0.827100  0.378100  0.555200  1
  H  H43  1  0.672900  0.878100  0.055200  1
  H  H44  1  0.172900  0.621900  0.444800  1
  H  H45  1  0.256000  0.035500  0.880400  1
  H  H46  1  0.756000  0.464500  0.619600  1
  H  H47  1  0.744000  0.964500  0.119600  1
  H  H48  1  0.244000  0.535500  0.380400  1
  H  H49  1  0.115600  0.057900  0.868100  1
  H  H50  1  0.615600  0.442100  0.631900  1
  H  H51  1  0.884400  0.942100  0.131900  1
  H  H52  1  0.384400  0.557900  0.368100  1
  H  H53  1  0.601200  0.925800  0.714900  1
  H  H54  1  0.101200  0.574200  0.785100  1
  H  H55  1  0.398800  0.074200  0.285100  1
  H  H56  1  0.898800  0.425800  0.214900  1
  H  H57  1  0.679400  0.899900  0.741400  1
  H  H58  1  0.179400  0.600100  0.758600  1
  H  H59  1  0.320600  0.100100  0.258600  1
  H  H60  1  0.820600  0.399900  0.241400  1
  H  H61  1  0.693500  0.960800  0.712600  1
  H  H62  1  0.193500  0.539200  0.787400  1
  H  H63  1  0.306500  0.039200  0.287400  1
  H  H64  1  0.806500  0.460800  0.212600  1
  H  H65  1  0.601900  0.988500  0.792800  1
  H  H66  1  0.101900  0.511500  0.707200  1
  H  H67  1  0.398100  0.011500  0.207200  1
  H  H68  1  0.898100  0.488500  0.292800  1
  H  H69  1  0.248700  0.917000  0.774300  1.0
  H  H70  1  0.748700  0.583000  0.725700  1.0
  H  H71  1  0.751300  0.083000  0.225700  1.0
  H  H72  1  0.251300  0.417000  0.274300  1.0
  H  H73  1  0.116100  0.978000  0.759700  1.0
  H  H74  1  0.616100  0.522000  0.740300  1.0
  H  H75  1  0.883900  0.022000  0.240300  1.0
  H  H76  1  0.383900  0.478000  0.259700  1.0
  H  H77  1  0.788100  0.960200  0.802600  1.0
  H  H78  1  0.288100  0.539800  0.697400  1.0
  H  H79  1  0.211900  0.039800  0.197400  1.0
  H  H80  1  0.711900  0.460200  0.302600  1.0
  H  H81  1  0.703700  0.878600  0.840100  1.0
  H  H82  1  0.203700  0.621400  0.659900  1.0
  H  H83  1  0.296300  0.121400  0.159900  1.0
  H  H84  1  0.796300  0.378600  0.340100  1.0
  H  H85  1  0.779900  0.655900  0.917200  1.0
  H  H86  1  0.279900  0.844100  0.582800  1.0
  H  H87  1  0.220100  0.344100  0.082800  1.0
  H  H88  1  0.720100  0.155900  0.417200  1.0
  H  H89  1  0.911800  0.597700  0.935500  1.0
  H  H90  1  0.411800  0.902300  0.564500  1.0
  H  H91  1  0.088200  0.402300  0.064500  1.0
  H  H92  1  0.588200  0.097700  0.435500  1.0
  H  H93  1  0.245100  0.637300  0.908900  1.0
  H  H94  1  0.745100  0.862700  0.591100  1.0
  H  H95  1  0.754900  0.362700  0.091100  1.0
  H  H96  1  0.254900  0.137300  0.408900  1.0
  H  H97  1  0.328100  0.716700  0.869200  1.0
  H  H98  1  0.828100  0.783300  0.630800  1.0
  H  H99  1  0.671900  0.283300  0.130800  1.0
  H  H100  1  0.171900  0.216700  0.369200  1.0
  H  H101  1  0.960300  0.087600  0.816800  1.0
  H  H102  1  0.460300  0.412400  0.683200  1.0
  H  H103  1  0.039700  0.912400  0.183200  1.0
  H  H104  1  0.539700  0.587600  0.316800  1.0
  H  H105  1  0.880100  0.091400  0.684400  1.0
  H  H106  1  0.380100  0.408600  0.815600  1.0
  H  H107  1  0.119900  0.908600  0.315600  1.0
  H  H108  1  0.619900  0.591400  0.184400  1.0
  H  H109  1  0.873500  0.957900  0.657400  1.0
  H  H110  1  0.373500  0.542100  0.842600  1.0
  H  H111  1  0.126500  0.042100  0.342600  1.0
  H  H112  1  0.626500  0.457900  0.157400  1.0
  H  H113  1  0.913000  0.888200  0.709200  1.0
  H  H114  1  0.413000  0.611800  0.790800  1.0
  H  H115  1  0.087000  0.111800  0.290800  1.0
  H  H116  1  0.587000  0.388200  0.209200  1.0
  H  H117  1  0.681900  0.842600  0.942100  1.0
  H  H118  1  0.181900  0.657400  0.557900  1.0
  H  H119  1  0.318100  0.157400  0.057900  1.0
  H  H120  1  0.818100  0.342600  0.442100  1.0
  H  H121  1  0.481600  0.708000  0.881500  1.0
  H  H122  1  0.981600  0.792000  0.618500  1.0
  H  H123  1  0.518400  0.292000  0.118500  1.0
  H  H124  1  0.018400  0.208000  0.381500  1.0
  H  H125  1  0.567300  0.639200  0.816300  1.0
  H  H126  1  0.067300  0.860800  0.683700  1.0
  H  H127  1  0.432700  0.360800  0.183700  1.0
  H  H128  1  0.932700  0.139200  0.316300  1.0
  H  H129  1  0.711000  0.672700  0.815400  1.0
  H  H130  1  0.211000  0.827300  0.684600  1.0
  H  H131  1  0.289000  0.327300  0.184600  1.0
  H  H132  1  0.789000  0.172700  0.315400  1.0
  H  H133  1  0.040600  0.663200  0.999500  1.0
  H  H134  1  0.540600  0.836800  0.500500  1.0
  H  H135  1  0.959400  0.336800  0.000500  1.0
  H  H136  1  0.459400  0.163200  0.499500  1.0
  H  H137  1  0.134400  0.455300  0.996300  1.0
  H  H138  1  0.634400  0.044700  0.503700  1.0
  H  H139  1  0.865600  0.544700  0.003700  1.0
  H  H140  1  0.365600  0.955300  0.496300  1.0
  H  H141  1  0.165400  0.428100  0.914500  1.0
  H  H142  1  0.665400  0.071900  0.585500  1.0
  H  H143  1  0.834600  0.571900  0.085500  1.0
  H  H144  1  0.334600  0.928100  0.414500  1.0
  H  H145  1  0.135900  0.518400  0.874500  1.0
  H  H146  1  0.635900  0.981600  0.625500  1.0
  H  H147  1  0.864100  0.481600  0.125500  1.0
  H  H148  1  0.364100  0.018400  0.374500  1.0
  H  H149  1  0.347400  0.911400  0.880000  1.0
  H  H150  1  0.847400  0.588600  0.620000  1.0
  H  H151  1  0.652600  0.088600  0.120000  1.0
  H  H152  1  0.152600  0.411400  0.380000  1.0
  H  H153  1  0.552600  0.837700  0.794400  1.0
  H  H154  1  0.052600  0.662300  0.705600  1.0
  H  H155  1  0.447400  0.162300  0.205600  1.0
  H  H156  1  0.947400  0.337700  0.294400  1.0
  H  H157  1  0.471000  0.740700  0.741400  1.0
  H  H158  1  0.971000  0.759300  0.758600  1.0
  H  H159  1  0.529000  0.259300  0.258600  1.0
  H  H160  1  0.029000  0.240700  0.241400  1.0
  H  H161  1  0.326000  0.731100  0.756100  1.0
  H  H162  1  0.826000  0.768900  0.743900  1.0
  H  H163  1  0.674000  0.268900  0.243900  1.0
  H  H164  1  0.174000  0.231100  0.256100  1.0
  H  H165  1  0.165300  0.943200  0.932000  1.0
  H  H166  1  0.665300  0.556800  0.568000  1.0
  H  H167  1  0.834700  0.056800  0.068000  1.0
  H  H168  1  0.334700  0.443200  0.432000  1.0
  H  H169  1  0.223100  0.012700  0.006000  1.0
  H  H170  1  0.723100  0.487300  0.494000  1.0
  H  H171  1  0.776900  0.987300  0.994000  1.0
  H  H172  1  0.276900  0.512700  0.506000  1.0
  H  H173  1  0.153000  0.015000  0.077300  1.0
  H  H174  1  0.653000  0.485000  0.422700  1.0
  H  H175  1  0.847000  0.985000  0.922700  1.0
  H  H176  1  0.347000  0.515000  0.577300  1.0
  H  H177  1  0.026300  0.945100  0.071600  1.0
  H  H178  1  0.526300  0.554900  0.428400  1.0
  H  H179  1  0.973700  0.054900  0.928400  1.0
  H  H180  1  0.473700  0.445100  0.571600  1.0
  H  H181  1  0.975300  0.875100  0.995200  1.0
  H  H182  1  0.475300  0.624900  0.504800  1.0
  H  H183  1  0.024700  0.124900  0.004800  1.0
  H  H184  1  0.524700  0.375100  0.495200  1.0
  H  H185  1  0.071000  0.253500  0.863200  1.0
  H  H186  1  0.571000  0.246500  0.636800  1.0
  H  H187  1  0.929000  0.746500  0.136800  1.0
  H  H188  1  0.429000  0.753500  0.363200  1.0
  H  H189  1  0.214900  0.227300  0.854700  1.0
  H  H190  1  0.714900  0.272700  0.645300  1.0
  H  H191  1  0.785100  0.772700  0.145300  1.0
  H  H192  1  0.285100  0.727300  0.354700  1.0
  H  H193  1  0.295900  0.280700  0.805500  1.0
  H  H194  1  0.795900  0.219300  0.694500  1.0
  H  H195  1  0.704100  0.719300  0.194500  1.0
  H  H196  1  0.204100  0.780700  0.305500  1.0
  H  H197  1  0.230500  0.365400  0.770300  1.0
  H  H198  1  0.730500  0.134600  0.729700  1.0
  H  H199  1  0.769500  0.634600  0.229700  1.0
  H  H200  1  0.269500  0.865400  0.270300  1.0
  H  H201  1  0.087300  0.391000  0.782500  1.0
  H  H202  1  0.587300  0.109000  0.717500  1.0
  H  H203  1  0.912700  0.609000  0.217500  1.0
  H  H204  1  0.412700  0.891000  0.282500  1.0
  H  H205  1  0.965200  0.517300  0.847400  1.0
  H  H206  1  0.465200  0.982700  0.652600  1.0
  H  H207  1  0.034800  0.482700  0.152600  1.0
  H  H208  1  0.534800  0.017300  0.347400  1.0
  H  H209  1  0.948800  0.609500  0.808700  1.0
  H  H210  1  0.448800  0.890500  0.691300  1.0
  H  H211  1  0.051200  0.390500  0.191300  1.0
  H  H212  1  0.551200  0.109500  0.308700  1.0
  H  H213  1  0.894000  0.571700  0.729500  1.0
  H  H214  1  0.394000  0.928300  0.770500  1.0
  H  H215  1  0.106000  0.428300  0.270500  1.0
  H  H216  1  0.606000  0.071700  0.229500  1.0
  H  H217  1  0.848700  0.444300  0.694300  1.0
  H  H218  1  0.348700  0.055700  0.805700  1.0
  H  H219  1  0.151300  0.555700  0.305700  1.0
  H  H220  1  0.651300  0.944300  0.194300  1.0
  H  H221  1  0.867500  0.357300  0.735400  1.0
  H  H222  1  0.367500  0.142700  0.764600  1.0
  H  H223  1  0.132500  0.642700  0.264600  1.0
  H  H224  1  0.632500  0.857300  0.235400  1.0
  H  H225  1  0.785900  0.485300  0.879000  1.0
  H  H226  1  0.285900  0.014700  0.621000  1.0
  H  H227  1  0.214100  0.514700  0.121000  1.0
  H  H228  1  0.714100  0.985300  0.379000  1.0
  H  H229  1  0.654700  0.527500  0.861300  1.0
  H  H230  1  0.154700  0.972500  0.638700  1.0
  H  H231  1  0.345300  0.472500  0.138700  1.0
  H  H232  1  0.845300  0.027500  0.361300  1.0
  H  H233  1  0.561900  0.439100  0.811400  1.0
  H  H234  1  0.061900  0.060900  0.688600  1.0
  H  H235  1  0.438100  0.560900  0.188600  1.0
  H  H236  1  0.938100  0.939100  0.311400  1.0
  H  H237  1  0.599400  0.309400  0.782200  1.0
  H  H238  1  0.099400  0.190600  0.717800  1.0
  H  H239  1  0.400600  0.690600  0.217800  1.0
  H  H240  1  0.900600  0.809400  0.282200  1.0
  H  H241  1  0.730900  0.271400  0.804300  1.0
  H  H242  1  0.230900  0.228600  0.695700  1.0
  H  H243  1  0.269100  0.728600  0.195700  1.0
  H  H244  1  0.769100  0.771400  0.304300  1.0
  H  H245  1  0.539800  0.755900  0.029200  1.0
  H  H246  1  0.039800  0.744100  0.470800  1.0
  H  H247  1  0.460200  0.244100  0.970800  1.0
  H  H248  1  0.960200  0.255900  0.529200  1.0
  H  H249  1  0.577300  0.661100  0.064600  1.0
  H  H250  1  0.077300  0.838900  0.435400  1.0
  H  H251  1  0.422700  0.338900  0.935400  1.0
  H  H252  1  0.922700  0.161100  0.564600  1.0
  H  H253  1  0.546000  0.682700  0.146900  1.0
  H  H254  1  0.046000  0.817300  0.353100  1.0
  H  H255  1  0.454000  0.317300  0.853100  1.0
  H  H256  1  0.954000  0.182700  0.646900  1.0
  H  H257  1  0.487100  0.799700  0.192300  1.0
  H  H258  1  0.987100  0.700300  0.307700  1.0
  H  H259  1  0.512900  0.200300  0.807700  1.0
  H  H260  1  0.012900  0.299700  0.692300  1.0
  H  H261  1  0.455000  0.889700  0.153800  1.0
  H  H262  1  0.955000  0.610300  0.346200  1.0
  H  H263  1  0.545000  0.110300  0.846200  1.0
  H  H264  1  0.045000  0.389700  0.653800  1.0
  H  H265  1  0.290200  0.814700  0.988500  1.0
  H  H266  1  0.790200  0.685300  0.511500  1.0
  H  H267  1  0.709800  0.185300  0.011500  1.0
  H  H268  1  0.209800  0.314700  0.488500  1.0
  H  H269  1  0.167300  0.754200  0.999900  1.0
  H  H270  1  0.667300  0.745800  0.500100  1.0
  H  H271  1  0.832700  0.245800  0.000100  1.0
  H  H272  1  0.332700  0.254200  0.499900  1.0
  H  H273  1  0.115200  0.773600  0.078800  1.0
  H  H274  1  0.615200  0.726400  0.421200  1.0
  H  H275  1  0.884800  0.226400  0.921200  1.0
  H  H276  1  0.384800  0.273600  0.578800  1.0
  H  H277  1  0.185700  0.862400  0.144600  1.0
  H  H278  1  0.685700  0.637600  0.355400  1.0
  H  H279  1  0.814300  0.137600  0.855400  1.0
  H  H280  1  0.314300  0.362400  0.644600  1.0
  H  H281  1  0.305200  0.924200  0.129600  1.0
  H  H282  1  0.805200  0.575800  0.370400  1.0
  H  H283  1  0.694800  0.075800  0.870400  1.0
  H  H284  1  0.194800  0.424200  0.629600  1.0
  H  H285  1  0.398700  0.972200  0.969200  1.0
  H  H286  1  0.898700  0.527800  0.530800  1.0
  H  H287  1  0.601300  0.027800  0.030800  1.0
  H  H288  1  0.101300  0.472200  0.469200  1.0
  H  H289  1  0.397600  0.025400  0.007300  1.0
  H  H290  1  0.897600  0.474600  0.492700  1.0
  H  H291  1  0.602400  0.974600  0.992700  1.0
  H  H292  1  0.102400  0.525400  0.507300  1.0
  C  C293  1  0.333200  0.535700  0.006700  1
  C  C294  1  0.833200  0.964300  0.493300  1
  C  C295  1  0.666800  0.464300  0.993300  1
  C  C296  1  0.166800  0.035700  0.506700  1
  C  C297  1  0.335800  0.611800  0.007000  1
  C  C298  1  0.835800  0.888200  0.493000  1
  C  C299  1  0.664200  0.388200  0.993000  1
  C  C300  1  0.164200  0.111800  0.507000  1
  C  C301  1  0.392600  0.634000  0.977200  1
  C  C302  1  0.892600  0.866000  0.522800  1
  C  C303  1  0.607400  0.366000  0.022800  1
  C  C304  1  0.107400  0.134000  0.477200  1
  C  C305  1  0.446800  0.580000  0.947000  1
  C  C306  1  0.946800  0.920000  0.553000  1
  C  C307  1  0.553200  0.420000  0.053000  1
  C  C308  1  0.053200  0.080000  0.447000  1
  C  C309  1  0.444300  0.503900  0.946700  1
  C  C310  1  0.944300  0.996100  0.553300  1
  C  C311  1  0.555700  0.496100  0.053300  1
  C  C312  1  0.055700  0.003900  0.446700  1
  C  C313  1  0.149900  0.208200  0.954700  1
  C  C314  1  0.649900  0.291800  0.545300  1
  C  C315  1  0.850100  0.791800  0.045300  1
  C  C316  1  0.350100  0.708200  0.454700  1
  C  C317  1  0.231300  0.198100  0.964900  1
  C  C318  1  0.731300  0.301900  0.535100  1
  C  C319  1  0.768700  0.801900  0.035100  1
  C  C320  1  0.268700  0.698100  0.464900  1
  C  C321  1  0.270300  0.131900  0.937700  1
  C  C322  1  0.770300  0.368100  0.562300  1
  C  C323  1  0.729700  0.868100  0.062300  1
  C  C324  1  0.229700  0.631900  0.437700  1
  C  C325  1  0.228400  0.080300  0.900600  1
  C  C326  1  0.728400  0.419700  0.599400  1
  C  C327  1  0.771600  0.919700  0.099400  1
  C  C328  1  0.271600  0.580300  0.400600  1
  C  C329  1  0.145800  0.094700  0.893100  1
  C  C330  1  0.645800  0.405300  0.606900  1
  C  C331  1  0.854200  0.905300  0.106900  1
  C  C332  1  0.354200  0.594700  0.393100  1
  C  C333  1  0.654000  0.942900  0.732900  1
  C  C334  1  0.154000  0.557100  0.767100  1
  C  C335  1  0.346000  0.057100  0.267100  1
  C  C336  1  0.846000  0.442900  0.232900  1
  C  C337  1  0.172800  0.861610  0.815510  1.0
  C  C338  1  0.672800  0.638390  0.684490  1.0
  C  C339  1  0.827200  0.138390  0.184490  1.0
  C  C340  1  0.327200  0.361610  0.315510  1.0
  C  C341  1  0.194000  0.910000  0.785900  1.0
  C  C342  1  0.694000  0.590000  0.714100  1.0
  C  C343  1  0.806000  0.090000  0.214100  1.0
  C  C344  1  0.306000  0.410000  0.285900  1.0
  C  C345  1  0.121400  0.943100  0.777900  1.0
  C  C346  1  0.621400  0.556900  0.722100  1.0
  C  C347  1  0.878600  0.056900  0.222100  1.0
  C  C348  1  0.378600  0.443100  0.277900  1.0
  C  C349  1  0.052800  0.916420  0.801920  1.0
  C  C350  1  0.552800  0.583580  0.698080  1.0
  C  C351  1  0.947200  0.083580  0.198080  1.0
  C  C352  1  0.447200  0.416420  0.301920  1.0
  C  C353  1  0.967400  0.933900  0.799900  1.0
  C  C354  1  0.467400  0.566100  0.700100  1.0
  C  C355  1  0.032600  0.066100  0.200100  1.0
  C  C356  1  0.532600  0.433900  0.299900  1.0
  C  C357  1  0.897800  0.906300  0.821100  1.0
  C  C358  1  0.397800  0.593700  0.678900  1.0
  C  C359  1  0.102200  0.093700  0.178900  1.0
  C  C360  1  0.602200  0.406300  0.321100  1.0
  C  C361  1  0.810000  0.924200  0.817200  1.0
  C  C362  1  0.310000  0.575800  0.682800  1.0
  C  C363  1  0.190000  0.075800  0.182800  1.0
  C  C364  1  0.690000  0.424200  0.317200  1.0
  C  C365  1  0.763700  0.880000  0.838000  1.0
  C  C366  1  0.263700  0.620000  0.662000  1.0
  C  C367  1  0.236300  0.120000  0.162000  1.0
  C  C368  1  0.736300  0.380000  0.338000  1.0
  C  C369  1  0.824000  0.835350  0.856550  1.0
  C  C370  1  0.324000  0.664650  0.643450  1.0
  C  C371  1  0.176000  0.164650  0.143450  1.0
  C  C372  1  0.676000  0.335350  0.356550  1.0
  C  C373  1  0.803100  0.778000  0.877000  1.0
  C  C374  1  0.303100  0.722000  0.623000  1.0
  C  C375  1  0.196900  0.222000  0.123000  1.0
  C  C376  1  0.696900  0.278000  0.377000  1.0
  C  C377  1  0.859900  0.732200  0.893000  1.0
  C  C378  1  0.359900  0.767800  0.607000  1.0
  C  C379  1  0.140100  0.267800  0.107000  1.0
  C  C380  1  0.640100  0.232200  0.393000  1.0
  C  C381  1  0.836100  0.670800  0.912300  1.0
  C  C382  1  0.336100  0.829200  0.587700  1.0
  C  C383  1  0.163900  0.329200  0.087700  1.0
  C  C384  1  0.663900  0.170800  0.412300  1.0
  C  C385  1  0.907800  0.638900  0.922100  1.0
  C  C386  1  0.407800  0.861100  0.577900  1.0
  C  C387  1  0.092200  0.361100  0.077900  1.0
  C  C388  1  0.592200  0.138900  0.422100  1.0
  C  C389  1  0.978600  0.679210  0.908310  1.0
  C  C390  1  0.478600  0.820790  0.591690  1.0
  C  C391  1  0.021400  0.320790  0.091690  1.0
  C  C392  1  0.521400  0.179210  0.408310  1.0
  C  C393  1  0.065500  0.659200  0.909100  1.0
  C  C394  1  0.565500  0.840800  0.590900  1.0
  C  C395  1  0.934500  0.340800  0.090900  1.0
  C  C396  1  0.434500  0.159200  0.409100  1.0
  C  C397  1  0.133700  0.690390  0.890190  1.0
  C  C398  1  0.633700  0.809610  0.609810  1.0
  C  C399  1  0.866300  0.309610  0.109810  1.0
  C  C400  1  0.366300  0.190390  0.390190  1.0
  C  C401  1  0.222800  0.672700  0.894000  1.0
  C  C402  1  0.722800  0.827300  0.606000  1.0
  C  C403  1  0.777200  0.327300  0.106000  1.0
  C  C404  1  0.277200  0.172700  0.394000  1.0
  C  C405  1  0.268200  0.715900  0.872300  1.0
  C  C406  1  0.768200  0.784100  0.627700  1.0
  C  C407  1  0.731800  0.284100  0.127700  1.0
  C  C408  1  0.231800  0.215900  0.372300  1.0
  C  C409  1  0.208200  0.760400  0.854900  1.0
  C  C410  1  0.708200  0.739600  0.645100  1.0
  C  C411  1  0.791800  0.239600  0.145100  1.0
  C  C412  1  0.291800  0.260400  0.354900  1.0
  C  C413  1  0.228900  0.814520  0.830820  1.0
  C  C414  1  0.728900  0.685480  0.669180  1.0
  C  C415  1  0.771100  0.185480  0.169180  1.0
  C  C416  1  0.271100  0.314520  0.330820  1.0
  C  C417  1  0.942700  0.981000  0.767600  1.0
  C  C418  1  0.442700  0.519000  0.732400  1.0
  C  C419  1  0.057300  0.019000  0.232400  1.0
  C  C420  1  0.557300  0.481000  0.267600  1.0
  C  C421  1  0.943000  0.061200  0.784400  1.0
  C  C422  1  0.443000  0.438800  0.715600  1.0
  C  C423  1  0.057000  0.938800  0.215600  1.0
  C  C424  1  0.557000  0.561200  0.284400  1.0
  C  C425  1  0.917900  0.102900  0.753700  1.0
  C  C426  1  0.417900  0.397100  0.746300  1.0
  C  C427  1  0.082100  0.897100  0.246300  1.0
  C  C428  1  0.582100  0.602900  0.253700  1.0
  C  C429  1  0.894400  0.063400  0.706000  1.0
  C  C430  1  0.394400  0.436600  0.794000  1.0
  C  C431  1  0.105600  0.936600  0.294000  1.0
  C  C432  1  0.605600  0.563400  0.206000  1.0
  C  C433  1  0.891600  0.984100  0.689600  1.0
  C  C434  1  0.391600  0.515900  0.810400  1.0
  C  C435  1  0.108400  0.015900  0.310400  1.0
  C  C436  1  0.608400  0.484100  0.189600  1.0
  C  C437  1  0.915400  0.942800  0.720400  1.0
  C  C438  1  0.415400  0.557200  0.779600  1.0
  C  C439  1  0.084600  0.057200  0.279600  1.0
  C  C440  1  0.584600  0.442800  0.220400  1.0
  C  C441  1  0.914300  0.189800  0.772900  1.0
  C  C442  1  0.414300  0.310200  0.727100  1.0
  C  C443  1  0.085700  0.810200  0.227100  1.0
  C  C444  1  0.585700  0.689800  0.272900  1.0
  C  C445  1  0.710500  0.759800  0.878700  1.0
  C  C446  1  0.210500  0.740200  0.621300  1.0
  C  C447  1  0.289500  0.240200  0.121300  1.0
  C  C448  1  0.789500  0.259800  0.378700  1.0
  C  C449  1  0.658900  0.800800  0.916800  1.0
  C  C450  1  0.158900  0.699200  0.583200  1.0
  C  C451  1  0.341100  0.199200  0.083200  1.0
  C  C452  1  0.841100  0.300800  0.416800  1.0
  C  C453  1  0.573700  0.781400  0.918400  1.0
  C  C454  1  0.073700  0.718600  0.581600  1.0
  C  C455  1  0.426300  0.218600  0.081600  1.0
  C  C456  1  0.926300  0.281400  0.418400  1.0
  C  C457  1  0.539700  0.721100  0.880700  1.0
  C  C458  1  0.039700  0.778900  0.619300  1.0
  C  C459  1  0.460300  0.278900  0.119300  1.0
  C  C460  1  0.960300  0.221100  0.380700  1.0
  C  C461  1  0.590300  0.680300  0.842100  1.0
  C  C462  1  0.090300  0.819700  0.657900  1.0
  C  C463  1  0.409700  0.319700  0.157900  1.0
  C  C464  1  0.909700  0.180300  0.342100  1.0
  C  C465  1  0.676000  0.700500  0.841700  1.0
  C  C466  1  0.176000  0.799500  0.658300  1.0
  C  C467  1  0.324000  0.299500  0.158300  1.0
  C  C468  1  0.824000  0.200500  0.341700  1.0
  C  C469  1  0.519200  0.824900  0.961400  1.0
  C  C470  1  0.019200  0.675100  0.538600  1.0
  C  C471  1  0.480800  0.175100  0.038600  1.0
  C  C472  1  0.980800  0.324900  0.461400  1.0
  C  C473  1  0.085800  0.600500  0.933100  1.0
  C  C474  1  0.585800  0.899500  0.566900  1.0
  C  C475  1  0.914200  0.399500  0.066900  1.0
  C  C476  1  0.414200  0.100500  0.433100  1.0
  C  C477  1  0.067200  0.616100  0.982300  1.0
  C  C478  1  0.567200  0.883900  0.517700  1.0
  C  C479  1  0.932800  0.383900  0.017700  1.0
  C  C480  1  0.432800  0.116100  0.482300  1.0
  C  C481  1  0.087100  0.563600  0.006400  1.0
  C  C482  1  0.587100  0.936400  0.493600  1.0
  C  C483  1  0.912900  0.436400  0.993600  1.0
  C  C484  1  0.412900  0.063600  0.506400  1.0
  C  C485  1  0.122700  0.492300  0.980300  1.0
  C  C486  1  0.622700  0.007700  0.519700  1.0
  C  C487  1  0.877300  0.507700  0.019700  1.0
  C  C488  1  0.377300  0.992300  0.480300  1.0
  C  C489  1  0.140700  0.476200  0.931900  1.0
  C  C490  1  0.640700  0.023800  0.568100  1.0
  C  C491  1  0.859300  0.523800  0.068100  1.0
  C  C492  1  0.359300  0.976200  0.431900  1.0
  C  C493  1  0.122800  0.529900  0.908000  1.0
  C  C494  1  0.622800  0.970100  0.592000  1.0
  C  C495  1  0.877200  0.470100  0.092000  1.0
  C  C496  1  0.377200  0.029900  0.408000  1.0
  C  C497  1  0.073700  0.587000  0.060500  1.0
  C  C498  1  0.573700  0.913000  0.439500  1.0
  C  C499  1  0.926300  0.413000  0.939500  1.0
  C  C500  1  0.426300  0.087000  0.560500  1.0
  C  C501  1  0.321600  0.820800  0.819900  1.0
  C  C502  1  0.821600  0.679200  0.680100  1.0
  C  C503  1  0.678400  0.179200  0.180100  1.0
  C  C504  1  0.178400  0.320800  0.319900  1.0
  C  C505  1  0.371900  0.877300  0.851500  1.0
  C  C506  1  0.871900  0.622700  0.648500  1.0
  C  C507  1  0.628100  0.122700  0.148500  1.0
  C  C508  1  0.128100  0.377300  0.351500  1.0
  C  C509  1  0.457600  0.884500  0.841900  1.0
  C  C510  1  0.957600  0.615500  0.658100  1.0
  C  C511  1  0.542400  0.115500  0.158100  1.0
  C  C512  1  0.042400  0.384500  0.341900  1.0
  C  C513  1  0.494200  0.833400  0.800900  1.0
  C  C514  1  0.994200  0.666600  0.699100  1.0
  C  C515  1  0.505800  0.166600  0.199100  1.0
  C  C516  1  0.005800  0.333400  0.300900  1.0
  C  C517  1  0.445500  0.775900  0.769200  1.0
  C  C518  1  0.945500  0.724100  0.730800  1.0
  C  C519  1  0.554500  0.224100  0.230800  1.0
  C  C520  1  0.054500  0.275900  0.269200  1.0
  C  C521  1  0.359300  0.769800  0.778200  1.0
  C  C522  1  0.859300  0.730200  0.721800  1.0
  C  C523  1  0.640700  0.230200  0.221800  1.0
  C  C524  1  0.140700  0.269800  0.278200  1.0
  C  C525  1  0.507800  0.950400  0.875200  1.0
  C  C526  1  0.007800  0.549600  0.624800  1.0
  C  C527  1  0.492200  0.049600  0.124800  1.0
  C  C528  1  0.992200  0.450400  0.375200  1.0
  C  C529  1  0.136800  0.943300  0.960900  1.0
  C  C530  1  0.636800  0.556700  0.539100  1.0
  C  C531  1  0.863200  0.056700  0.039100  1.0
  C  C532  1  0.363200  0.443300  0.460900  1.0
  C  C533  1  0.171700  0.985200  0.004800  1.0
  C  C534  1  0.671700  0.514800  0.495200  1.0
  C  C535  1  0.828300  0.014800  0.995200  1.0
  C  C536  1  0.328300  0.485200  0.504800  1.0
  C  C537  1  0.130700  0.986300  0.046400  1.0
  C  C538  1  0.630700  0.513700  0.453600  1.0
  C  C539  1  0.869300  0.013700  0.953600  1.0
  C  C540  1  0.369300  0.486300  0.546400  1.0
  C  C541  1  0.056200  0.945100  0.043100  1.0
  C  C542  1  0.556200  0.554900  0.456900  1.0
  C  C543  1  0.943800  0.054900  0.956900  1.0
  C  C544  1  0.443800  0.445100  0.543100  1.0
  C  C545  1  0.026100  0.903800  0.997400  1.0
  C  C546  1  0.526100  0.596200  0.502600  1.0
  C  C547  1  0.973900  0.096200  0.002600  1.0
  C  C548  1  0.473900  0.403800  0.497400  1.0
  C  C549  1  0.104100  0.277600  0.844700  1.0
  C  C550  1  0.604100  0.222400  0.655300  1.0
  C  C551  1  0.895900  0.722400  0.155300  1.0
  C  C552  1  0.395900  0.777600  0.344700  1.0
  C  C553  1  0.189600  0.260500  0.839100  1.0
  C  C554  1  0.689600  0.239500  0.660900  1.0
  C  C555  1  0.810400  0.739500  0.160900  1.0
  C  C556  1  0.310400  0.760500  0.339100  1.0
  C  C557  1  0.237300  0.292500  0.810700  1.0
  C  C558  1  0.737300  0.207500  0.689300  1.0
  C  C559  1  0.762700  0.707500  0.189300  1.0
  C  C560  1  0.262700  0.792500  0.310700  1.0
  C  C561  1  0.198600  0.342100  0.789800  1.0
  C  C562  1  0.698600  0.157900  0.710200  1.0
  C  C563  1  0.801400  0.657900  0.210200  1.0
  C  C564  1  0.301400  0.842100  0.289800  1.0
  C  C565  1  0.113600  0.357400  0.797400  1.0
  C  C566  1  0.613600  0.142600  0.702600  1.0
  C  C567  1  0.886400  0.642600  0.202600  1.0
  C  C568  1  0.386400  0.857400  0.297400  1.0
  C  C569  1  0.941700  0.502700  0.815700  1.0
  C  C570  1  0.441700  0.997300  0.684300  1.0
  C  C571  1  0.058300  0.497300  0.184300  1.0
  C  C572  1  0.558300  0.002700  0.315700  1.0
  C  C573  1  0.932600  0.557600  0.793000  1.0
  C  C574  1  0.432600  0.942400  0.707000  1.0
  C  C575  1  0.067400  0.442400  0.207000  1.0
  C  C576  1  0.567400  0.057600  0.293000  1.0
  C  C577  1  0.899300  0.535500  0.746800  1.0
  C  C578  1  0.399300  0.964500  0.753200  1.0
  C  C579  1  0.100700  0.464500  0.253200  1.0
  C  C580  1  0.600700  0.035500  0.246800  1.0
  C  C581  1  0.873700  0.460000  0.725700  1.0
  C  C582  1  0.373700  0.040000  0.774300  1.0
  C  C583  1  0.126300  0.540000  0.274300  1.0
  C  C584  1  0.626300  0.960000  0.225700  1.0
  C  C585  1  0.884600  0.409100  0.750300  1.0
  C  C586  1  0.384600  0.090900  0.749700  1.0
  C  C587  1  0.115400  0.590900  0.249700  1.0
  C  C588  1  0.615400  0.909100  0.250300  1.0
  C  C589  1  0.747500  0.448900  0.859200  1.0
  C  C590  1  0.247500  0.051100  0.640800  1.0
  C  C591  1  0.252500  0.551100  0.140800  1.0
  C  C592  1  0.752500  0.948900  0.359200  1.0
  C  C593  1  0.669700  0.474700  0.848700  1.0
  C  C594  1  0.169700  0.025300  0.651300  1.0
  C  C595  1  0.330300  0.525300  0.151300  1.0
  C  C596  1  0.830300  0.974700  0.348700  1.0
  C  C597  1  0.615200  0.422600  0.819700  1.0
  C  C598  1  0.115200  0.077400  0.680300  1.0
  C  C599  1  0.384800  0.577400  0.180300  1.0
  C  C600  1  0.884800  0.922600  0.319700  1.0
  C  C601  1  0.636900  0.346300  0.802400  1.0
  C  C602  1  0.136900  0.153700  0.697600  1.0
  C  C603  1  0.363100  0.653700  0.197600  1.0
  C  C604  1  0.863100  0.846300  0.302400  1.0
  C  C605  1  0.716200  0.324400  0.815500  1.0
  C  C606  1  0.216200  0.175600  0.684500  1.0
  C  C607  1  0.283800  0.675600  0.184500  1.0
  C  C608  1  0.783800  0.824400  0.315500  1.0
  C  C609  1  0.529200  0.765100  0.062900  1.0
  C  C610  1  0.029200  0.734900  0.437100  1.0
  C  C611  1  0.470800  0.234900  0.937100  1.0
  C  C612  1  0.970800  0.265100  0.562900  1.0
  C  C613  1  0.551200  0.707600  0.083500  1.0
  C  C614  1  0.051200  0.792400  0.416500  1.0
  C  C615  1  0.448800  0.292400  0.916500  1.0
  C  C616  1  0.948800  0.207600  0.583500  1.0
  C  C617  1  0.533600  0.721000  0.132000  1.0
  C  C618  1  0.033600  0.779000  0.368000  1.0
  C  C619  1  0.466400  0.279000  0.868000  1.0
  C  C620  1  0.966400  0.221000  0.632000  1.0
  C  C621  1  0.498500  0.789100  0.158600  1.0
  C  C622  1  0.998500  0.710900  0.341400  1.0
  C  C623  1  0.501500  0.210900  0.841400  1.0
  C  C624  1  0.001500  0.289100  0.658600  1.0
  C  C625  1  0.479800  0.842300  0.135300  1.0
  C  C626  1  0.979800  0.657700  0.364700  1.0
  C  C627  1  0.520200  0.157700  0.864700  1.0
  C  C628  1  0.020200  0.342300  0.635300  1.0
  C  C629  1  0.268500  0.824400  0.020500  1.0
  C  C630  1  0.768500  0.675600  0.479500  1.0
  C  C631  1  0.731500  0.175600  0.979500  1.0
  C  C632  1  0.231500  0.324400  0.520500  1.0
  C  C633  1  0.195900  0.787800  0.027100  1.0
  C  C634  1  0.695900  0.712200  0.472900  1.0
  C  C635  1  0.804100  0.212200  0.972900  1.0
  C  C636  1  0.304100  0.287800  0.527100  1.0
  C  C637  1  0.164200  0.800100  0.073600  1.0
  C  C638  1  0.664200  0.699900  0.426400  1.0
  C  C639  1  0.835800  0.199900  0.926400  1.0
  C  C640  1  0.335800  0.300100  0.573600  1.0
  C  C641  1  0.206100  0.852000  0.112400  1.0
  C  C642  1  0.706100  0.648000  0.387600  1.0
  C  C643  1  0.793900  0.148000  0.887600  1.0
  C  C644  1  0.293900  0.352000  0.612400  1.0
  C  C645  1  0.277600  0.887800  0.103100  1.0
  C  C646  1  0.777600  0.612200  0.396900  1.0
  C  C647  1  0.722400  0.112200  0.896900  1.0
  C  C648  1  0.222400  0.387800  0.603100  1.0
  N  N649  1  0.387500  0.481800  0.976600  1
  N  N650  1  0.887500  0.018200  0.523400  1
  N  N651  1  0.612500  0.518200  0.023400  1
  N  N652  1  0.112500  0.981800  0.476600  1
  N  N653  1  0.105400  0.157100  0.918800  1
  N  N654  1  0.605400  0.342900  0.581200  1
  N  N655  1  0.894600  0.842900  0.081200  1
  N  N656  1  0.394600  0.657100  0.418800  1
  N  N657  1  0.086200  0.868440  0.824940  1.0
  N  N658  1  0.586200  0.631560  0.675060  1.0
  N  N659  1  0.913800  0.131560  0.175060  1.0
  N  N660  1  0.413800  0.368440  0.324940  1.0
  N  N661  1  0.904500  0.854680  0.846680  1.0
  N  N662  1  0.404500  0.645320  0.653320  1.0
  N  N663  1  0.095500  0.145320  0.153320  1.0
  N  N664  1  0.595500  0.354680  0.346680  1.0
  N  N665  1  0.947300  0.735780  0.891880  1.0
  N  N666  1  0.447300  0.764220  0.608120  1.0
  N  N667  1  0.052700  0.264220  0.108120  1.0
  N  N668  1  0.552700  0.235780  0.391880  1.0
  N  N669  1  0.127700  0.744210  0.866410  1.0
  N  N670  1  0.627700  0.755790  0.633590  1.0
  N  N671  1  0.872300  0.255790  0.133590  1.0
  N  N672  1  0.372300  0.244210  0.366410  1.0
  N  N673  1  0.065100  0.902800  0.956600  1.0
  N  N674  1  0.565100  0.597200  0.543400  1.0
  N  N675  1  0.934900  0.097200  0.043400  1.0
  N  N676  1  0.434900  0.402800  0.456600  1.0
  N  N677  1  0.066100  0.325900  0.825400  1.0
  N  N678  1  0.566100  0.174100  0.674600  1.0
  N  N679  1  0.933900  0.674100  0.174600  1.0
  N  N680  1  0.433900  0.825900  0.325400  1.0
  N  N681  1  0.918700  0.428870  0.794970  1.0
  N  N682  1  0.418700  0.071130  0.705030  1.0
  N  N683  1  0.081300  0.571130  0.205030  1.0
  N  N684  1  0.581300  0.928870  0.294970  1.0
  N  N685  1  0.771400  0.373400  0.842500  1.0
  N  N686  1  0.271400  0.126600  0.657500  1.0
  N  N687  1  0.228600  0.626600  0.157500  1.0
  N  N688  1  0.728600  0.873400  0.342500  1.0
  N  N689  1  0.494600  0.831090  0.087990  1.0
  N  N690  1  0.994600  0.668910  0.412010  1.0
  N  N691  1  0.505400  0.168910  0.912010  1.0
  N  N692  1  0.005400  0.331090  0.587990  1.0
  N  N693  1  0.310300  0.873920  0.058420  1.0
  N  N694  1  0.810300  0.626080  0.441580  1.0
  N  N695  1  0.689700  0.126080  0.941580  1.0
  N  N696  1  0.189700  0.373920  0.558420  1.0
  O  O697  1  0.636500  0.003570  0.775670  1
  O  O698  1  0.136500  0.496430  0.724330  1
  O  O699  1  0.363500  0.996430  0.224330  1
  O  O700  1  0.863500  0.503570  0.275670  1
  O  O701  1  0.906100  0.218380  0.818580  1.0
  O  O702  1  0.406100  0.281620  0.681420  1.0
  O  O703  1  0.093900  0.781620  0.181420  1.0
  O  O704  1  0.593900  0.718380  0.318580  1.0
  O  O705  1  0.918700  0.228310  0.744510  1.0
  O  O706  1  0.418700  0.271690  0.755490  1.0
  O  O707  1  0.081300  0.771690  0.255490  1.0
  O  O708  1  0.581300  0.728310  0.244510  1.0
  O  O709  1  0.444700  0.804550  0.963950  1.0
  O  O710  1  0.944700  0.695450  0.536050  1.0
  O  O711  1  0.555300  0.195450  0.036050  1.0
  O  O712  1  0.055300  0.304550  0.463950  1.0
  O  O713  1  0.554100  0.879560  0.994160  1.0
  O  O714  1  0.054100  0.620440  0.505840  1.0
  O  O715  1  0.445900  0.120440  0.005840  1.0
  O  O716  1  0.945900  0.379560  0.494160  1.0
  O  O717  1  0.051300  0.655460  0.081960  1.0
  O  O718  1  0.551300  0.844540  0.418040  1.0
  O  O719  1  0.948700  0.344540  0.918040  1.0
  O  O720  1  0.448700  0.155460  0.581960  1.0
  O  O721  1  0.088700  0.539900  0.083000  1.0
  O  O722  1  0.588700  0.960100  0.417000  1.0
  O  O723  1  0.911300  0.460100  0.917000  1.0
  O  O724  1  0.411300  0.039900  0.583000  1.0
  O  O725  1  0.574200  0.972760  0.859960  1.0
  O  O726  1  0.074200  0.527240  0.640040  1.0
  O  O727  1  0.425800  0.027240  0.140040  1.0
  O  O728  1  0.925800  0.472760  0.359960  1.0
  O  O729  1  0.478400  0.981700  0.917700  1.0
  O  O730  1  0.978400  0.518300  0.582300  1.0
  O  O731  1  0.521600  0.018300  0.082300  1.0
  O  O732  1  0.021600  0.481700  0.417700  1.0
  O  O733  1  0.380400  0.980580  0.997280  1.0
  O  O734  1  0.880400  0.519420  0.502720  1.0
  O  O735  1  0.619600  0.019420  0.002720  1.0
  O  O736  1  0.119600  0.480580  0.497280  1.0
