# generated using pymatgen
data_H44Ru2C53SN(O4F)3
_symmetry_space_group_name_H-M   'P 1'
_cell_length_a   14.13800000
_cell_length_b   18.54900000
_cell_length_c   21.87327276
_cell_angle_alpha   107.53071043
_cell_angle_beta   108.85533537
_cell_angle_gamma   90.00000000
_symmetry_Int_Tables_number   1
_chemical_formula_structural   H44Ru2C53SN(O4F)3
_chemical_formula_sum   'H176 Ru8 C212 S4 N4 O48 F12'
_cell_volume   5146.03198637
_cell_formula_units_Z   4
loop_
 _symmetry_equiv_pos_site_id
 _symmetry_equiv_pos_as_xyz
  1  'x, y, z'
loop_
 _atom_site_type_symbol
 _atom_site_label
 _atom_site_symmetry_multiplicity
 _atom_site_fract_x
 _atom_site_fract_y
 _atom_site_fract_z
 _atom_site_occupancy
  C  C1  1  0.808400  0.665800  0.163400  1
  C  C2  1  0.645000  0.834200  0.836600  1
  C  C3  1  0.191600  0.334200  0.836600  1
  C  C4  1  0.355000  0.165800  0.163400  1
  C  C5  1  0.159100  0.024200  0.299200  1
  C  C6  1  0.859900  0.475800  0.700800  1
  C  C7  1  0.840900  0.975800  0.700800  1
  C  C8  1  0.140100  0.524200  0.299200  1
  C  C9  1  0.320400  0.703100  0.074800  1
  C  C10  1  0.245600  0.796900  0.925200  1
  C  C11  1  0.679600  0.296900  0.925200  1
  C  C12  1  0.754400  0.203100  0.074800  1
  C  C13  1  0.360200  0.705500  0.126600  1
  C  C14  1  0.233600  0.794500  0.873400  1
  C  C15  1  0.639800  0.294500  0.873400  1
  C  C16  1  0.766400  0.205500  0.126600  1
  C  C17  1  0.195300  0.631800  0.945800  1
  C  C18  1  0.249500  0.868200  0.054200  1
  C  C19  1  0.804700  0.368200  0.054200  1
  C  C20  1  0.750500  0.131800  0.945800  1
  C  C21  1  0.986700  0.675600  0.833400  1
  C  C22  1  0.153300  0.824400  0.166600  1
  C  C23  1  0.013300  0.324400  0.166600  1
  C  C24  1  0.846700  0.175600  0.833400  1
  C  C25  1  0.936300  0.735000  0.854600  1
  C  C26  1  0.081700  0.765000  0.145400  1
  C  C27  1  0.063700  0.265000  0.145400  1
  C  C28  1  0.918300  0.235000  0.854600  1
  C  C29  1  0.107100  0.584900  0.863400  1
  C  C30  1  0.243700  0.915100  0.136600  1
  C  C31  1  0.892900  0.415100  0.136600  1
  C  C32  1  0.756300  0.084900  0.863400  1
  C  C33  1  0.551610  0.440300  0.576220  1.0
  C  C34  1  0.975390  0.059700  0.423780  1.0
  C  C35  1  0.448390  0.559700  0.423780  1.0
  C  C36  1  0.024610  0.940300  0.576220  1.0
  C  C37  1  0.584730  0.521700  0.603860  1.0
  C  C38  1  0.980870  0.978300  0.396140  1.0
  C  C39  1  0.415270  0.478300  0.396140  1.0
  C  C40  1  0.019130  0.021700  0.603860  1.0
  C  C41  1  0.609360  0.559600  0.668920  1.0
  C  C42  1  0.940440  0.940400  0.331080  1.0
  C  C43  1  0.390640  0.440400  0.331080  1.0
  C  C44  1  0.059560  0.059600  0.668920  1.0
  C  C45  1  0.597240  0.525600  0.717880  1.0
  C  C46  1  0.879360  0.974400  0.282120  1.0
  C  C47  1  0.402760  0.474400  0.282120  1.0
  C  C48  1  0.120640  0.025600  0.717880  1.0
  C  C49  1  0.554500  0.448300  0.693200  1.0
  C  C50  1  0.861300  0.051700  0.306800  1.0
  C  C51  1  0.445500  0.551700  0.306800  1.0
  C  C52  1  0.138700  0.948300  0.693200  1.0
  C  C53  1  0.533980  0.413000  0.736760  1.0
  C  C54  1  0.797220  0.087000  0.263240  1.0
  C  C55  1  0.466020  0.587000  0.263240  1.0
  C  C56  1  0.202780  0.913000  0.736760  1.0
  C  C57  1  0.488900  0.333600  0.708200  1.0
  C  C58  1  0.780700  0.166400  0.291800  1.0
  C  C59  1  0.511100  0.666400  0.291800  1.0
  C  C60  1  0.219300  0.833600  0.708200  1.0
  C  C61  1  0.471010  0.293600  0.644020  1.0
  C  C62  1  0.826990  0.206400  0.355980  1.0
  C  C63  1  0.528990  0.706400  0.355980  1.0
  C  C64  1  0.173010  0.793600  0.644020  1.0
  C  C65  1  0.497360  0.326500  0.596520  1.0
  C  C66  1  0.900840  0.173500  0.403480  1.0
  C  C67  1  0.502640  0.673500  0.403480  1.0
  C  C68  1  0.099160  0.826500  0.596520  1.0
  C  C69  1  0.534570  0.404100  0.621140  1.0
  C  C70  1  0.913430  0.095900  0.378860  1.0
  C  C71  1  0.465430  0.595900  0.378860  1.0
  C  C72  1  0.086570  0.904100  0.621140  1.0
  C  C73  1  0.663100  0.320800  0.439000  1.0
  C  C74  1  0.224100  0.179200  0.561000  1.0
  C  C75  1  0.336900  0.679200  0.561000  1.0
  C  C76  1  0.775900  0.820800  0.439000  1.0
  C  C77  1  0.586000  0.278100  0.377800  1.0
  C  C78  1  0.208200  0.221900  0.622200  1.0
  C  C79  1  0.414000  0.721900  0.622200  1.0
  C  C80  1  0.791800  0.778100  0.377800  1.0
  C  C81  1  0.541600  0.207400  0.372200  1.0
  C  C82  1  0.169400  0.292600  0.627800  1.0
  C  C83  1  0.458400  0.792600  0.627800  1.0
  C  C84  1  0.830600  0.707400  0.372200  1.0
  C  C85  1  0.569300  0.177500  0.426200  1.0
  C  C86  1  0.143100  0.322500  0.573800  1.0
  C  C87  1  0.430700  0.822500  0.573800  1.0
  C  C88  1  0.856900  0.677500  0.426200  1.0
  C  C89  1  0.647900  0.220400  0.487000  1.0
  C  C90  1  0.160900  0.279600  0.513000  1.0
  C  C91  1  0.352100  0.779600  0.513000  1.0
  C  C92  1  0.839100  0.720400  0.487000  1.0
  C  C93  1  0.695500  0.288200  0.493400  1.0
  C  C94  1  0.202100  0.211800  0.506600  1.0
  C  C95  1  0.304500  0.711800  0.506600  1.0
  C  C96  1  0.797900  0.788200  0.493400  1.0
  C  C97  1  0.707100  0.397900  0.448800  1.0
  C  C98  1  0.258300  0.102100  0.551200  1.0
  C  C99  1  0.292900  0.602100  0.551200  1.0
  C  C100  1  0.741700  0.897900  0.448800  1.0
  C  C101  1  0.521400  0.099700  0.420200  1.0
  C  C102  1  0.101200  0.400300  0.579800  1.0
  C  C103  1  0.478600  0.900300  0.579800  1.0
  C  C104  1  0.898800  0.599700  0.420200  1.0
  C  C105  1  0.480000  0.101200  0.475400  1.0
  C  C106  1  0.004600  0.398800  0.524600  1.0
  C  C107  1  0.520000  0.898800  0.524600  1.0
  C  C108  1  0.995400  0.601200  0.475400  1.0
  C  C109  1  0.601400  0.044500  0.416000  1.0
  C  C110  1  0.185400  0.455500  0.584000  1.0
  C  C111  1  0.398600  0.955500  0.584000  1.0
  C  C112  1  0.814600  0.544500  0.416000  1.0
  C  C113  1  0.314240  0.257900  0.388280  1.0
  C  C114  1  0.925960  0.242100  0.611720  1.0
  C  C115  1  0.685760  0.742100  0.611720  1.0
  C  C116  1  0.074040  0.757900  0.388280  1.0
  C  C117  1  0.213200  0.284300  0.368200  1.0
  C  C118  1  0.845000  0.215700  0.631800  1.0
  C  C119  1  0.786800  0.715700  0.631800  1.0
  C  C120  1  0.155000  0.784300  0.368200  1.0
  C  C121  1  0.198200  0.361200  0.387800  1.0
  C  C122  1  0.810400  0.138800  0.612200  1.0
  C  C123  1  0.801800  0.638800  0.612200  1.0
  C  C124  1  0.189600  0.861200  0.387800  1.0
  C  C125  1  0.128400  0.231900  0.328200  1.0
  C  C126  1  0.800200  0.268100  0.671800  1.0
  C  C127  1  0.871600  0.768100  0.671800  1.0
  C  C128  1  0.199800  0.731900  0.328200  1.0
  C  C129  1  0.105600  0.385300  0.369600  1.0
  C  C130  1  0.736000  0.114700  0.630400  1.0
  C  C131  1  0.894400  0.614700  0.630400  1.0
  C  C132  1  0.264000  0.885300  0.369600  1.0
  C  C133  1  0.034100  0.255600  0.310400  1.0
  C  C134  1  0.723700  0.244400  0.689600  1.0
  C  C135  1  0.965900  0.744400  0.689600  1.0
  C  C136  1  0.276300  0.755600  0.310400  1.0
  C  C137  1  0.021200  0.332400  0.330200  1.0
  C  C138  1  0.691000  0.167600  0.669800  1.0
  C  C139  1  0.978800  0.667600  0.669800  1.0
  C  C140  1  0.309000  0.832400  0.330200  1.0
  C  C141  1  0.923200  0.356900  0.307200  1.0
  C  C142  1  0.616000  0.143100  0.692800  1.0
  C  C143  1  0.076800  0.643100  0.692800  1.0
  C  C144  1  0.384000  0.856900  0.307200  1.0
  C  C145  1  0.843300  0.377100  0.287400  1.0
  C  C146  1  0.555900  0.122900  0.712600  1.0
  C  C147  1  0.156700  0.622900  0.712600  1.0
  C  C148  1  0.444100  0.877100  0.287400  1.0
  C  C149  1  0.693200  0.519700  0.943000  1.0
  C  C150  1  0.750200  0.980300  0.057000  1.0
  C  C151  1  0.306800  0.480300  0.057000  1.0
  C  C152  1  0.249800  0.019700  0.943000  1.0
  C  C153  1  0.600080  0.534700  0.954760  1.0
  C  C154  1  0.645320  0.965300  0.045240  1.0
  C  C155  1  0.399920  0.465300  0.045240  1.0
  C  C156  1  0.354680  0.034700  0.954760  1.0
  C  C157  1  0.564500  0.604200  0.955200  1.0
  C  C158  1  0.609300  0.895800  0.044800  1.0
  C  C159  1  0.435500  0.395800  0.044800  1.0
  C  C160  1  0.390700  0.104200  0.955200  1.0
  C  C161  1  0.620900  0.658700  0.942600  1.0
  C  C162  1  0.678300  0.841300  0.057400  1.0
  C  C163  1  0.379100  0.341300  0.057400  1.0
  C  C164  1  0.321700  0.158700  0.942600  1.0
  C  C165  1  0.706100  0.643600  0.930000  1.0
  C  C166  1  0.776100  0.856400  0.070000  1.0
  C  C167  1  0.293900  0.356400  0.070000  1.0
  C  C168  1  0.223900  0.143600  0.930000  1.0
  C  C169  1  0.747500  0.573000  0.929800  1.0
  C  C170  1  0.817700  0.927000  0.070200  1.0
  C  C171  1  0.252500  0.427000  0.070200  1.0
  C  C172  1  0.182300  0.073000  0.929800  1.0
  C  C173  1  0.462600  0.617400  0.962800  1.0
  C  C174  1  0.499800  0.882600  0.037200  1.0
  C  C175  1  0.537400  0.382600  0.037200  1.0
  C  C176  1  0.500200  0.117400  0.962800  1.0
  C  C177  1  0.566180  0.366700  0.216560  1.0
  C  C178  1  0.349620  0.133300  0.783440  1.0
  C  C179  1  0.433820  0.633300  0.783440  1.0
  C  C180  1  0.650380  0.866700  0.216560  1.0
  C  C181  1  0.633830  0.476500  0.207460  1.0
  C  C182  1  0.426370  0.023500  0.792540  1.0
  C  C183  1  0.366170  0.523500  0.792540  1.0
  C  C184  1  0.573630  0.976500  0.207460  1.0
  C  C185  1  0.659000  0.350000  0.245400  1.0
  C  C186  1  0.413600  0.150000  0.754600  1.0
  C  C187  1  0.341000  0.650000  0.754600  1.0
  C  C188  1  0.586400  0.850000  0.245400  1.0
  C  C189  1  0.729300  0.460500  0.237400  1.0
  C  C190  1  0.491900  0.039500  0.762600  1.0
  C  C191  1  0.270700  0.539500  0.762600  1.0
  C  C192  1  0.508100  0.960500  0.237400  1.0
  C  C193  1  0.742800  0.396200  0.256200  1.0
  C  C194  1  0.486600  0.103800  0.743800  1.0
  C  C195  1  0.257200  0.603800  0.743800  1.0
  C  C196  1  0.513400  0.896200  0.256200  1.0
  C  C197  1  0.841800  0.555700  0.914000  1.0
  C  C198  1  0.927800  0.944300  0.086000  1.0
  C  C199  1  0.158200  0.444300  0.086000  1.0
  C  C200  1  0.072200  0.055700  0.914000  1.0
  C  C201  1  0.849100  0.475500  0.879800  1.0
  C  C202  1  0.969300  0.024500  0.120200  1.0
  C  C203  1  0.150900  0.524500  0.120200  1.0
  C  C204  1  0.030700  0.975500  0.879800  1.0
  C  C205  1  0.931600  0.596000  0.979400  1.0
  C  C206  1  0.952200  0.904000  0.020600  1.0
  C  C207  1  0.068400  0.404000  0.020600  1.0
  C  C208  1  0.047800  0.096000  0.979400  1.0
  C  C209  1  0.162200  0.557800  0.910800  1.0
  C  C210  1  0.251400  0.942200  0.089200  1.0
  C  C211  1  0.837800  0.442200  0.089200  1.0
  C  C212  1  0.748600  0.057800  0.910800  1.0
  F  F213  1  0.833420  0.646100  0.106640  1
  F  F214  1  0.726780  0.853900  0.893360  1
  F  F215  1  0.166580  0.353900  0.893360  1
  F  F216  1  0.273220  0.146100  0.106640  1
  F  F217  1  0.856800  0.736100  0.199800  1
  F  F218  1  0.657000  0.763900  0.800200  1
  F  F219  1  0.143200  0.263900  0.800200  1
  F  F220  1  0.343000  0.236100  0.199800  1
  F  F221  1  0.863510  0.622000  0.201020  1
  F  F222  1  0.662490  0.878000  0.798980  1
  F  F223  1  0.136490  0.378000  0.798980  1
  F  F224  1  0.337510  0.122000  0.201020  1
  H  H225  1  0.256000  0.097400  0.367600  1
  H  H226  1  0.888400  0.402600  0.632400  1
  H  H227  1  0.744000  0.902600  0.632400  1
  H  H228  1  0.111600  0.597400  0.367600  1
  H  H229  1  0.110400  0.059400  0.286800  1
  H  H230  1  0.823600  0.440600  0.713200  1
  H  H231  1  0.889600  0.940600  0.713200  1
  H  H232  1  0.176400  0.559400  0.286800  1
  H  H233  1  0.123300  0.977300  0.296200  1
  H  H234  1  0.827100  0.522700  0.703800  1
  H  H235  1  0.876700  0.022700  0.703800  1
  H  H236  1  0.172900  0.477300  0.296200  1
  H  H237  1  0.197100  0.012100  0.267600  1
  H  H238  1  0.929500  0.487900  0.732400  1
  H  H239  1  0.802900  0.987900  0.732400  1
  H  H240  1  0.070500  0.512100  0.267600  1
  H  H241  1  0.588700  0.548100  0.573600  1.0
  H  H242  1  0.015100  0.951900  0.426400  1.0
  H  H243  1  0.411300  0.451900  0.426400  1.0
  H  H244  1  0.984900  0.048100  0.573600  1.0
  H  H245  1  0.636300  0.611400  0.684600  1.0
  H  H246  1  0.951700  0.888600  0.315400  1.0
  H  H247  1  0.363700  0.388600  0.315400  1.0
  H  H248  1  0.048300  0.111400  0.684600  1.0
  H  H249  1  0.472100  0.310400  0.737000  1.0
  H  H250  1  0.735100  0.189600  0.263000  1.0
  H  H251  1  0.527900  0.689600  0.263000  1.0
  H  H252  1  0.264900  0.810400  0.737000  1.0
  H  H253  1  0.440700  0.242700  0.627600  1.0
  H  H254  1  0.813100  0.257300  0.372400  1.0
  H  H255  1  0.559300  0.757300  0.372400  1.0
  H  H256  1  0.186900  0.742700  0.627600  1.0
  H  H257  1  0.553400  0.303100  0.342800  1.0
  H  H258  1  0.210600  0.196900  0.657200  1.0
  H  H259  1  0.446600  0.696900  0.657200  1.0
  H  H260  1  0.789400  0.803100  0.342800  1.0
  H  H261  1  0.477200  0.185200  0.333800  1.0
  H  H262  1  0.143400  0.314800  0.666200  1.0
  H  H263  1  0.522800  0.814800  0.666200  1.0
  H  H264  1  0.856600  0.685200  0.333800  1.0
  H  H265  1  0.659300  0.205800  0.529000  1.0
  H  H266  1  0.130300  0.294200  0.471000  1.0
  H  H267  1  0.340700  0.794200  0.471000  1.0
  H  H268  1  0.869700  0.705800  0.529000  1.0
  H  H269  1  0.739800  0.320800  0.539400  1.0
  H  H270  1  0.200400  0.179200  0.460600  1.0
  H  H271  1  0.260200  0.679200  0.460600  1.0
  H  H272  1  0.799600  0.820800  0.539400  1.0
  H  H273  1  0.765500  0.393500  0.433600  1.0
  H  H274  1  0.331900  0.106500  0.566400  1.0
  H  H275  1  0.234500  0.606500  0.566400  1.0
  H  H276  1  0.668100  0.893500  0.433600  1.0
  H  H277  1  0.728000  0.428000  0.497200  1.0
  H  H278  1  0.230800  0.072000  0.502800  1.0
  H  H279  1  0.272000  0.572000  0.502800  1.0
  H  H280  1  0.769200  0.928000  0.497200  1.0
  H  H281  1  0.656700  0.422900  0.422000  1.0
  H  H282  1  0.234700  0.077100  0.578000  1.0
  H  H283  1  0.343300  0.577100  0.578000  1.0
  H  H284  1  0.765300  0.922900  0.422000  1.0
  H  H285  1  0.464600  0.081900  0.376000  1.0
  H  H286  1  0.088600  0.418100  0.624000  1.0
  H  H287  1  0.535400  0.918100  0.624000  1.0
  H  H288  1  0.911400  0.581900  0.376000  1.0
  H  H289  1  0.451400  0.049900  0.468000  1.0
  H  H290  1  0.983400  0.450100  0.532000  1.0
  H  H291  1  0.548600  0.950100  0.532000  1.0
  H  H292  1  0.016600  0.549900  0.468000  1.0
  H  H293  1  0.427400  0.135700  0.474600  1.0
  H  H294  1  0.952800  0.364300  0.525400  1.0
  H  H295  1  0.572600  0.864300  0.525400  1.0
  H  H296  1  0.047200  0.635700  0.474600  1.0
  H  H297  1  0.534000  0.119000  0.519600  1.0
  H  H298  1  0.014400  0.381000  0.480400  1.0
  H  H299  1  0.466000  0.881000  0.480400  1.0
  H  H300  1  0.985600  0.619000  0.519600  1.0
  H  H301  1  0.625900  0.045600  0.379200  1.0
  H  H302  1  0.246700  0.454400  0.620800  1.0
  H  H303  1  0.374100  0.954400  0.620800  1.0
  H  H304  1  0.753300  0.545600  0.379200  1.0
  H  H305  1  0.572100  0.992900  0.407000  1.0
  H  H306  1  0.165100  0.507100  0.593000  1.0
  H  H307  1  0.427900  0.007100  0.593000  1.0
  H  H308  1  0.834900  0.492900  0.407000  1.0
  H  H309  1  0.657600  0.059600  0.459400  1.0
  H  H310  1  0.198200  0.440400  0.540600  1.0
  H  H311  1  0.342400  0.940400  0.540600  1.0
  H  H312  1  0.801800  0.559600  0.459400  1.0
  H  H313  1  0.254700  0.397800  0.414800  1.0
  H  H314  1  0.839900  0.102200  0.585200  1.0
  H  H315  1  0.745300  0.602200  0.585200  1.0
  H  H316  1  0.160100  0.897800  0.414800  1.0
  H  H317  1  0.136000  0.179300  0.313000  1.0
  H  H318  1  0.823000  0.320700  0.687000  1.0
  H  H319  1  0.864000  0.820700  0.687000  1.0
  H  H320  1  0.177000  0.679300  0.313000  1.0
  H  H321  1  0.098100  0.438000  0.383600  1.0
  H  H322  1  0.714500  0.062000  0.616400  1.0
  H  H323  1  0.901900  0.562000  0.616400  1.0
  H  H324  1  0.285500  0.938000  0.383600  1.0
  H  H325  1  0.977200  0.219100  0.284400  1.0
  H  H326  1  0.692800  0.280900  0.715600  1.0
  H  H327  1  0.022800  0.780900  0.715600  1.0
  H  H328  1  0.307200  0.719100  0.284400  1.0
  H  H329  1  0.711500  0.466400  0.933600  1.0
  H  H330  1  0.777900  0.033600  0.066400  1.0
  H  H331  1  0.288500  0.533600  0.066400  1.0
  H  H332  1  0.222100  0.966400  0.933600  1.0
  H  H333  1  0.555500  0.492300  0.954000  1.0
  H  H334  1  0.601500  0.007700  0.046000  1.0
  H  H335  1  0.444500  0.507700  0.046000  1.0
  H  H336  1  0.398500  0.992300  0.954000  1.0
  H  H337  1  0.588200  0.703700  0.932800  1.0
  H  H338  1  0.655400  0.796300  0.067200  1.0
  H  H339  1  0.411800  0.296300  0.067200  1.0
  H  H340  1  0.344600  0.203700  0.932800  1.0
  H  H341  1  0.735000  0.678300  0.911800  1.0
  H  H342  1  0.823200  0.821700  0.088200  1.0
  H  H343  1  0.265000  0.321700  0.088200  1.0
  H  H344  1  0.176800  0.178300  0.911800  1.0
  H  H345  1  0.471000  0.641100  0.011000  1.0
  H  H346  1  0.460000  0.858900  0.989000  1.0
  H  H347  1  0.529000  0.358900  0.989000  1.0
  H  H348  1  0.540000  0.141100  0.011000  1.0
  H  H349  1  0.420600  0.568700  0.945200  1.0
  H  H350  1  0.475400  0.931300  0.054800  1.0
  H  H351  1  0.579400  0.431300  0.054800  1.0
  H  H352  1  0.524600  0.068700  0.945200  1.0
  H  H353  1  0.430100  0.651000  0.937000  1.0
  H  H354  1  0.493100  0.849000  0.063000  1.0
  H  H355  1  0.569900  0.349000  0.063000  1.0
  H  H356  1  0.506900  0.151000  0.937000  1.0
  H  H357  1  0.509500  0.334700  0.210800  1.0
  H  H358  1  0.298700  0.165300  0.789200  1.0
  H  H359  1  0.490500  0.665300  0.789200  1.0
  H  H360  1  0.701300  0.834700  0.210800  1.0
  H  H361  1  0.624900  0.521600  0.195000  1.0
  H  H362  1  0.429900  0.978400  0.805000  1.0
  H  H363  1  0.375100  0.478400  0.805000  1.0
  H  H364  1  0.570100  0.021600  0.195000  1.0
  H  H365  1  0.667100  0.305500  0.258800  1.0
  H  H366  1  0.408300  0.194500  0.741200  1.0
  H  H367  1  0.332900  0.694500  0.741200  1.0
  H  H368  1  0.591700  0.805500  0.258800  1.0
  H  H369  1  0.785800  0.493900  0.245000  1.0
  H  H370  1  0.540800  0.006100  0.755000  1.0
  H  H371  1  0.214200  0.506100  0.755000  1.0
  H  H372  1  0.459200  0.993900  0.245000  1.0
  H  H373  1  0.842400  0.582800  0.881000  1.0
  H  H374  1  0.961400  0.917200  0.119000  1.0
  H  H375  1  0.157600  0.417200  0.119000  1.0
  H  H376  1  0.038600  0.082800  0.881000  1.0
  H  H377  1  0.788900  0.455200  0.839200  1.0
  H  H378  1  0.949700  0.044800  0.160800  1.0
  H  H379  1  0.211100  0.544800  0.160800  1.0
  H  H380  1  0.050300  0.955200  0.839200  1.0
  H  H381  1  0.854100  0.446200  0.911000  1.0
  H  H382  1  0.943100  0.053800  0.089000  1.0
  H  H383  1  0.145900  0.553800  0.089000  1.0
  H  H384  1  0.056900  0.946200  0.911000  1.0
  H  H385  1  0.908800  0.471700  0.866000  1.0
  H  H386  1  0.042800  0.028300  0.134000  1.0
  H  H387  1  0.091200  0.528300  0.134000  1.0
  H  H388  1  0.957200  0.971700  0.866000  1.0
  H  H389  1  0.920300  0.649100  0.997800  1.0
  H  H390  1  0.922500  0.850900  0.002200  1.0
  H  H391  1  0.079700  0.350900  0.002200  1.0
  H  H392  1  0.077500  0.149100  0.997800  1.0
  H  H393  1  0.993600  0.594300  0.968200  1.0
  H  H394  1  0.025400  0.905700  0.031800  1.0
  H  H395  1  0.006400  0.405700  0.031800  1.0
  H  H396  1  0.974600  0.094300  0.968200  1.0
  H  H397  1  0.937800  0.570100  0.013200  1.0
  H  H398  1  0.924600  0.929900  0.986800  1.0
  H  H399  1  0.062200  0.429900  0.986800  1.0
  H  H400  1  0.075400  0.070100  0.013200  1.0
  N  N401  1  0.552600  0.429600  0.195400  1.0
  N  N402  1  0.357200  0.070400  0.804600  1.0
  N  N403  1  0.447400  0.570400  0.804600  1.0
  N  N404  1  0.642800  0.929600  0.195400  1.0
  O  O405  1  0.648090  0.705200  0.111980  1
  O  O406  1  0.536110  0.794800  0.888020  1
  O  O407  1  0.351910  0.294800  0.888020  1
  O  O408  1  0.463890  0.205200  0.111980  1
  O  O409  1  0.652170  0.576200  0.113740  1
  O  O410  1  0.538430  0.923800  0.886260  1
  O  O411  1  0.347830  0.423800  0.886260  1
  O  O412  1  0.461570  0.076200  0.113740  1
  O  O413  1  0.680200  0.682300  0.217800  1
  O  O414  1  0.462400  0.817700  0.782200  1
  O  O415  1  0.319800  0.317700  0.782200  1
  O  O416  1  0.537600  0.182300  0.217800  1
  O  O417  1  0.224620  0.057700  0.365240  1
  O  O418  1  0.859380  0.442300  0.634760  1
  O  O419  1  0.775380  0.942300  0.634760  1
  O  O420  1  0.140620  0.557700  0.365240  1
  O  O421  1  0.257700  0.634400  0.012800  1
  O  O422  1  0.244900  0.865600  0.987200  1
  O  O423  1  0.742300  0.365600  0.987200  1
  O  O424  1  0.755100  0.134400  0.012800  1
  O  O425  1  0.047100  0.645400  0.887800  1
  O  O426  1  0.159300  0.854600  0.112200  1
  O  O427  1  0.952900  0.354600  0.112200  1
  O  O428  1  0.840700  0.145400  0.887800  1
  O  O429  1  0.541240  0.409100  0.514080  1.0
  O  O430  1  0.027160  0.090900  0.485920  1.0
  O  O431  1  0.458760  0.590900  0.485920  1.0
  O  O432  1  0.972840  0.909100  0.514080  1.0
  O  O433  1  0.483270  0.280400  0.538140  1.0
  O  O434  1  0.945130  0.219600  0.461860  1.0
  O  O435  1  0.516730  0.719600  0.461860  1.0
  O  O436  1  0.054870  0.780400  0.538140  1.0
  O  O437  1  0.624890  0.569500  0.778780  1.0
  O  O438  1  0.846110  0.930500  0.221220  1.0
  O  O439  1  0.375110  0.430500  0.221220  1.0
  O  O440  1  0.153890  0.069500  0.778780  1.0
  O  O441  1  0.546630  0.442500  0.799860  1.0
  O  O442  1  0.746770  0.057500  0.200140  1.0
  O  O443  1  0.453370  0.557500  0.200140  1.0
  O  O444  1  0.253230  0.942500  0.799860  1.0
  O  O445  1  0.385820  0.311700  0.418640  1.0
  O  O446  1  0.967180  0.188300  0.581360  1.0
  O  O447  1  0.614180  0.688300  0.581360  1.0
  O  O448  1  0.032820  0.811700  0.418640  1.0
  O  O449  1  0.323910  0.189800  0.377620  1.0
  O  O450  1  0.946290  0.310200  0.622380  1.0
  O  O451  1  0.676090  0.810200  0.622380  1.0
  O  O452  1  0.053710  0.689800  0.377620  1.0
  Ru  Ru453  1  0.534042  0.294210  0.463784  1.0
  Ru  Ru454  1  0.070258  0.205790  0.536216  1.0
  Ru  Ru455  1  0.465958  0.705790  0.536216  1.0
  Ru  Ru456  1  0.929742  0.794210  0.463784  1.0
  Ru  Ru457  1  0.594191  0.552700  0.859302  1.0
  Ru  Ru458  1  0.734889  0.947300  0.140698  1.0
  Ru  Ru459  1  0.405809  0.447300  0.140698  1.0
  Ru  Ru460  1  0.265111  0.052700  0.859302  1.0
  S  S461  1  0.683200  0.655450  0.150520  1
  S  S462  1  0.532680  0.844550  0.849480  1
  S  S463  1  0.316800  0.344550  0.849480  1
  S  S464  1  0.467320  0.155450  0.150520  1
