# generated using pymatgen
data_Co2H78C87N18(Cl3O7)2
_symmetry_space_group_name_H-M   'P 1'
_cell_length_a   22.24622404
_cell_length_b   22.24622404
_cell_length_c   22.24622404
_cell_angle_alpha   96.05762677
_cell_angle_beta   96.05762677
_cell_angle_gamma   96.05762677
_symmetry_Int_Tables_number   1
_chemical_formula_structural   Co2H78C87N18(Cl3O7)2
_chemical_formula_sum   'Co8 H312 C348 N72 Cl24 O56'
_cell_volume   10810.89497863
_cell_formula_units_Z   4
loop_
 _symmetry_equiv_pos_site_id
 _symmetry_equiv_pos_as_xyz
  1  'x, y, z'
loop_
 _atom_site_type_symbol
 _atom_site_label
 _atom_site_symmetry_multiplicity
 _atom_site_fract_x
 _atom_site_fract_y
 _atom_site_fract_z
 _atom_site_occupancy
  C  C1  1  0.059200  0.519000  0.365000  1
  C  C2  1  0.365000  0.059200  0.519000  1
  C  C3  1  0.519000  0.365000  0.059200  1
  C  C4  1  0.940800  0.481000  0.635000  1
  C  C5  1  0.635000  0.940800  0.481000  1
  C  C6  1  0.481000  0.635000  0.940800  1
  C  C7  1  0.798000  0.574300  0.334500  1
  C  C8  1  0.334500  0.798000  0.574300  1
  C  C9  1  0.574300  0.334500  0.798000  1
  C  C10  1  0.202000  0.425700  0.665500  1
  C  C11  1  0.665500  0.202000  0.425700  1
  C  C12  1  0.425700  0.665500  0.202000  1
  C  C13  1  0.798090  0.390390  0.994190  1.0
  C  C14  1  0.994190  0.798090  0.390390  1.0
  C  C15  1  0.390390  0.994190  0.798090  1.0
  C  C16  1  0.201910  0.609610  0.005810  1.0
  C  C17  1  0.005810  0.201910  0.609610  1.0
  C  C18  1  0.609610  0.005810  0.201910  1.0
  C  C19  1  0.779800  0.400300  0.935400  1.0
  C  C20  1  0.935400  0.779800  0.400300  1.0
  C  C21  1  0.400300  0.935400  0.779800  1.0
  C  C22  1  0.220200  0.599700  0.064600  1.0
  C  C23  1  0.064600  0.220200  0.599700  1.0
  C  C24  1  0.599700  0.064600  0.220200  1.0
  C  C25  1  0.720400  0.384000  0.912100  1.0
  C  C26  1  0.912100  0.720400  0.384000  1.0
  C  C27  1  0.384000  0.912100  0.720400  1.0
  C  C28  1  0.279600  0.616000  0.087900  1.0
  C  C29  1  0.087900  0.279600  0.616000  1.0
  C  C30  1  0.616000  0.087900  0.279600  1.0
  C  C31  1  0.679600  0.358200  0.946300  1.0
  C  C32  1  0.946300  0.679600  0.358200  1.0
  C  C33  1  0.358200  0.946300  0.679600  1.0
  C  C34  1  0.320400  0.641800  0.053700  1.0
  C  C35  1  0.053700  0.320400  0.641800  1.0
  C  C36  1  0.641800  0.053700  0.320400  1.0
  C  C37  1  0.700700  0.348000  0.004700  1.0
  C  C38  1  0.004700  0.700700  0.348000  1.0
  C  C39  1  0.348000  0.004700  0.700700  1.0
  C  C40  1  0.299300  0.652000  0.995300  1.0
  C  C41  1  0.995300  0.299300  0.652000  1.0
  C  C42  1  0.652000  0.995300  0.299300  1.0
  C  C43  1  0.953400  0.446500  0.054000  1.0
  C  C44  1  0.054000  0.953400  0.446500  1.0
  C  C45  1  0.446500  0.054000  0.953400  1.0
  C  C46  1  0.046600  0.553500  0.946000  1.0
  C  C47  1  0.946000  0.046600  0.553500  1.0
  C  C48  1  0.553500  0.946000  0.046600  1.0
  C  C49  1  0.909100  0.439800  0.005700  1.0
  C  C50  1  0.005700  0.909100  0.439800  1.0
  C  C51  1  0.439800  0.005700  0.909100  1.0
  C  C52  1  0.090900  0.560200  0.994300  1.0
  C  C53  1  0.994300  0.090900  0.560200  1.0
  C  C54  1  0.560200  0.994300  0.090900  1.0
  C  C55  1  0.859890  0.407990  0.025190  1.0
  C  C56  1  0.025190  0.859890  0.407990  1.0
  C  C57  1  0.407990  0.025190  0.859890  1.0
  C  C58  1  0.140110  0.592010  0.974810  1.0
  C  C59  1  0.974810  0.140110  0.592010  1.0
  C  C60  1  0.592010  0.974810  0.140110  1.0
  C  C61  1  0.963550  0.409550  0.156850  1.0
  C  C62  1  0.156850  0.963550  0.409550  1.0
  C  C63  1  0.409550  0.156850  0.963550  1.0
  C  C64  1  0.036450  0.590450  0.843150  1.0
  C  C65  1  0.843150  0.036450  0.590450  1.0
  C  C66  1  0.590450  0.843150  0.036450  1.0
  C  C67  1  0.287100  0.207500  0.380500  1.0
  C  C68  1  0.380500  0.287100  0.207500  1.0
  C  C69  1  0.207500  0.380500  0.287100  1.0
  C  C70  1  0.712900  0.792500  0.619500  1.0
  C  C71  1  0.619500  0.712900  0.792500  1.0
  C  C72  1  0.792500  0.619500  0.712900  1.0
  C  C73  1  0.313100  0.189900  0.434500  1.0
  C  C74  1  0.434500  0.313100  0.189900  1.0
  C  C75  1  0.189900  0.434500  0.313100  1.0
  C  C76  1  0.686900  0.810100  0.565500  1.0
  C  C77  1  0.565500  0.686900  0.810100  1.0
  C  C78  1  0.810100  0.565500  0.686900  1.0
  C  C79  1  0.373600  0.208500  0.451700  1.0
  C  C80  1  0.451700  0.373600  0.208500  1.0
  C  C81  1  0.208500  0.451700  0.373600  1.0
  C  C82  1  0.626400  0.791500  0.548300  1.0
  C  C83  1  0.548300  0.626400  0.791500  1.0
  C  C84  1  0.791500  0.548300  0.626400  1.0
  C  C85  1  0.405700  0.241700  0.416400  1.0
  C  C86  1  0.416400  0.405700  0.241700  1.0
  C  C87  1  0.241700  0.416400  0.405700  1.0
  C  C88  1  0.594300  0.758300  0.583600  1.0
  C  C89  1  0.583600  0.594300  0.758300  1.0
  C  C90  1  0.758300  0.583600  0.594300  1.0
  C  C91  1  0.379000  0.258100  0.362200  1.0
  C  C92  1  0.362200  0.379000  0.258100  1.0
  C  C93  1  0.258100  0.362200  0.379000  1.0
  C  C94  1  0.621000  0.741900  0.637800  1.0
  C  C95  1  0.637800  0.621000  0.741900  1.0
  C  C96  1  0.741900  0.637800  0.621000  1.0
  C  C97  1  0.223100  0.190500  0.358600  1.0
  C  C98  1  0.358600  0.223100  0.190500  1.0
  C  C99  1  0.190500  0.358600  0.223100  1.0
  C  C100  1  0.776900  0.809500  0.641400  1.0
  C  C101  1  0.641400  0.776900  0.809500  1.0
  C  C102  1  0.809500  0.641400  0.776900  1.0
  C  C103  1  0.176600  0.157200  0.383200  1.0
  C  C104  1  0.383200  0.176600  0.157200  1.0
  C  C105  1  0.157200  0.383200  0.176600  1.0
  C  C106  1  0.823400  0.842800  0.616800  1.0
  C  C107  1  0.616800  0.823400  0.842800  1.0
  C  C108  1  0.842800  0.616800  0.823400  1.0
  C  C109  1  0.125800  0.153200  0.342600  1.0
  C  C110  1  0.342600  0.125800  0.153200  1.0
  C  C111  1  0.153200  0.342600  0.125800  1.0
  C  C112  1  0.874200  0.846800  0.657400  1.0
  C  C113  1  0.657400  0.874200  0.846800  1.0
  C  C114  1  0.846800  0.657400  0.874200  1.0
  C  C115  1  0.103430  0.194530  0.243330  1.0
  C  C116  1  0.243330  0.103430  0.194530  1.0
  C  C117  1  0.194530  0.243330  0.103430  1.0
  C  C118  1  0.896570  0.805470  0.756670  1.0
  C  C119  1  0.756670  0.896570  0.805470  1.0
  C  C120  1  0.805470  0.756670  0.896570  1.0
  C  C121  1  0.990870  0.349770  0.151270  1.0
  C  C122  1  0.151270  0.990870  0.349770  1.0
  C  C123  1  0.349770  0.151270  0.990870  1.0
  C  C124  1  0.009130  0.650230  0.848730  1.0
  C  C125  1  0.848730  0.009130  0.650230  1.0
  C  C126  1  0.650230  0.848730  0.009130  1.0
  C  C127  1  0.988120  0.315720  0.095220  1.0
  C  C128  1  0.095220  0.988120  0.315720  1.0
  C  C129  1  0.315720  0.095220  0.988120  1.0
  C  C130  1  0.011880  0.684280  0.904780  1.0
  C  C131  1  0.904780  0.011880  0.684280  1.0
  C  C132  1  0.684280  0.904780  0.011880  1.0
  C  C133  1  0.011440  0.258740  0.091140  1.0
  C  C134  1  0.091140  0.011440  0.258740  1.0
  C  C135  1  0.258740  0.091140  0.011440  1.0
  C  C136  1  0.988560  0.741260  0.908860  1.0
  C  C137  1  0.908860  0.988560  0.741260  1.0
  C  C138  1  0.741260  0.908860  0.988560  1.0
  C  C139  1  0.038050  0.237150  0.140750  1.0
  C  C140  1  0.140750  0.038050  0.237150  1.0
  C  C141  1  0.237150  0.140750  0.038050  1.0
  C  C142  1  0.961950  0.762850  0.859250  1.0
  C  C143  1  0.859250  0.961950  0.762850  1.0
  C  C144  1  0.762850  0.859250  0.961950  1.0
  C  C145  1  0.044260  0.273160  0.199060  1.0
  C  C146  1  0.199060  0.044260  0.273160  1.0
  C  C147  1  0.273160  0.199060  0.044260  1.0
  C  C148  1  0.955740  0.726840  0.800940  1.0
  C  C149  1  0.800940  0.955740  0.726840  1.0
  C  C150  1  0.726840  0.800940  0.955740  1.0
  C  C151  1  0.019610  0.329810  0.205310  1.0
  C  C152  1  0.205310  0.019610  0.329810  1.0
  C  C153  1  0.329810  0.205310  0.019610  1.0
  C  C154  1  0.980390  0.670190  0.794690  1.0
  C  C155  1  0.794690  0.980390  0.670190  1.0
  C  C156  1  0.670190  0.794690  0.980390  1.0
  C  C157  1  0.025170  0.363770  0.261970  1.0
  C  C158  1  0.261970  0.025170  0.363770  1.0
  C  C159  1  0.363770  0.261970  0.025170  1.0
  C  C160  1  0.974830  0.636230  0.738030  1.0
  C  C161  1  0.738030  0.974830  0.636230  1.0
  C  C162  1  0.636230  0.738030  0.974830  1.0
  C  C163  1  0.055000  0.344100  0.312200  1.0
  C  C164  1  0.312200  0.055000  0.344100  1.0
  C  C165  1  0.344100  0.312200  0.055000  1.0
  C  C166  1  0.945000  0.655900  0.687800  1.0
  C  C167  1  0.687800  0.945000  0.655900  1.0
  C  C168  1  0.655900  0.687800  0.945000  1.0
  C  C169  1  0.080410  0.289310  0.306510  1.0
  C  C170  1  0.306510  0.080410  0.289310  1.0
  C  C171  1  0.289310  0.306510  0.080410  1.0
  C  C172  1  0.919590  0.710690  0.693490  1.0
  C  C173  1  0.693490  0.919590  0.710690  1.0
  C  C174  1  0.710690  0.693490  0.919590  1.0
  C  C175  1  0.075410  0.253230  0.251470  1.0
  C  C176  1  0.251470  0.075410  0.253230  1.0
  C  C177  1  0.253230  0.251470  0.075410  1.0
  C  C178  1  0.924590  0.746770  0.748530  1.0
  C  C179  1  0.748530  0.924590  0.746770  1.0
  C  C180  1  0.746770  0.748530  0.924590  1.0
  C  C181  1  0.859710  0.283710  0.207610  1.0
  C  C182  1  0.207610  0.859710  0.283710  1.0
  C  C183  1  0.283710  0.207610  0.859710  1.0
  C  C184  1  0.140290  0.716290  0.792390  1.0
  C  C185  1  0.792390  0.140290  0.716290  1.0
  C  C186  1  0.716290  0.792390  0.140290  1.0
  C  C187  1  0.888900  0.268700  0.262100  1.0
  C  C188  1  0.262100  0.888900  0.268700  1.0
  C  C189  1  0.268700  0.262100  0.888900  1.0
  C  C190  1  0.111100  0.731300  0.737900  1.0
  C  C191  1  0.737900  0.111100  0.731300  1.0
  C  C192  1  0.731300  0.737900  0.111100  1.0
  C  C193  1  0.895100  0.308000  0.313500  1.0
  C  C194  1  0.313500  0.895100  0.308000  1.0
  C  C195  1  0.308000  0.313500  0.895100  1.0
  C  C196  1  0.104900  0.692000  0.686500  1.0
  C  C197  1  0.686500  0.104900  0.692000  1.0
  C  C198  1  0.692000  0.686500  0.104900  1.0
  C  C199  1  0.869600  0.363900  0.310400  1.0
  C  C200  1  0.310400  0.869600  0.363900  1.0
  C  C201  1  0.363900  0.310400  0.869600  1.0
  C  C202  1  0.130400  0.636100  0.689600  1.0
  C  C203  1  0.689600  0.130400  0.636100  1.0
  C  C204  1  0.636100  0.689600  0.130400  1.0
  C  C205  1  0.843140  0.376140  0.257240  1.0
  C  C206  1  0.257240  0.843140  0.376140  1.0
  C  C207  1  0.376140  0.257240  0.843140  1.0
  C  C208  1  0.156860  0.623860  0.742760  1.0
  C  C209  1  0.742760  0.156860  0.623860  1.0
  C  C210  1  0.623860  0.742760  0.156860  1.0
  C  C211  1  0.849550  0.243550  0.152750  1.0
  C  C212  1  0.152750  0.849550  0.243550  1.0
  C  C213  1  0.243550  0.152750  0.849550  1.0
  C  C214  1  0.150450  0.756450  0.847250  1.0
  C  C215  1  0.847250  0.150450  0.756450  1.0
  C  C216  1  0.756450  0.847250  0.150450  1.0
  C  C217  1  0.865760  0.185360  0.139260  1.0
  C  C218  1  0.139260  0.865760  0.185360  1.0
  C  C219  1  0.185360  0.139260  0.865760  1.0
  C  C220  1  0.134240  0.814640  0.860740  1.0
  C  C221  1  0.860740  0.134240  0.814640  1.0
  C  C222  1  0.814640  0.860740  0.134240  1.0
  C  C223  1  0.840900  0.167200  0.081000  1.0
  C  C224  1  0.081000  0.840900  0.167200  1.0
  C  C225  1  0.167200  0.081000  0.840900  1.0
  C  C226  1  0.159100  0.832800  0.919000  1.0
  C  C227  1  0.919000  0.159100  0.832800  1.0
  C  C228  1  0.832800  0.919000  0.159100  1.0
  C  C229  1  0.783590  0.213290  0.998290  1.0
  C  C230  1  0.998290  0.783590  0.213290  1.0
  C  C231  1  0.213290  0.998290  0.783590  1.0
  C  C232  1  0.216410  0.786710  0.001710  1.0
  C  C233  1  0.001710  0.216410  0.786710  1.0
  C  C234  1  0.786710  0.001710  0.216410  1.0
  C  C235  1  0.829150  0.277950  0.551950  1.0
  C  C236  1  0.551950  0.829150  0.277950  1.0
  C  C237  1  0.277950  0.551950  0.829150  1.0
  C  C238  1  0.170850  0.722050  0.448050  1.0
  C  C239  1  0.448050  0.170850  0.722050  1.0
  C  C240  1  0.722050  0.448050  0.170850  1.0
  C  C241  1  0.810800  0.300500  0.495100  1.0
  C  C242  1  0.495100  0.810800  0.300500  1.0
  C  C243  1  0.300500  0.495100  0.810800  1.0
  C  C244  1  0.189200  0.699500  0.504900  1.0
  C  C245  1  0.504900  0.189200  0.699500  1.0
  C  C246  1  0.699500  0.504900  0.189200  1.0
  C  C247  1  0.816500  0.263900  0.442600  1.0
  C  C248  1  0.442600  0.816500  0.263900  1.0
  C  C249  1  0.263900  0.442600  0.816500  1.0
  C  C250  1  0.183500  0.736100  0.557400  1.0
  C  C251  1  0.557400  0.183500  0.736100  1.0
  C  C252  1  0.736100  0.557400  0.183500  1.0
  C  C253  1  0.837600  0.208800  0.444800  1.0
  C  C254  1  0.444800  0.837600  0.208800  1.0
  C  C255  1  0.208800  0.444800  0.837600  1.0
  C  C256  1  0.162400  0.791200  0.555200  1.0
  C  C257  1  0.555200  0.162400  0.791200  1.0
  C  C258  1  0.791200  0.555200  0.162400  1.0
  C  C259  1  0.856100  0.191600  0.502300  1.0
  C  C260  1  0.502300  0.856100  0.191600  1.0
  C  C261  1  0.191600  0.502300  0.856100  1.0
  C  C262  1  0.143900  0.808400  0.497700  1.0
  C  C263  1  0.497700  0.143900  0.808400  1.0
  C  C264  1  0.808400  0.497700  0.143900  1.0
  C  C265  1  0.826000  0.314000  0.609200  1.0
  C  C266  1  0.609200  0.826000  0.314000  1.0
  C  C267  1  0.314000  0.609200  0.826000  1.0
  C  C268  1  0.174000  0.686000  0.390800  1.0
  C  C269  1  0.390800  0.174000  0.686000  1.0
  C  C270  1  0.686000  0.390800  0.174000  1.0
  C  C271  1  0.802900  0.368400  0.623500  1.0
  C  C272  1  0.623500  0.802900  0.368400  1.0
  C  C273  1  0.368400  0.623500  0.802900  1.0
  C  C274  1  0.197100  0.631600  0.376500  1.0
  C  C275  1  0.376500  0.197100  0.631600  1.0
  C  C276  1  0.631600  0.376500  0.197100  1.0
  C  C277  1  0.816000  0.381600  0.685700  1.0
  C  C278  1  0.685700  0.816000  0.381600  1.0
  C  C279  1  0.381600  0.685700  0.816000  1.0
  C  C280  1  0.184000  0.618400  0.314300  1.0
  C  C281  1  0.314300  0.184000  0.618400  1.0
  C  C282  1  0.618400  0.314300  0.184000  1.0
  C  C283  1  0.867580  0.328780  0.768180  1.0
  C  C284  1  0.768180  0.867580  0.328780  1.0
  C  C285  1  0.328780  0.768180  0.867580  1.0
  C  C286  1  0.132420  0.671220  0.231820  1.0
  C  C287  1  0.231820  0.132420  0.671220  1.0
  C  C288  1  0.671220  0.231820  0.132420  1.0
  C  C289  1  0.826130  0.241530  0.956730  1.0
  C  C290  1  0.956730  0.826130  0.241530  1.0
  C  C291  1  0.241530  0.956730  0.826130  1.0
  C  C292  1  0.173870  0.758470  0.043270  1.0
  C  C293  1  0.043270  0.173870  0.758470  1.0
  C  C294  1  0.758470  0.043270  0.173870  1.0
  C  C295  1  0.887010  0.255210  0.977210  1.0
  C  C296  1  0.977210  0.887010  0.255210  1.0
  C  C297  1  0.255210  0.977210  0.887010  1.0
  C  C298  1  0.112990  0.744790  0.022790  1.0
  C  C299  1  0.022790  0.112990  0.744790  1.0
  C  C300  1  0.744790  0.022790  0.112990  1.0
  C  C301  1  0.926990  0.282990  0.940290  1.0
  C  C302  1  0.940290  0.926990  0.282990  1.0
  C  C303  1  0.282990  0.940290  0.926990  1.0
  C  C304  1  0.073010  0.717010  0.059710  1.0
  C  C305  1  0.059710  0.073010  0.717010  1.0
  C  C306  1  0.717010  0.059710  0.073010  1.0
  C  C307  1  0.906470  0.297870  0.886170  1.0
  C  C308  1  0.886170  0.906470  0.297870  1.0
  C  C309  1  0.297870  0.886170  0.906470  1.0
  C  C310  1  0.093530  0.702130  0.113830  1.0
  C  C311  1  0.113830  0.093530  0.702130  1.0
  C  C312  1  0.702130  0.113830  0.093530  1.0
  C  C313  1  0.844460  0.283460  0.863260  1.0
  C  C314  1  0.863260  0.844460  0.283460  1.0
  C  C315  1  0.283460  0.863260  0.844460  1.0
  C  C316  1  0.155540  0.716540  0.136740  1.0
  C  C317  1  0.136740  0.155540  0.716540  1.0
  C  C318  1  0.716540  0.136740  0.155540  1.0
  C  C319  1  0.804000  0.253700  0.898500  1.0
  C  C320  1  0.898500  0.804000  0.253700  1.0
  C  C321  1  0.253700  0.898500  0.804000  1.0
  C  C322  1  0.196000  0.746300  0.101500  1.0
  C  C323  1  0.101500  0.196000  0.746300  1.0
  C  C324  1  0.746300  0.101500  0.196000  1.0
  C  C325  1  0.742700  0.236200  0.873500  1.0
  C  C326  1  0.873500  0.742700  0.236200  1.0
  C  C327  1  0.236200  0.873500  0.742700  1.0
  C  C328  1  0.257300  0.763800  0.126500  1.0
  C  C329  1  0.126500  0.257300  0.763800  1.0
  C  C330  1  0.763800  0.126500  0.257300  1.0
  C  C331  1  0.723170  0.250670  0.816670  1.0
  C  C332  1  0.816670  0.723170  0.250670  1.0
  C  C333  1  0.250670  0.816670  0.723170  1.0
  C  C334  1  0.276830  0.749330  0.183330  1.0
  C  C335  1  0.183330  0.276830  0.749330  1.0
  C  C336  1  0.749330  0.183330  0.276830  1.0
  C  C337  1  0.761200  0.280800  0.782500  1.0
  C  C338  1  0.782500  0.761200  0.280800  1.0
  C  C339  1  0.280800  0.782500  0.761200  1.0
  C  C340  1  0.238800  0.719200  0.217500  1.0
  C  C341  1  0.217500  0.238800  0.719200  1.0
  C  C342  1  0.719200  0.217500  0.238800  1.0
  C  C343  1  0.822790  0.296690  0.803090  1.0
  C  C344  1  0.803090  0.822790  0.296690  1.0
  C  C345  1  0.296690  0.803090  0.822790  1.0
  C  C346  1  0.177210  0.703310  0.196910  1.0
  C  C347  1  0.196910  0.177210  0.703310  1.0
  C  C348  1  0.703310  0.196910  0.177210  1.0
  Cl  Cl349  1  0.958900  0.128700  0.279900  1
  Cl  Cl350  1  0.279900  0.958900  0.128700  1
  Cl  Cl351  1  0.128700  0.279900  0.958900  1
  Cl  Cl352  1  0.041100  0.871300  0.720100  1
  Cl  Cl353  1  0.720100  0.041100  0.871300  1
  Cl  Cl354  1  0.871300  0.720100  0.041100  1
  Cl  Cl355  1  0.846230  0.904470  0.478050  1
  Cl  Cl356  1  0.478050  0.846230  0.904470  1
  Cl  Cl357  1  0.904470  0.478050  0.846230  1
  Cl  Cl358  1  0.153770  0.095530  0.521950  1
  Cl  Cl359  1  0.521950  0.153770  0.095530  1
  Cl  Cl360  1  0.095530  0.521950  0.153770  1
  Cl  Cl361  1  0.556100  0.499300  0.254200  1
  Cl  Cl362  1  0.254200  0.556100  0.499300  1
  Cl  Cl363  1  0.499300  0.254200  0.556100  1
  Cl  Cl364  1  0.443900  0.500700  0.745800  1
  Cl  Cl365  1  0.745800  0.443900  0.500700  1
  Cl  Cl366  1  0.500700  0.745800  0.443900  1
  Cl  Cl367  1  0.949050  0.103330  0.255570  1
  Cl  Cl368  1  0.255570  0.949050  0.103330  1
  Cl  Cl369  1  0.103330  0.255570  0.949050  1
  Cl  Cl370  1  0.050950  0.896670  0.744430  1
  Cl  Cl371  1  0.744430  0.050950  0.896670  1
  Cl  Cl372  1  0.896670  0.744430  0.050950  1
  Co  Co373  1  0.266010  0.266010  0.266010  1.0
  Co  Co374  1  0.733990  0.733990  0.733990  1.0
  Co  Co375  1  0.795570  0.353820  0.119530  1.0
  Co  Co376  1  0.119530  0.795570  0.353820  1.0
  Co  Co377  1  0.353820  0.119530  0.795570  1.0
  Co  Co378  1  0.204430  0.646180  0.880470  1.0
  Co  Co379  1  0.880470  0.204430  0.646180  1.0
  Co  Co380  1  0.646180  0.880470  0.204430  1.0
  H  H381  1  0.072000  0.544200  0.404100  1
  H  H382  1  0.404100  0.072000  0.544200  1
  H  H383  1  0.544200  0.404100  0.072000  1
  H  H384  1  0.928000  0.455800  0.595900  1
  H  H385  1  0.595900  0.928000  0.455800  1
  H  H386  1  0.455800  0.595900  0.928000  1
  H  H387  1  0.054900  0.545500  0.332600  1
  H  H388  1  0.332600  0.054900  0.545500  1
  H  H389  1  0.545500  0.332600  0.054900  1
  H  H390  1  0.945100  0.454500  0.667400  1
  H  H391  1  0.667400  0.945100  0.454500  1
  H  H392  1  0.454500  0.667400  0.945100  1
  H  H393  1  0.089700  0.491600  0.356500  1
  H  H394  1  0.356500  0.089700  0.491600  1
  H  H395  1  0.491600  0.356500  0.089700  1
  H  H396  1  0.910300  0.508400  0.643500  1
  H  H397  1  0.643500  0.910300  0.508400  1
  H  H398  1  0.508400  0.643500  0.910300  1
  H  H399  1  0.978300  0.486300  0.336100  1
  H  H400  1  0.336100  0.978300  0.486300  1
  H  H401  1  0.486300  0.336100  0.978300  1
  H  H402  1  0.021700  0.513700  0.663900  1
  H  H403  1  0.663900  0.021700  0.513700  1
  H  H404  1  0.513700  0.663900  0.021700  1
  H  H405  1  0.829800  0.604200  0.358000  1
  H  H406  1  0.358000  0.829800  0.604200  1
  H  H407  1  0.604200  0.358000  0.829800  1
  H  H408  1  0.170200  0.395800  0.642000  1
  H  H409  1  0.642000  0.170200  0.395800  1
  H  H410  1  0.395800  0.642000  0.170200  1
  H  H411  1  0.763300  0.568600  0.357800  1
  H  H412  1  0.357800  0.763300  0.568600  1
  H  H413  1  0.568600  0.357800  0.763300  1
  H  H414  1  0.236700  0.431400  0.642200  1
  H  H415  1  0.642200  0.236700  0.431400  1
  H  H416  1  0.431400  0.642200  0.236700  1
  H  H417  1  0.784700  0.589000  0.295900  1
  H  H418  1  0.295900  0.784700  0.589000  1
  H  H419  1  0.589000  0.295900  0.784700  1
  H  H420  1  0.215300  0.411000  0.704100  1
  H  H421  1  0.704100  0.215300  0.411000  1
  H  H422  1  0.411000  0.704100  0.215300  1
  H  H423  1  0.800600  0.490300  0.336700  1
  H  H424  1  0.336700  0.800600  0.490300  1
  H  H425  1  0.490300  0.336700  0.800600  1
  H  H426  1  0.199400  0.509700  0.663300  1
  H  H427  1  0.663300  0.199400  0.509700  1
  H  H428  1  0.509700  0.663300  0.199400  1
  H  H429  1  0.807900  0.418400  0.911400  1.0
  H  H430  1  0.911400  0.807900  0.418400  1.0
  H  H431  1  0.418400  0.911400  0.807900  1.0
  H  H432  1  0.192100  0.581600  0.088600  1.0
  H  H433  1  0.088600  0.192100  0.581600  1.0
  H  H434  1  0.581600  0.088600  0.192100  1.0
  H  H435  1  0.707200  0.390600  0.871600  1.0
  H  H436  1  0.871600  0.707200  0.390600  1.0
  H  H437  1  0.390600  0.871600  0.707200  1.0
  H  H438  1  0.292800  0.609400  0.128400  1.0
  H  H439  1  0.128400  0.292800  0.609400  1.0
  H  H440  1  0.609400  0.128400  0.292800  1.0
  H  H441  1  0.638000  0.347500  0.930500  1.0
  H  H442  1  0.930500  0.638000  0.347500  1.0
  H  H443  1  0.347500  0.930500  0.638000  1.0
  H  H444  1  0.362000  0.652500  0.069500  1.0
  H  H445  1  0.069500  0.362000  0.652500  1.0
  H  H446  1  0.652500  0.069500  0.362000  1.0
  H  H447  1  0.672800  0.329100  0.028400  1.0
  H  H448  1  0.028400  0.672800  0.329100  1.0
  H  H449  1  0.329100  0.028400  0.672800  1.0
  H  H450  1  0.327200  0.670900  0.971600  1.0
  H  H451  1  0.971600  0.327200  0.670900  1.0
  H  H452  1  0.670900  0.971600  0.327200  1.0
  H  H453  1  0.993300  0.466900  0.055200  1.0
  H  H454  1  0.055200  0.993300  0.466900  1.0
  H  H455  1  0.466900  0.055200  0.993300  1.0
  H  H456  1  0.006700  0.533100  0.944800  1.0
  H  H457  1  0.944800  0.006700  0.533100  1.0
  H  H458  1  0.533100  0.944800  0.006700  1.0
  H  H459  1  0.911600  0.453800  0.967000  1.0
  H  H460  1  0.967000  0.911600  0.453800  1.0
  H  H461  1  0.453800  0.967000  0.911600  1.0
  H  H462  1  0.088400  0.546200  0.033000  1.0
  H  H463  1  0.033000  0.088400  0.546200  1.0
  H  H464  1  0.546200  0.033000  0.088400  1.0
  H  H465  1  0.935400  0.409200  0.188500  1.0
  H  H466  1  0.188500  0.935400  0.409200  1.0
  H  H467  1  0.409200  0.188500  0.935400  1.0
  H  H468  1  0.064600  0.590800  0.811500  1.0
  H  H469  1  0.811500  0.064600  0.590800  1.0
  H  H470  1  0.590800  0.811500  0.064600  1.0
  H  H471  1  0.996400  0.443400  0.169800  1.0
  H  H472  1  0.169800  0.996400  0.443400  1.0
  H  H473  1  0.443400  0.169800  0.996400  1.0
  H  H474  1  0.003600  0.556600  0.830200  1.0
  H  H475  1  0.830200  0.003600  0.556600  1.0
  H  H476  1  0.556600  0.830200  0.003600  1.0
  H  H477  1  0.289700  0.165900  0.458500  1.0
  H  H478  1  0.458500  0.289700  0.165900  1.0
  H  H479  1  0.165900  0.458500  0.289700  1.0
  H  H480  1  0.710300  0.834100  0.541500  1.0
  H  H481  1  0.541500  0.710300  0.834100  1.0
  H  H482  1  0.834100  0.541500  0.710300  1.0
  H  H483  1  0.392800  0.197700  0.488600  1.0
  H  H484  1  0.488600  0.392800  0.197700  1.0
  H  H485  1  0.197700  0.488600  0.392800  1.0
  H  H486  1  0.607200  0.802300  0.511400  1.0
  H  H487  1  0.511400  0.607200  0.802300  1.0
  H  H488  1  0.802300  0.511400  0.607200  1.0
  H  H489  1  0.447700  0.254300  0.428700  1.0
  H  H490  1  0.428700  0.447700  0.254300  1.0
  H  H491  1  0.254300  0.428700  0.447700  1.0
  H  H492  1  0.552300  0.745700  0.571300  1.0
  H  H493  1  0.571300  0.552300  0.745700  1.0
  H  H494  1  0.745700  0.571300  0.552300  1.0
  H  H495  1  0.402300  0.282100  0.338000  1.0
  H  H496  1  0.338000  0.402300  0.282100  1.0
  H  H497  1  0.282100  0.338000  0.402300  1.0
  H  H498  1  0.597700  0.717900  0.662000  1.0
  H  H499  1  0.662000  0.597700  0.717900  1.0
  H  H500  1  0.717900  0.662000  0.597700  1.0
  H  H501  1  0.179800  0.140700  0.420800  1.0
  H  H502  1  0.420800  0.179800  0.140700  1.0
  H  H503  1  0.140700  0.420800  0.179800  1.0
  H  H504  1  0.820200  0.859300  0.579200  1.0
  H  H505  1  0.579200  0.820200  0.859300  1.0
  H  H506  1  0.859300  0.579200  0.820200  1.0
  H  H507  1  0.086700  0.133200  0.345900  1.0
  H  H508  1  0.345900  0.086700  0.133200  1.0
  H  H509  1  0.133200  0.345900  0.086700  1.0
  H  H510  1  0.913300  0.866800  0.654100  1.0
  H  H511  1  0.654100  0.913300  0.866800  1.0
  H  H512  1  0.866800  0.654100  0.913300  1.0
  H  H513  1  0.070600  0.160100  0.234300  1.0
  H  H514  1  0.234300  0.070600  0.160100  1.0
  H  H515  1  0.160100  0.234300  0.070600  1.0
  H  H516  1  0.929400  0.839900  0.765700  1.0
  H  H517  1  0.765700  0.929400  0.839900  1.0
  H  H518  1  0.839900  0.765700  0.929400  1.0
  H  H519  1  0.126900  0.194700  0.207900  1.0
  H  H520  1  0.207900  0.126900  0.194700  1.0
  H  H521  1  0.194700  0.207900  0.126900  1.0
  H  H522  1  0.873100  0.805300  0.792100  1.0
  H  H523  1  0.792100  0.873100  0.805300  1.0
  H  H524  1  0.805300  0.792100  0.873100  1.0
  H  H525  1  0.970600  0.330400  0.059600  1.0
  H  H526  1  0.059600  0.970600  0.330400  1.0
  H  H527  1  0.330400  0.059600  0.970600  1.0
  H  H528  1  0.029400  0.669600  0.940400  1.0
  H  H529  1  0.940400  0.029400  0.669600  1.0
  H  H530  1  0.669600  0.940400  0.029400  1.0
  H  H531  1  0.008300  0.235200  0.052600  1.0
  H  H532  1  0.052600  0.008300  0.235200  1.0
  H  H533  1  0.235200  0.052600  0.008300  1.0
  H  H534  1  0.991700  0.764800  0.947400  1.0
  H  H535  1  0.947400  0.991700  0.764800  1.0
  H  H536  1  0.764800  0.947400  0.991700  1.0
  H  H537  1  0.052600  0.198300  0.137000  1.0
  H  H538  1  0.137000  0.052600  0.198300  1.0
  H  H539  1  0.198300  0.137000  0.052600  1.0
  H  H540  1  0.947400  0.801700  0.863000  1.0
  H  H541  1  0.863000  0.947400  0.801700  1.0
  H  H542  1  0.801700  0.863000  0.947400  1.0
  H  H543  1  0.008100  0.401100  0.266100  1.0
  H  H544  1  0.266100  0.008100  0.401100  1.0
  H  H545  1  0.401100  0.266100  0.008100  1.0
  H  H546  1  0.991900  0.598900  0.733900  1.0
  H  H547  1  0.733900  0.991900  0.598900  1.0
  H  H548  1  0.598900  0.733900  0.991900  1.0
  H  H549  1  0.058300  0.367700  0.350700  1.0
  H  H550  1  0.350700  0.058300  0.367700  1.0
  H  H551  1  0.367700  0.350700  0.058300  1.0
  H  H552  1  0.941700  0.632300  0.649300  1.0
  H  H553  1  0.649300  0.941700  0.632300  1.0
  H  H554  1  0.632300  0.649300  0.941700  1.0
  H  H555  1  0.101600  0.276700  0.341400  1.0
  H  H556  1  0.341400  0.101600  0.276700  1.0
  H  H557  1  0.276700  0.341400  0.101600  1.0
  H  H558  1  0.898400  0.723300  0.658600  1.0
  H  H559  1  0.658600  0.898400  0.723300  1.0
  H  H560  1  0.723300  0.658600  0.898400  1.0
  H  H561  1  0.904200  0.230500  0.262800  1.0
  H  H562  1  0.262800  0.904200  0.230500  1.0
  H  H563  1  0.230500  0.262800  0.904200  1.0
  H  H564  1  0.095800  0.769500  0.737200  1.0
  H  H565  1  0.737200  0.095800  0.769500  1.0
  H  H566  1  0.769500  0.737200  0.095800  1.0
  H  H567  1  0.915800  0.298700  0.350400  1.0
  H  H568  1  0.350400  0.915800  0.298700  1.0
  H  H569  1  0.298700  0.350400  0.915800  1.0
  H  H570  1  0.084200  0.701300  0.649600  1.0
  H  H571  1  0.649600  0.084200  0.701300  1.0
  H  H572  1  0.701300  0.649600  0.084200  1.0
  H  H573  1  0.871600  0.392100  0.345900  1.0
  H  H574  1  0.345900  0.871600  0.392100  1.0
  H  H575  1  0.392100  0.345900  0.871600  1.0
  H  H576  1  0.128400  0.607900  0.654100  1.0
  H  H577  1  0.654100  0.128400  0.607900  1.0
  H  H578  1  0.607900  0.654100  0.128400  1.0
  H  H579  1  0.827100  0.413800  0.255900  1.0
  H  H580  1  0.255900  0.827100  0.413800  1.0
  H  H581  1  0.413800  0.255900  0.827100  1.0
  H  H582  1  0.172900  0.586200  0.744100  1.0
  H  H583  1  0.744100  0.172900  0.586200  1.0
  H  H584  1  0.586200  0.744100  0.172900  1.0
  H  H585  1  0.889100  0.163100  0.165300  1.0
  H  H586  1  0.165300  0.889100  0.163100  1.0
  H  H587  1  0.163100  0.165300  0.889100  1.0
  H  H588  1  0.110900  0.836900  0.834700  1.0
  H  H589  1  0.834700  0.110900  0.836900  1.0
  H  H590  1  0.836900  0.834700  0.110900  1.0
  H  H591  1  0.843600  0.128900  0.058700  1.0
  H  H592  1  0.058700  0.843600  0.128900  1.0
  H  H593  1  0.128900  0.058700  0.843600  1.0
  H  H594  1  0.156400  0.871100  0.941300  1.0
  H  H595  1  0.941300  0.156400  0.871100  1.0
  H  H596  1  0.871100  0.941300  0.156400  1.0
  H  H597  1  0.748000  0.236400  0.999700  1.0
  H  H598  1  0.999700  0.748000  0.236400  1.0
  H  H599  1  0.236400  0.999700  0.748000  1.0
  H  H600  1  0.252000  0.763600  0.000300  1.0
  H  H601  1  0.000300  0.252000  0.763600  1.0
  H  H602  1  0.763600  0.000300  0.252000  1.0
  H  H603  1  0.768500  0.171100  0.980600  1.0
  H  H604  1  0.980600  0.768500  0.171100  1.0
  H  H605  1  0.171100  0.980600  0.768500  1.0
  H  H606  1  0.231500  0.828900  0.019400  1.0
  H  H607  1  0.019400  0.231500  0.828900  1.0
  H  H608  1  0.828900  0.019400  0.231500  1.0
  H  H609  1  0.795600  0.338800  0.493900  1.0
  H  H610  1  0.493900  0.795600  0.338800  1.0
  H  H611  1  0.338800  0.493900  0.795600  1.0
  H  H612  1  0.204400  0.661200  0.506100  1.0
  H  H613  1  0.506100  0.204400  0.661200  1.0
  H  H614  1  0.661200  0.506100  0.204400  1.0
  H  H615  1  0.805500  0.277200  0.404300  1.0
  H  H616  1  0.404300  0.805500  0.277200  1.0
  H  H617  1  0.277200  0.404300  0.805500  1.0
  H  H618  1  0.194500  0.722800  0.595700  1.0
  H  H619  1  0.595700  0.194500  0.722800  1.0
  H  H620  1  0.722800  0.595700  0.194500  1.0
  H  H621  1  0.839600  0.182700  0.408600  1.0
  H  H622  1  0.408600  0.839600  0.182700  1.0
  H  H623  1  0.182700  0.408600  0.839600  1.0
  H  H624  1  0.160400  0.817300  0.591400  1.0
  H  H625  1  0.591400  0.160400  0.817300  1.0
  H  H626  1  0.817300  0.591400  0.160400  1.0
  H  H627  1  0.873200  0.154400  0.504100  1.0
  H  H628  1  0.504100  0.873200  0.154400  1.0
  H  H629  1  0.154400  0.504100  0.873200  1.0
  H  H630  1  0.126800  0.845600  0.495900  1.0
  H  H631  1  0.495900  0.126800  0.845600  1.0
  H  H632  1  0.845600  0.495900  0.126800  1.0
  H  H633  1  0.782400  0.391700  0.596100  1.0
  H  H634  1  0.596100  0.782400  0.391700  1.0
  H  H635  1  0.391700  0.596100  0.782400  1.0
  H  H636  1  0.217600  0.608300  0.403900  1.0
  H  H637  1  0.403900  0.217600  0.608300  1.0
  H  H638  1  0.608300  0.403900  0.217600  1.0
  H  H639  1  0.807300  0.416700  0.709700  1.0
  H  H640  1  0.709700  0.807300  0.416700  1.0
  H  H641  1  0.416700  0.709700  0.807300  1.0
  H  H642  1  0.192700  0.583300  0.290300  1.0
  H  H643  1  0.290300  0.192700  0.583300  1.0
  H  H644  1  0.583300  0.290300  0.192700  1.0
  H  H645  1  0.881600  0.369700  0.790100  1.0
  H  H646  1  0.790100  0.881600  0.369700  1.0
  H  H647  1  0.369700  0.790100  0.881600  1.0
  H  H648  1  0.118400  0.630300  0.209900  1.0
  H  H649  1  0.209900  0.118400  0.630300  1.0
  H  H650  1  0.630300  0.209900  0.118400  1.0
  H  H651  1  0.903400  0.306000  0.766900  1.0
  H  H652  1  0.766900  0.903400  0.306000  1.0
  H  H653  1  0.306000  0.766900  0.903400  1.0
  H  H654  1  0.096600  0.694000  0.233100  1.0
  H  H655  1  0.233100  0.096600  0.694000  1.0
  H  H656  1  0.694000  0.233100  0.096600  1.0
  H  H657  1  0.902300  0.245800  0.016300  1.0
  H  H658  1  0.016300  0.902300  0.245800  1.0
  H  H659  1  0.245800  0.016300  0.902300  1.0
  H  H660  1  0.097700  0.754200  0.983700  1.0
  H  H661  1  0.983700  0.097700  0.754200  1.0
  H  H662  1  0.754200  0.983700  0.097700  1.0
  H  H663  1  0.969200  0.291200  0.954400  1.0
  H  H664  1  0.954400  0.969200  0.291200  1.0
  H  H665  1  0.291200  0.954400  0.969200  1.0
  H  H666  1  0.030800  0.708800  0.045600  1.0
  H  H667  1  0.045600  0.030800  0.708800  1.0
  H  H668  1  0.708800  0.045600  0.030800  1.0
  H  H669  1  0.933800  0.318300  0.862800  1.0
  H  H670  1  0.862800  0.933800  0.318300  1.0
  H  H671  1  0.318300  0.862800  0.933800  1.0
  H  H672  1  0.066200  0.681700  0.137200  1.0
  H  H673  1  0.137200  0.066200  0.681700  1.0
  H  H674  1  0.681700  0.137200  0.066200  1.0
  H  H675  1  0.715200  0.214700  0.895800  1.0
  H  H676  1  0.895800  0.715200  0.214700  1.0
  H  H677  1  0.214700  0.895800  0.715200  1.0
  H  H678  1  0.284800  0.785300  0.104200  1.0
  H  H679  1  0.104200  0.284800  0.785300  1.0
  H  H680  1  0.785300  0.104200  0.284800  1.0
  H  H681  1  0.681800  0.239200  0.800600  1.0
  H  H682  1  0.800600  0.681800  0.239200  1.0
  H  H683  1  0.239200  0.800600  0.681800  1.0
  H  H684  1  0.318200  0.760800  0.199400  1.0
  H  H685  1  0.199400  0.318200  0.760800  1.0
  H  H686  1  0.760800  0.199400  0.318200  1.0
  H  H687  1  0.745300  0.291300  0.744100  1.0
  H  H688  1  0.744100  0.745300  0.291300  1.0
  H  H689  1  0.291300  0.744100  0.745300  1.0
  H  H690  1  0.254700  0.708700  0.255900  1.0
  H  H691  1  0.255900  0.254700  0.708700  1.0
  H  H692  1  0.708700  0.255900  0.254700  1.0
  N  N693  1  0.758240  0.363580  0.028750  1.0
  N  N694  1  0.028750  0.758240  0.363580  1.0
  N  N695  1  0.363580  0.028750  0.758240  1.0
  N  N696  1  0.241760  0.636420  0.971250  1.0
  N  N697  1  0.971250  0.241760  0.636420  1.0
  N  N698  1  0.636420  0.971250  0.241760  1.0
  N  N699  1  0.930950  0.419510  0.099720  1.0
  N  N700  1  0.099720  0.930950  0.419510  1.0
  N  N701  1  0.419510  0.099720  0.930950  1.0
  N  N702  1  0.069050  0.580490  0.900280  1.0
  N  N703  1  0.900280  0.069050  0.580490  1.0
  N  N704  1  0.580490  0.900280  0.069050  1.0
  N  N705  1  0.872950  0.394070  0.081520  1.0
  N  N706  1  0.081520  0.872950  0.394070  1.0
  N  N707  1  0.394070  0.081520  0.872950  1.0
  N  N708  1  0.127050  0.605930  0.918480  1.0
  N  N709  1  0.918480  0.127050  0.605930  1.0
  N  N710  1  0.605930  0.918480  0.127050  1.0
  N  N711  1  0.318560  0.239660  0.344060  1.0
  N  N712  1  0.344060  0.318560  0.239660  1.0
  N  N713  1  0.239660  0.344060  0.318560  1.0
  N  N714  1  0.681440  0.760340  0.655940  1.0
  N  N715  1  0.655940  0.681440  0.760340  1.0
  N  N716  1  0.760340  0.655940  0.681440  1.0
  N  N717  1  0.142890  0.184640  0.295480  1.0
  N  N718  1  0.295480  0.142890  0.184640  1.0
  N  N719  1  0.184640  0.295480  0.142890  1.0
  N  N720  1  0.857110  0.815360  0.704520  1.0
  N  N721  1  0.704520  0.857110  0.815360  1.0
  N  N722  1  0.815360  0.704520  0.857110  1.0
  N  N723  1  0.201080  0.206000  0.304610  1.0
  N  N724  1  0.304610  0.201080  0.206000  1.0
  N  N725  1  0.206000  0.304610  0.201080  1.0
  N  N726  1  0.798920  0.794000  0.695390  1.0
  N  N727  1  0.695390  0.798920  0.794000  1.0
  N  N728  1  0.794000  0.695390  0.798920  1.0
  N  N729  1  0.837990  0.338030  0.205940  1.0
  N  N730  1  0.205940  0.837990  0.338030  1.0
  N  N731  1  0.338030  0.205940  0.837990  1.0
  N  N732  1  0.162010  0.661970  0.794060  1.0
  N  N733  1  0.794060  0.162010  0.661970  1.0
  N  N734  1  0.661970  0.794060  0.162010  1.0
  N  N735  1  0.811570  0.212470  0.059480  1.0
  N  N736  1  0.059480  0.811570  0.212470  1.0
  N  N737  1  0.212470  0.059480  0.811570  1.0
  N  N738  1  0.188430  0.787530  0.940520  1.0
  N  N739  1  0.940520  0.188430  0.787530  1.0
  N  N740  1  0.787530  0.940520  0.188430  1.0
  N  N741  1  0.816480  0.260270  0.103340  1.0
  N  N742  1  0.103340  0.816480  0.260270  1.0
  N  N743  1  0.260270  0.103340  0.816480  1.0
  N  N744  1  0.183520  0.739730  0.896660  1.0
  N  N745  1  0.896660  0.183520  0.739730  1.0
  N  N746  1  0.739730  0.896660  0.183520  1.0
  N  N747  1  0.850540  0.224940  0.553630  1.0
  N  N748  1  0.553630  0.850540  0.224940  1.0
  N  N749  1  0.224940  0.553630  0.850540  1.0
  N  N750  1  0.149460  0.775060  0.446370  1.0
  N  N751  1  0.446370  0.149460  0.775060  1.0
  N  N752  1  0.775060  0.446370  0.149460  1.0
  N  N753  1  0.843310  0.335330  0.706190  1.0
  N  N754  1  0.706190  0.843310  0.335330  1.0
  N  N755  1  0.335330  0.706190  0.843310  1.0
  N  N756  1  0.156690  0.664670  0.293810  1.0
  N  N757  1  0.293810  0.156690  0.664670  1.0
  N  N758  1  0.664670  0.293810  0.156690  1.0
  N  N759  1  0.849850  0.292980  0.659830  1.0
  N  N760  1  0.659830  0.849850  0.292980  1.0
  N  N761  1  0.292980  0.659830  0.849850  1.0
  N  N762  1  0.150150  0.707020  0.340170  1.0
  N  N763  1  0.340170  0.150150  0.707020  1.0
  N  N764  1  0.707020  0.340170  0.150150  1.0
  O  O765  1  0.102900  0.102900  0.102900  1
  O  O766  1  0.897100  0.897100  0.897100  1
  O  O767  1  0.048500  0.139100  0.989700  1
  O  O768  1  0.989700  0.048500  0.139100  1
  O  O769  1  0.139100  0.989700  0.048500  1
  O  O770  1  0.951500  0.860900  0.010300  1
  O  O771  1  0.010300  0.951500  0.860900  1
  O  O772  1  0.860900  0.010300  0.951500  1
  O  O773  1  0.029400  0.174000  0.936400  1
  O  O774  1  0.936400  0.029400  0.174000  1
  O  O775  1  0.174000  0.936400  0.029400  1
  O  O776  1  0.970600  0.826000  0.063600  1
  O  O777  1  0.063600  0.970600  0.826000  1
  O  O778  1  0.826000  0.063600  0.970600  1
  O  O779  1  0.531900  0.197500  0.237000  1
  O  O780  1  0.237000  0.531900  0.197500  1
  O  O781  1  0.197500  0.237000  0.531900  1
  O  O782  1  0.468100  0.802500  0.763000  1
  O  O783  1  0.763000  0.468100  0.802500  1
  O  O784  1  0.802500  0.763000  0.468100  1
  O  O785  1  0.641300  0.125200  0.935300  1
  O  O786  1  0.935300  0.641300  0.125200  1
  O  O787  1  0.125200  0.935300  0.641300  1
  O  O788  1  0.358700  0.874800  0.064700  1
  O  O789  1  0.064700  0.358700  0.874800  1
  O  O790  1  0.874800  0.064700  0.358700  1
  O  O791  1  0.515200  0.270400  0.925200  1
  O  O792  1  0.925200  0.515200  0.270400  1
  O  O793  1  0.270400  0.925200  0.515200  1
  O  O794  1  0.484800  0.729600  0.074800  1
  O  O795  1  0.074800  0.484800  0.729600  1
  O  O796  1  0.729600  0.074800  0.484800  1
  O  O797  1  0.001900  0.483800  0.367500  1
  O  O798  1  0.367500  0.001900  0.483800  1
  O  O799  1  0.483800  0.367500  0.001900  1
  O  O800  1  0.998100  0.516200  0.632500  1
  O  O801  1  0.632500  0.998100  0.516200  1
  O  O802  1  0.516200  0.632500  0.998100  1
  O  O803  1  0.821900  0.517800  0.322700  1
  O  O804  1  0.322700  0.821900  0.517800  1
  O  O805  1  0.517800  0.322700  0.821900  1
  O  O806  1  0.178100  0.482200  0.677300  1
  O  O807  1  0.677300  0.178100  0.482200  1
  O  O808  1  0.482200  0.677300  0.178100  1
  O  O809  1  0.053200  0.099400  0.946400  1
  O  O810  1  0.946400  0.053200  0.099400  1
  O  O811  1  0.099400  0.946400  0.053200  1
  O  O812  1  0.946800  0.900600  0.053600  1
  O  O813  1  0.053600  0.946800  0.900600  1
  O  O814  1  0.900600  0.053600  0.946800  1
  O  O815  1  0.602600  0.213300  0.987900  1
  O  O816  1  0.987900  0.602600  0.213300  1
  O  O817  1  0.213300  0.987900  0.602600  1
  O  O818  1  0.397400  0.786700  0.012100  1
  O  O819  1  0.012100  0.397400  0.786700  1
  O  O820  1  0.786700  0.012100  0.397400  1
