# generated using pymatgen
data_H88PdC100N6(O5F8)2
_symmetry_space_group_name_H-M   'P 1'
_cell_length_a   9.56200000
_cell_length_b   15.48500000
_cell_length_c   30.23400000
_cell_angle_alpha   104.05200000
_cell_angle_beta   90.00000000
_cell_angle_gamma   90.00000000
_symmetry_Int_Tables_number   1
_chemical_formula_structural   H88PdC100N6(O5F8)2
_chemical_formula_sum   'H176 Pd2 C200 N12 O20 F32'
_cell_volume   4342.71384088
_cell_formula_units_Z   2
loop_
 _symmetry_equiv_pos_site_id
 _symmetry_equiv_pos_as_xyz
  1  'x, y, z'
loop_
 _atom_site_type_symbol
 _atom_site_label
 _atom_site_symmetry_multiplicity
 _atom_site_fract_x
 _atom_site_fract_y
 _atom_site_fract_z
 _atom_site_occupancy
  H  H1  1  0.913900  0.914900  0.961700  1
  H  H2  1  0.413900  0.585100  0.538300  1
  H  H3  1  0.086100  0.085100  0.038300  1
  H  H4  1  0.586100  0.414900  0.461700  1
  H  H5  1  0.980100  0.839000  0.921500  1
  H  H6  1  0.480100  0.661000  0.578500  1
  H  H7  1  0.019900  0.161000  0.078500  1
  H  H8  1  0.519900  0.339000  0.421500  1
  H  H9  1  0.926200  0.965400  0.894900  1
  H  H10  1  0.426200  0.534600  0.605100  1
  H  H11  1  0.073800  0.034600  0.105100  1
  H  H12  1  0.573800  0.465400  0.394900  1
  H  H13  1  0.091400  0.948300  0.892100  1
  H  H14  1  0.591400  0.551700  0.607900  1
  H  H15  1  0.908600  0.051700  0.107900  1
  H  H16  1  0.408600  0.448300  0.392100  1
  H  H17  1  0.027300  0.024500  0.932500  1
  H  H18  1  0.527300  0.475500  0.567500  1
  H  H19  1  0.972700  0.975500  0.067500  1
  H  H20  1  0.472700  0.524500  0.432500  1
  H  H21  1  0.103500  0.772800  0.972400  1
  H  H22  1  0.603500  0.727200  0.527600  1
  H  H23  1  0.896500  0.227200  0.027600  1
  H  H24  1  0.396500  0.272800  0.472400  1
  H  H25  1  0.024100  0.842200  0.012600  1
  H  H26  1  0.524100  0.657800  0.487400  1
  H  H27  1  0.975900  0.157800  0.987400  1
  H  H28  1  0.475900  0.342200  0.512600  1
  H  H29  1  0.228100  0.794100  0.039900  1
  H  H30  1  0.728100  0.705900  0.460100  1
  H  H31  1  0.771900  0.205900  0.960100  1
  H  H32  1  0.271900  0.294100  0.539900  1
  H  H33  1  0.238200  0.898400  0.042700  1
  H  H34  1  0.738200  0.601600  0.457300  1
  H  H35  1  0.761800  0.101600  0.957300  1
  H  H36  1  0.261800  0.398400  0.542700  1
  H  H37  1  0.317000  0.828600  0.002800  1
  H  H38  1  0.817000  0.671400  0.497200  1
  H  H39  1  0.683000  0.171400  0.997200  1
  H  H40  1  0.183000  0.328600  0.502800  1
  H  H41  1  0.433200  0.901600  0.699600  1
  H  H42  1  0.933200  0.598400  0.800400  1
  H  H43  1  0.566800  0.098400  0.300400  1
  H  H44  1  0.066800  0.401600  0.199600  1
  H  H45  1  0.581300  0.956300  0.711000  1
  H  H46  1  0.081300  0.543700  0.789000  1
  H  H47  1  0.418700  0.043700  0.289000  1
  H  H48  1  0.918700  0.456300  0.211000  1
  H  H49  1  0.411200  0.042200  0.663400  1
  H  H50  1  0.911200  0.457800  0.836600  1
  H  H51  1  0.588800  0.957800  0.336600  1
  H  H52  1  0.088800  0.542200  0.163400  1
  H  H53  1  0.452700  0.105800  0.711600  1
  H  H54  1  0.952700  0.394200  0.788400  1
  H  H55  1  0.547300  0.894200  0.288400  1
  H  H56  1  0.047300  0.605800  0.211600  1
  H  H57  1  0.304400  0.056500  0.705300  1
  H  H58  1  0.804400  0.443500  0.794700  1
  H  H59  1  0.695600  0.943500  0.294700  1
  H  H60  1  0.195600  0.556500  0.205300  1
  H  H61  1  0.276300  0.918400  0.744300  1
  H  H62  1  0.776300  0.581600  0.755700  1
  H  H63  1  0.723700  0.081600  0.255700  1
  H  H64  1  0.223700  0.418400  0.244300  1
  H  H65  1  0.234700  0.020200  0.757000  1
  H  H66  1  0.734700  0.479800  0.743000  1
  H  H67  1  0.765300  0.979800  0.243000  1
  H  H68  1  0.265300  0.520200  0.257000  1
  H  H69  1  0.153800  0.957900  0.816300  1
  H  H70  1  0.653800  0.542100  0.683700  1
  H  H71  1  0.846200  0.042100  0.183700  1
  H  H72  1  0.346200  0.457900  0.316300  1
  H  H73  1  0.277000  0.024800  0.837900  1
  H  H74  1  0.777000  0.475200  0.662100  1
  H  H75  1  0.723000  0.975200  0.162100  1
  H  H76  1  0.223000  0.524800  0.337900  1
  H  H77  1  0.305400  0.919900  0.823600  1
  H  H78  1  0.805400  0.580100  0.676400  1
  H  H79  1  0.694600  0.080100  0.176400  1
  H  H80  1  0.194600  0.419900  0.323600  1
  H  H81  1  0.788600  0.928500  0.498600  1.0
  H  H82  1  0.288600  0.571500  0.001400  1.0
  H  H83  1  0.211400  0.071500  0.501400  1.0
  H  H84  1  0.711400  0.428500  0.998600  1.0
  H  H85  1  0.929200  0.859200  0.539900  1.0
  H  H86  1  0.429200  0.640800  0.960100  1.0
  H  H87  1  0.070800  0.140800  0.460100  1.0
  H  H88  1  0.570800  0.359200  0.039900  1.0
  H  H89  1  0.622100  0.877700  0.632200  1.0
  H  H90  1  0.122100  0.622300  0.867800  1.0
  H  H91  1  0.377900  0.122300  0.367800  1.0
  H  H92  1  0.877900  0.377700  0.132200  1.0
  H  H93  1  0.486100  0.946200  0.588400  1.0
  H  H94  1  0.986100  0.553800  0.911600  1.0
  H  H95  1  0.513900  0.053800  0.411600  1.0
  H  H96  1  0.013900  0.446200  0.088400  1.0
  H  H97  1  0.984700  0.835800  0.615300  1.0
  H  H98  1  0.484700  0.664200  0.884700  1.0
  H  H99  1  0.015300  0.164200  0.384700  1.0
  H  H100  1  0.515300  0.335800  0.115300  1.0
  H  H101  1  0.890500  0.748400  0.599900  1.0
  H  H102  1  0.390500  0.751600  0.900100  1.0
  H  H103  1  0.109500  0.251600  0.400100  1.0
  H  H104  1  0.609500  0.248400  0.099900  1.0
  H  H105  1  0.621500  0.955000  0.813500  1.0
  H  H106  1  0.121500  0.545000  0.686500  1.0
  H  H107  1  0.378500  0.045000  0.186500  1.0
  H  H108  1  0.878500  0.455000  0.313500  1.0
  H  H109  1  0.626000  0.856000  0.924900  1.0
  H  H110  1  0.126000  0.644000  0.575100  1.0
  H  H111  1  0.374000  0.144000  0.075100  1.0
  H  H112  1  0.874000  0.356000  0.424900  1.0
  H  H113  1  0.754000  0.734900  0.885400  1.0
  H  H114  1  0.254000  0.765100  0.614600  1.0
  H  H115  1  0.246000  0.265100  0.114600  1.0
  H  H116  1  0.746000  0.234900  0.385400  1.0
  H  H117  1  0.824100  0.725200  0.810200  1.0
  H  H118  1  0.324100  0.774800  0.689800  1.0
  H  H119  1  0.175900  0.274800  0.189800  1.0
  H  H120  1  0.675900  0.225200  0.310200  1.0
  H  H121  1  0.590500  0.084300  0.862900  1.0
  H  H122  1  0.090500  0.415700  0.637100  1.0
  H  H123  1  0.409500  0.915700  0.137100  1.0
  H  H124  1  0.909500  0.584300  0.362900  1.0
  H  H125  1  0.331800  0.191700  0.967400  1.0
  H  H126  1  0.831800  0.308300  0.532600  1.0
  H  H127  1  0.668200  0.808300  0.032600  1.0
  H  H128  1  0.168200  0.691700  0.467400  1.0
  H  H129  1  0.307700  0.054600  0.983800  1.0
  H  H130  1  0.807700  0.445400  0.516200  1.0
  H  H131  1  0.692300  0.945400  0.016200  1.0
  H  H132  1  0.192300  0.554600  0.483800  1.0
  H  H133  1  0.430100  0.932000  0.942300  1.0
  H  H134  1  0.930100  0.568000  0.557700  1.0
  H  H135  1  0.569900  0.068000  0.057700  1.0
  H  H136  1  0.069900  0.432000  0.442300  1.0
  H  H137  1  0.468000  0.193200  0.830900  1.0
  H  H138  1  0.968000  0.306800  0.669100  1.0
  H  H139  1  0.532000  0.806800  0.169100  1.0
  H  H140  1  0.032000  0.693200  0.330900  1.0
  H  H141  1  0.485300  0.450200  0.948800  1.0
  H  H142  1  0.985300  0.049800  0.551200  1.0
  H  H143  1  0.514700  0.549800  0.051200  1.0
  H  H144  1  0.014700  0.950200  0.448800  1.0
  H  H145  1  0.481800  0.461400  0.873100  1.0
  H  H146  1  0.981800  0.038600  0.626900  1.0
  H  H147  1  0.518200  0.538600  0.126900  1.0
  H  H148  1  0.018200  0.961400  0.373100  1.0
  H  H149  1  0.473300  0.313100  0.965400  1.0
  H  H150  1  0.973300  0.186900  0.534600  1.0
  H  H151  1  0.526700  0.686900  0.034600  1.0
  H  H152  1  0.026700  0.813100  0.465400  1.0
  H  H153  1  0.309400  0.078000  0.579400  1.0
  H  H154  1  0.809400  0.422000  0.920600  1.0
  H  H155  1  0.690600  0.922000  0.420600  1.0
  H  H156  1  0.190600  0.578000  0.079400  1.0
  H  H157  1  0.289500  0.208900  0.636200  1.0
  H  H158  1  0.789500  0.291100  0.863800  1.0
  H  H159  1  0.710500  0.791100  0.363800  1.0
  H  H160  1  0.210500  0.708900  0.136200  1.0
  H  H161  1  0.648400  0.295500  0.592800  1.0
  H  H162  1  0.148400  0.204500  0.907200  1.0
  H  H163  1  0.351600  0.704500  0.407200  1.0
  H  H164  1  0.851600  0.795500  0.092800  1.0
  H  H165  1  0.661300  0.164400  0.536100  1.0
  H  H166  1  0.161300  0.335600  0.963900  1.0
  H  H167  1  0.338700  0.835600  0.463900  1.0
  H  H168  1  0.838700  0.664400  0.036100  1.0
  H  H169  1  0.363600  0.382100  0.650200  1.0
  H  H170  1  0.863600  0.117900  0.849800  1.0
  H  H171  1  0.636400  0.617900  0.349800  1.0
  H  H172  1  0.136400  0.882100  0.150200  1.0
  H  H173  1  0.529600  0.393800  0.650800  1.0
  H  H174  1  0.029600  0.106200  0.849200  1.0
  H  H175  1  0.470400  0.606200  0.349200  1.0
  H  H176  1  0.970400  0.893800  0.150800  1.0
  Pd  Pd177  1  0.500000  1.000000  0.500000  1
  Pd  Pd178  1  0.000000  0.500000  0.000000  1
  C  C179  1  0.996200  0.899000  0.941500  1
  C  C180  1  0.496200  0.601000  0.558500  1
  C  C181  1  0.003800  0.101000  0.058500  1
  C  C182  1  0.503800  0.399000  0.441500  1
  C  C183  1  0.011600  0.965100  0.912800  1
  C  C184  1  0.511600  0.534900  0.587200  1
  C  C185  1  0.988400  0.034900  0.087200  1
  C  C186  1  0.488400  0.465100  0.412800  1
  C  C187  1  0.109000  0.832900  0.993300  1
  C  C188  1  0.609000  0.667100  0.506700  1
  C  C189  1  0.891000  0.167100  0.006700  1
  C  C190  1  0.391000  0.332900  0.493300  1
  C  C191  1  0.233300  0.839000  0.022000  1
  C  C192  1  0.733300  0.661000  0.478000  1
  C  C193  1  0.766700  0.161000  0.978000  1
  C  C194  1  0.266700  0.339000  0.522000  1
  C  C195  1  0.478000  0.959700  0.713000  1
  C  C196  1  0.978000  0.540300  0.787000  1
  C  C197  1  0.522000  0.040300  0.287000  1
  C  C198  1  0.022000  0.459700  0.213000  1
  C  C199  1  0.403300  0.051200  0.696500  1
  C  C200  1  0.903300  0.448800  0.803500  1
  C  C201  1  0.596700  0.948800  0.303500  1
  C  C202  1  0.096700  0.551200  0.196500  1
  C  C203  1  0.300500  0.976700  0.764700  1
  C  C204  1  0.800500  0.523300  0.735300  1
  C  C205  1  0.699500  0.023300  0.235300  1
  C  C206  1  0.199500  0.476700  0.264700  1
  C  C207  1  0.254600  0.969100  0.815700  1
  C  C208  1  0.754600  0.530900  0.684300  1
  C  C209  1  0.745400  0.030900  0.184300  1
  C  C210  1  0.245400  0.469100  0.315700  1
  C  C211  1  0.753300  0.917100  0.526000  1.0
  C  C212  1  0.253300  0.582900  0.974000  1.0
  C  C213  1  0.246700  0.082900  0.474000  1.0
  C  C214  1  0.746700  0.417100  0.026000  1.0
  C  C215  1  0.837600  0.876700  0.550600  1.0
  C  C216  1  0.337600  0.623300  0.949400  1.0
  C  C217  1  0.162400  0.123300  0.449400  1.0
  C  C218  1  0.662400  0.376700  0.050600  1.0
  C  C219  1  0.793200  0.860500  0.590770  1.0
  C  C220  1  0.293200  0.639500  0.909230  1.0
  C  C221  1  0.206800  0.139500  0.409230  1.0
  C  C222  1  0.706800  0.360500  0.090770  1.0
  C  C223  1  0.658100  0.887400  0.604500  1.0
  C  C224  1  0.158100  0.612600  0.895500  1.0
  C  C225  1  0.341900  0.112600  0.395500  1.0
  C  C226  1  0.841900  0.387400  0.104500  1.0
  C  C227  1  0.577700  0.927500  0.578200  1.0
  C  C228  1  0.077700  0.572500  0.921800  1.0
  C  C229  1  0.422300  0.072500  0.421800  1.0
  C  C230  1  0.922300  0.427500  0.078200  1.0
  C  C231  1  0.888700  0.812200  0.616100  1.0
  C  C232  1  0.388700  0.687800  0.883900  1.0
  C  C233  1  0.111300  0.187800  0.383900  1.0
  C  C234  1  0.611300  0.312200  0.116100  1.0
  C  C235  1  0.847900  0.819800  0.665500  1.0
  C  C236  1  0.347900  0.680200  0.834500  1.0
  C  C237  1  0.152100  0.180200  0.334500  1.0
  C  C238  1  0.652100  0.319800  0.165500  1.0
  C  C239  1  0.746400  0.766700  0.676900  1.0
  C  C240  1  0.246400  0.733300  0.823100  1.0
  C  C241  1  0.253600  0.233300  0.323100  1.0
  C  C242  1  0.753600  0.266700  0.176900  1.0
  C  C243  1  0.706000  0.773600  0.721000  1.0
  C  C244  1  0.206000  0.726400  0.779000  1.0
  C  C245  1  0.294000  0.226400  0.279000  1.0
  C  C246  1  0.794000  0.273600  0.221000  1.0
  C  C247  1  0.768800  0.833400  0.757430  1.0
  C  C248  1  0.268800  0.666600  0.742570  1.0
  C  C249  1  0.231200  0.166600  0.242570  1.0
  C  C250  1  0.731200  0.333400  0.257430  1.0
  C  C251  1  0.872800  0.885300  0.745500  1.0
  C  C252  1  0.372800  0.614700  0.754500  1.0
  C  C253  1  0.127200  0.114700  0.254500  1.0
  C  C254  1  0.627200  0.385300  0.245500  1.0
  C  C255  1  0.911400  0.879700  0.700900  1.0
  C  C256  1  0.411400  0.620300  0.799100  1.0
  C  C257  1  0.088600  0.120300  0.299100  1.0
  C  C258  1  0.588600  0.379700  0.200900  1.0
  C  C259  1  0.729100  0.839000  0.805020  1.0
  C  C260  1  0.229100  0.661000  0.694980  1.0
  C  C261  1  0.270900  0.161000  0.194980  1.0
  C  C262  1  0.770900  0.339000  0.305020  1.0
  C  C263  1  0.649900  0.910600  0.828500  1.0
  C  C264  1  0.149900  0.589400  0.671500  1.0
  C  C265  1  0.350100  0.089400  0.171500  1.0
  C  C266  1  0.850100  0.410600  0.328500  1.0
  C  C267  1  0.611400  0.918200  0.873600  1.0
  C  C268  1  0.111400  0.581800  0.626400  1.0
  C  C269  1  0.388600  0.081800  0.126400  1.0
  C  C270  1  0.888600  0.418200  0.373600  1.0
  C  C271  1  0.651700  0.852100  0.894200  1.0
  C  C272  1  0.151700  0.647900  0.605800  1.0
  C  C273  1  0.348300  0.147900  0.105800  1.0
  C  C274  1  0.848300  0.352100  0.394200  1.0
  C  C275  1  0.728500  0.780400  0.870800  1.0
  C  C276  1  0.228500  0.719600  0.629200  1.0
  C  C277  1  0.271500  0.219600  0.129200  1.0
  C  C278  1  0.771500  0.280400  0.370800  1.0
  C  C279  1  0.769100  0.774100  0.826100  1.0
  C  C280  1  0.269100  0.725900  0.673900  1.0
  C  C281  1  0.230900  0.225900  0.173900  1.0
  C  C282  1  0.730900  0.274100  0.326100  1.0
  C  C283  1  0.526600  0.994900  0.898700  1.0
  C  C284  1  0.026600  0.505100  0.601300  1.0
  C  C285  1  0.473400  0.005100  0.101300  1.0
  C  C286  1  0.973400  0.494900  0.398700  1.0
  C  C287  1  0.533600  0.078000  0.887700  1.0
  C  C288  1  0.033600  0.422000  0.612300  1.0
  C  C289  1  0.466400  0.922000  0.112300  1.0
  C  C290  1  0.966400  0.578000  0.387700  1.0
  C  C291  1  0.459900  0.150500  0.911900  1.0
  C  C292  1  0.959900  0.349500  0.588100  1.0
  C  C293  1  0.540100  0.849500  0.088100  1.0
  C  C294  1  0.040100  0.650500  0.411900  1.0
  C  C295  1  0.378600  0.141400  0.949200  1.0
  C  C296  1  0.878600  0.358600  0.550800  1.0
  C  C297  1  0.621400  0.858600  0.050800  1.0
  C  C298  1  0.121400  0.641400  0.449200  1.0
  C  C299  1  0.366700  0.060800  0.959400  1.0
  C  C300  1  0.866700  0.439200  0.540600  1.0
  C  C301  1  0.633300  0.939200  0.040600  1.0
  C  C302  1  0.133300  0.560800  0.459400  1.0
  C  C303  1  0.439500  0.987800  0.934700  1.0
  C  C304  1  0.939500  0.512200  0.565300  1.0
  C  C305  1  0.560500  0.012200  0.065300  1.0
  C  C306  1  0.060500  0.487800  0.434700  1.0
  C  C307  1  0.469000  0.238600  0.900400  1.0
  C  C308  1  0.969000  0.261400  0.599600  1.0
  C  C309  1  0.531000  0.761400  0.099600  1.0
  C  C310  1  0.031000  0.738600  0.400400  1.0
  C  C311  1  0.469800  0.245600  0.855030  1.0
  C  C312  1  0.969800  0.254400  0.644970  1.0
  C  C313  1  0.530200  0.754400  0.144970  1.0
  C  C314  1  0.030200  0.745600  0.355030  1.0
  C  C315  1  0.473100  0.328100  0.845150  1.0
  C  C316  1  0.973100  0.171900  0.654850  1.0
  C  C317  1  0.526900  0.671900  0.154850  1.0
  C  C318  1  0.026900  0.828100  0.345150  1.0
  C  C319  1  0.480100  0.397900  0.924700  1.0
  C  C320  1  0.980100  0.102100  0.575300  1.0
  C  C321  1  0.519900  0.602100  0.075300  1.0
  C  C322  1  0.019900  0.897900  0.424700  1.0
  C  C323  1  0.478800  0.404600  0.879900  1.0
  C  C324  1  0.978800  0.095400  0.620100  1.0
  C  C325  1  0.521200  0.595400  0.120100  1.0
  C  C326  1  0.021200  0.904600  0.379900  1.0
  C  C327  1  0.474100  0.316500  0.934400  1.0
  C  C328  1  0.974100  0.183500  0.565600  1.0
  C  C329  1  0.525900  0.683500  0.065600  1.0
  C  C330  1  0.025900  0.816500  0.434400  1.0
  C  C331  1  0.467100  0.336000  0.796690  1.0
  C  C332  1  0.967100  0.164000  0.703310  1.0
  C  C333  1  0.532900  0.664000  0.203310  1.0
  C  C334  1  0.032900  0.836000  0.296690  1.0
  C  C335  1  0.571300  0.302700  0.766300  1.0
  C  C336  1  0.071300  0.197300  0.733700  1.0
  C  C337  1  0.428700  0.697300  0.233700  1.0
  C  C338  1  0.928700  0.802700  0.266300  1.0
  C  C339  1  0.566200  0.308700  0.721200  1.0
  C  C340  1  0.066200  0.191300  0.778800  1.0
  C  C341  1  0.433800  0.691300  0.278800  1.0
  C  C342  1  0.933800  0.808700  0.221200  1.0
  C  C343  1  0.457000  0.346300  0.704800  1.0
  C  C344  1  0.957000  0.153700  0.795200  1.0
  C  C345  1  0.543000  0.653700  0.295200  1.0
  C  C346  1  0.043000  0.846300  0.204800  1.0
  C  C347  1  0.352900  0.381200  0.734950  1.0
  C  C348  1  0.852900  0.118800  0.765050  1.0
  C  C349  1  0.647100  0.618800  0.265050  1.0
  C  C350  1  0.147100  0.881200  0.234950  1.0
  C  C351  1  0.359500  0.376700  0.780300  1.0
  C  C352  1  0.859500  0.123300  0.719700  1.0
  C  C353  1  0.640500  0.623300  0.219700  1.0
  C  C354  1  0.140500  0.876700  0.280300  1.0
  C  C355  1  0.378200  0.123200  0.581950  1.0
  C  C356  1  0.878200  0.376800  0.918050  1.0
  C  C357  1  0.621800  0.876800  0.418050  1.0
  C  C358  1  0.121800  0.623200  0.081950  1.0
  C  C359  1  0.366800  0.200900  0.615800  1.0
  C  C360  1  0.866800  0.299100  0.884200  1.0
  C  C361  1  0.633200  0.799100  0.384200  1.0
  C  C362  1  0.133200  0.700900  0.115800  1.0
  C  C363  1  0.466900  0.267200  0.620500  1.0
  C  C364  1  0.966900  0.232800  0.879500  1.0
  C  C365  1  0.533100  0.732800  0.379500  1.0
  C  C366  1  0.033100  0.767200  0.120500  1.0
  C  C367  1  0.577000  0.252000  0.590400  1.0
  C  C368  1  0.077000  0.248000  0.909600  1.0
  C  C369  1  0.423000  0.748000  0.409600  1.0
  C  C370  1  0.923000  0.752000  0.090400  1.0
  C  C371  1  0.584500  0.173600  0.556600  1.0
  C  C372  1  0.084500  0.326400  0.943400  1.0
  C  C373  1  0.415500  0.826400  0.443400  1.0
  C  C374  1  0.915500  0.673600  0.056600  1.0
  C  C375  1  0.453000  0.353900  0.655400  1.0
  C  C376  1  0.953000  0.146100  0.844600  1.0
  C  C377  1  0.547000  0.646100  0.344600  1.0
  C  C378  1  0.047000  0.853900  0.155400  1.0
  N  N379  1  0.287100  0.390800  0.055130  1
  N  N380  1  0.787100  0.109200  0.444870  1
  N  N381  1  0.712900  0.609200  0.944870  1
  N  N382  1  0.212900  0.890800  0.555130  1
  N  N383  1  0.622300  0.941900  0.538490  1.0
  N  N384  1  0.122300  0.558100  0.961510  1.0
  N  N385  1  0.377700  0.058100  0.461510  1.0
  N  N386  1  0.877700  0.441900  0.038490  1.0
  N  N387  1  0.487000  0.111000  0.552310  1.0
  N  N388  1  0.987000  0.389000  0.947690  1.0
  N  N389  1  0.513000  0.889000  0.447690  1.0
  N  N390  1  0.013000  0.611000  0.052310  1.0
  O  O391  1  0.318700  0.311400  0.041440  1
  O  O392  1  0.818700  0.188600  0.458560  1
  O  O393  1  0.681300  0.688600  0.958560  1
  O  O394  1  0.181300  0.811400  0.541440  1
  O  O395  1  0.269700  0.424000  0.096230  1
  O  O396  1  0.769700  0.076000  0.403770  1
  O  O397  1  0.730300  0.576000  0.903770  1
  O  O398  1  0.230300  0.924000  0.596230  1
  O  O399  1  0.277100  0.437300  0.027330  1
  O  O400  1  0.777100  0.062700  0.472670  1
  O  O401  1  0.722900  0.562700  0.972670  1
  O  O402  1  0.222900  0.937300  0.527330  1
  O  O403  1  0.115800  0.897600  0.967900  1
  O  O404  1  0.615800  0.602400  0.532100  1
  O  O405  1  0.884200  0.102400  0.032100  1
  O  O406  1  0.384200  0.397600  0.467900  1
  O  O407  1  0.432800  0.998600  0.749500  1
  O  O408  1  0.932800  0.501400  0.750500  1
  O  O409  1  0.567200  0.001400  0.250500  1
  O  O410  1  0.067200  0.498600  0.249500  1
  F  F411  1  0.679500  0.707900  0.643810  1.0
  F  F412  1  0.179500  0.792100  0.856190  1.0
  F  F413  1  0.320500  0.292100  0.356190  1.0
  F  F414  1  0.820500  0.207900  0.143810  1.0
  F  F415  1  0.603500  0.722000  0.729510  1.0
  F  F416  1  0.103500  0.778000  0.770490  1.0
  F  F417  1  0.396500  0.278000  0.270490  1.0
  F  F418  1  0.896500  0.222000  0.229510  1.0
  F  F419  1  0.940300  0.943700  0.778580  1.0
  F  F420  1  0.440300  0.556300  0.721420  1.0
  F  F421  1  0.059700  0.056300  0.221420  1.0
  F  F422  1  0.559700  0.443700  0.278580  1.0
  F  F423  1  0.010900  0.933100  0.692610  1.0
  F  F424  1  0.510900  0.566900  0.807390  1.0
  F  F425  1  0.989100  0.066900  0.307390  1.0
  F  F426  1  0.489100  0.433100  0.192610  1.0
  F  F427  1  0.683400  0.265100  0.780490  1.0
  F  F428  1  0.183400  0.234900  0.719510  1.0
  F  F429  1  0.316600  0.734900  0.219510  1.0
  F  F430  1  0.816600  0.765100  0.280490  1.0
  F  F431  1  0.675500  0.277200  0.694310  1.0
  F  F432  1  0.175500  0.222800  0.805690  1.0
  F  F433  1  0.324500  0.722800  0.305690  1.0
  F  F434  1  0.824500  0.777200  0.194310  1.0
  F  F435  1  0.240700  0.419200  0.721420  1.0
  F  F436  1  0.740700  0.080800  0.778580  1.0
  F  F437  1  0.759300  0.580800  0.278580  1.0
  F  F438  1  0.259300  0.919200  0.221420  1.0
  F  F439  1  0.251700  0.411700  0.807900  1.0
  F  F440  1  0.751700  0.088300  0.692100  1.0
  F  F441  1  0.748300  0.588300  0.192100  1.0
  F  F442  1  0.248300  0.911700  0.307900  1.0
