# generated using pymatgen
data_Si2H24PdC24N2(ClO)2
_symmetry_space_group_name_H-M   'P 1'
_cell_length_a   8.46310000
_cell_length_b   12.22100000
_cell_length_c   13.82890000
_cell_angle_alpha   83.16400000
_cell_angle_beta   72.73100000
_cell_angle_gamma   82.33000000
_symmetry_Int_Tables_number   1
_chemical_formula_structural   Si2H24PdC24N2(ClO)2
_chemical_formula_sum   'Si4 H48 Pd2 C48 N4 Cl4 O4'
_cell_volume   1348.82109168
_cell_formula_units_Z   2
loop_
 _symmetry_equiv_pos_site_id
 _symmetry_equiv_pos_as_xyz
  1  'x, y, z'
loop_
 _atom_site_type_symbol
 _atom_site_label
 _atom_site_symmetry_multiplicity
 _atom_site_fract_x
 _atom_site_fract_y
 _atom_site_fract_z
 _atom_site_occupancy
  Si  Si1  1  0.326040  0.149770  0.877480  1.0
  Si  Si2  1  0.673960  0.850230  0.122520  1.0
  Si  Si3  1  0.382580  0.683800  0.868670  1.0
  Si  Si4  1  0.617420  0.316200  0.131330  1.0
  H  H5  1  0.323000  0.186700  0.522500  1.0
  H  H6  1  0.677000  0.813300  0.477500  1.0
  H  H7  1  0.437100  0.189200  0.656600  1.0
  H  H8  1  0.562900  0.810800  0.343400  1.0
  H  H9  1  0.021500  0.075800  0.846600  1.0
  H  H10  1  0.978500  0.924200  0.153400  1.0
  H  H11  1  0.920200  0.072800  0.709500  1.0
  H  H12  1  0.079800  0.927200  0.290500  1.0
  H  H13  1  0.552900  0.307100  0.763600  1.0
  H  H14  1  0.447100  0.692900  0.236400  1.0
  H  H15  1  0.575000  0.497400  0.762600  1.0
  H  H16  1  0.425000  0.502600  0.237400  1.0
  H  H17  1  0.161400  0.522200  0.998000  1.0
  H  H18  1  0.838600  0.477800  0.002000  1.0
  H  H19  1  0.138000  0.332300  0.997500  1.0
  H  H20  1  0.862000  0.667700  0.002500  1.0
  H  H21  1  0.065900  0.665000  0.832200  1.0
  H  H22  1  0.934100  0.335000  0.167800  1.0
  H  H23  1  0.068700  0.267900  0.288500  1.0
  H  H24  1  0.931300  0.732100  0.711500  1.0
  H  H25  1  0.695700  0.099100  0.442200  1.0
  H  H26  1  0.304300  0.900900  0.557800  1.0
  H  H27  1  0.440800  0.845600  0.681200  1.0
  H  H28  1  0.559200  0.154400  0.318800  1.0
  H  H29  1  0.582100  0.077900  0.908200  1.0
  H  H30  1  0.417900  0.922100  0.091800  1.0
  H  H31  1  0.608000  0.102900  0.788500  1.0
  H  H32  1  0.392000  0.897100  0.211500  1.0
  H  H33  1  0.526800  0.993800  0.847000  1.0
  H  H34  1  0.473200  0.006200  0.153000  1.0
  H  H35  1  0.223400  0.103100  0.055000  1.0
  H  H36  1  0.776600  0.896900  0.945000  1.0
  H  H37  1  0.168400  0.018400  0.994200  1.0
  H  H38  1  0.831600  0.981600  0.005800  1.0
  H  H39  1  0.071000  0.139700  0.008000  1.0
  H  H40  1  0.929000  0.860300  0.992000  1.0
  H  H41  1  0.659600  0.682000  0.873200  1.0
  H  H42  1  0.340400  0.318000  0.126800  1.0
  H  H43  1  0.606300  0.794400  0.813200  1.0
  H  H44  1  0.393700  0.205600  0.186800  1.0
  H  H45  1  0.655700  0.681500  0.758200  1.0
  H  H46  1  0.344300  0.318500  0.241800  1.0
  H  H47  1  0.330200  0.707800  0.043700  1.0
  H  H48  1  0.669800  0.292200  0.956300  1.0
  H  H49  1  0.158000  0.720300  0.015600  1.0
  H  H50  1  0.842000  0.279700  0.984400  1.0
  H  H51  1  0.272100  0.820500  0.986300  1.0
  H  H52  1  0.727900  0.179500  0.013700  1.0
  Pd  Pd53  1  0.001270  0.152800  0.490660  1.0
  Pd  Pd54  1  0.998730  0.847200  0.509340  1.0
  C  C55  1  0.895000  0.537000  0.407000  1
  C  C56  1  0.105000  0.463000  0.593000  1
  C  C57  1  0.898000  0.538000  0.512000  1
  C  C58  1  0.102000  0.462000  0.488000  1
  C  C59  1  0.607000  0.561000  0.518000  1
  C  C60  1  0.393000  0.439000  0.482000  1
  C  C61  1  0.448000  0.517000  0.543000  1
  C  C62  1  0.552000  0.483000  0.457000  1
  C  C63  1  0.259900  0.165600  0.589800  1.0
  C  C64  1  0.740100  0.834400  0.410200  1.0
  C  C65  1  0.328700  0.167000  0.670300  1.0
  C  C66  1  0.671300  0.833000  0.329700  1.0
  C  C67  1  0.240600  0.136500  0.769100  1.0
  C  C68  1  0.759400  0.863500  0.230900  1.0
  C  C69  1  0.086200  0.100400  0.780800  1.0
  C  C70  1  0.913800  0.899600  0.219200  1.0
  C  C71  1  0.024900  0.099700  0.698700  1.0
  C  C72  1  0.975100  0.900300  0.301300  1.0
  C  C73  1  0.340900  0.300400  0.881200  1.0
  C  C74  1  0.659100  0.699600  0.118800  1.0
  C  C75  1  0.471600  0.350200  0.811300  1.0
  C  C76  1  0.528400  0.649800  0.188700  1.0
  C  C77  1  0.484400  0.465000  0.810800  1.0
  C  C78  1  0.515600  0.535000  0.189200  1.0
  C  C79  1  0.368400  0.531100  0.878700  1.0
  C  C80  1  0.631600  0.468900  0.121300  1.0
  C  C81  1  0.241300  0.480000  0.948900  1.0
  C  C82  1  0.758700  0.520000  0.051100  1.0
  C  C83  1  0.228000  0.364800  0.948900  1.0
  C  C84  1  0.772000  0.635200  0.051100  1.0
  C  C85  1  0.271100  0.745200  0.771000  1.0
  C  C86  1  0.728900  0.254800  0.229000  1.0
  C  C87  1  0.118000  0.714200  0.776800  1.0
  C  C88  1  0.882000  0.285800  0.223200  1.0
  C  C89  1  0.961300  0.246700  0.296400  1.0
  C  C90  1  0.038700  0.753300  0.703600  1.0
  C  C91  1  0.745200  0.147300  0.385200  1.0
  C  C92  1  0.254800  0.852700  0.614800  1.0
  C  C93  1  0.337600  0.818600  0.687900  1.0
  C  C94  1  0.662400  0.181400  0.312100  1.0
  C  C95  1  0.535400  0.071900  0.852300  1.0
  C  C96  1  0.464600  0.928100  0.147700  1.0
  C  C97  1  0.179900  0.096400  0.997900  1.0
  C  C98  1  0.820100  0.903600  0.002100  1.0
  C  C99  1  0.601700  0.714000  0.823000  1.0
  C  C100  1  0.398300  0.286000  0.177000  1.0
  C  C101  1  0.272700  0.739700  0.993300  1.0
  C  C102  1  0.727300  0.260300  0.006700  1.0
  N  N103  1  0.107800  0.135200  0.605700  1.0
  N  N104  1  0.892200  0.864800  0.394300  1.0
  N  N105  1  0.893500  0.180800  0.377200  1.0
  N  N106  1  0.106500  0.819200  0.622800  1.0
  Cl  Cl107  1  0.235390  0.061300  0.387500  1.0
  Cl  Cl108  1  0.764610  0.938700  0.612500  1.0
  Cl  Cl109  1  0.774850  0.256070  0.588320  1.0
  Cl  Cl110  1  0.225150  0.743930  0.411680  1.0
  O  O111  1  0.024000  0.539000  0.303000  1
  O  O112  1  0.976000  0.461000  0.697000  1
  O  O113  1  0.718000  0.604200  0.570100  1
  O  O114  1  0.282000  0.395800  0.429900  1
