# generated using pymatgen
data_Si2H24PdC20(NCl)2
_symmetry_space_group_name_H-M   'P 1'
_cell_length_a   8.51220000
_cell_length_b   10.85900000
_cell_length_c   13.31900000
_cell_angle_alpha   78.35300000
_cell_angle_beta   81.99300000
_cell_angle_gamma   78.28400000
_symmetry_Int_Tables_number   1
_chemical_formula_structural   Si2H24PdC20(NCl)2
_chemical_formula_sum   'Si4 H48 Pd2 C40 N4 Cl4'
_cell_volume   1174.43942629
_cell_formula_units_Z   2
loop_
 _symmetry_equiv_pos_site_id
 _symmetry_equiv_pos_as_xyz
  1  'x, y, z'
loop_
 _atom_site_type_symbol
 _atom_site_label
 _atom_site_symmetry_multiplicity
 _atom_site_fract_x
 _atom_site_fract_y
 _atom_site_fract_z
 _atom_site_occupancy
  Si  Si1  1  0.943620  0.188920  0.127870  1.0
  Si  Si2  1  0.056380  0.811080  0.872130  1.0
  Si  Si3  1  0.402240  0.693870  0.217500  1.0
  Si  Si4  1  0.597760  0.306130  0.782500  1.0
  H  H5  1  0.241600  0.952700  0.483900  1.0
  H  H6  1  0.758400  0.047300  0.516100  1.0
  H  H7  1  0.060800  0.851500  0.428700  1.0
  H  H8  1  0.939200  0.148500  0.571300  1.0
  H  H9  1  0.926800  0.952500  0.284500  1.0
  H  H10  1  0.073200  0.047500  0.715500  1.0
  H  H11  1  0.167400  0.243400  0.255700  1.0
  H  H12  1  0.832600  0.756600  0.744300  1.0
  H  H13  1  0.943400  0.437800  0.184800  1.0
  H  H14  1  0.056600  0.562200  0.815200  1.0
  H  H15  1  0.753800  0.616000  0.214000  1.0
  H  H16  1  0.246200  0.384000  0.786000  1.0
  H  H17  1  0.407000  0.457500  0.138500  1.0
  H  H18  1  0.593000  0.542500  0.861500  1.0
  H  H19  1  0.595800  0.278900  0.110700  1.0
  H  H20  1  0.404200  0.721100  0.889300  1.0
  H  H21  1  0.223800  0.562700  0.400900  1.0
  H  H22  1  0.776200  0.437300  0.599100  1.0
  H  H23  1  0.209900  0.550200  0.579600  1.0
  H  H24  1  0.790100  0.449800  0.420400  1.0
  H  H25  1  0.627700  0.342900  0.356000  1.0
  H  H26  1  0.372300  0.657100  0.644000  1.0
  H  H27  1  0.440800  0.214400  0.636300  1.0
  H  H28  1  0.559200  0.785600  0.363700  1.0
  H  H29  1  0.794400  0.110200  0.024800  1.0
  H  H30  1  0.205600  0.889800  0.975200  1.0
  H  H31  1  0.758100  0.048300  0.143300  1.0
  H  H32  1  0.241900  0.951700  0.856700  1.0
  H  H33  1  0.922200  0.995200  0.078700  1.0
  H  H34  1  0.077800  0.004800  0.921300  1.0
  H  H35  1  0.069800  0.276400  0.966300  1.0
  H  H36  1  0.930200  0.723600  0.033700  1.0
  H  H37  1  0.191800  0.158500  0.022100  1.0
  H  H38  1  0.808200  0.841500  0.977900  1.0
  H  H39  1  0.163000  0.294600  0.057200  1.0
  H  H40  1  0.837000  0.705400  0.942800  1.0
  H  H41  1  0.174300  0.598100  0.217800  1.0
  H  H42  1  0.825700  0.401900  0.782200  1.0
  H  H43  1  0.205200  0.688400  0.108900  1.0
  H  H44  1  0.794800  0.311600  0.891100  1.0
  H  H45  1  0.119200  0.749700  0.206700  1.0
  H  H46  1  0.880800  0.250300  0.793300  1.0
  H  H47  1  0.569000  0.852400  0.174200  1.0
  H  H48  1  0.431000  0.147600  0.825800  1.0
  H  H49  1  0.383300  0.919900  0.177300  1.0
  H  H50  1  0.616700  0.080100  0.822700  1.0
  H  H51  1  0.468900  0.858100  0.079700  1.0
  H  H52  1  0.531100  0.141900  0.920300  1.0
  Pd  Pd53  1  0.368680  0.189700  0.431360  1.0
  Pd  Pd54  1  0.631320  0.810300  0.568640  1.0
  C  C55  1  0.187900  0.993200  0.424700  1.0
  C  C56  1  0.812100  0.006800  0.575300  1.0
  C  C57  1  0.080400  0.932500  0.392400  1.0
  C  C58  1  0.919600  0.067500  0.607600  1.0
  C  C59  1  0.002600  0.992000  0.306500  1.0
  C  C60  1  0.997400  0.008000  0.693500  1.0
  C  C61  1  0.034300  0.109900  0.251700  1.0
  C  C62  1  0.965700  0.890100  0.748300  1.0
  C  C63  1  0.143900  0.162900  0.290800  1.0
  C  C64  1  0.856100  0.837100  0.709200  1.0
  C  C65  1  0.792000  0.336200  0.145700  1.0
  C  C66  1  0.208000  0.663800  0.854300  1.0
  C  C67  1  0.833900  0.440400  0.175900  1.0
  C  C68  1  0.166100  0.559600  0.824100  1.0
  C  C69  1  0.720200  0.547400  0.193400  1.0
  C  C70  1  0.279800  0.452600  0.806600  1.0
  C  C71  1  0.556500  0.556500  0.181200  1.0
  C  C72  1  0.443500  0.443500  0.818800  1.0
  C  C73  1  0.516000  0.454100  0.149200  1.0
  C  C74  1  0.484000  0.545900  0.850800  1.0
  C  C75  1  0.629500  0.346800  0.132100  1.0
  C  C76  1  0.370500  0.653200  0.867900  1.0
  C  C77  1  0.392200  0.678200  0.361500  1.0
  C  C78  1  0.607800  0.321800  0.638500  1.0
  C  C79  1  0.289300  0.606500  0.428300  1.0
  C  C80  1  0.710700  0.393500  0.571700  1.0
  C  C81  1  0.281100  0.598200  0.534200  1.0
  C  C82  1  0.718900  0.401800  0.465800  1.0
  C  C83  1  0.621600  0.339000  0.428300  1.0
  C  C84  1  0.378400  0.661000  0.571700  1.0
  C  C85  1  0.513000  0.263300  0.592900  1.0
  C  C86  1  0.487000  0.736700  0.407100  1.0
  C  C87  1  0.842600  0.071800  0.089100  1.0
  C  C88  1  0.157400  0.928200  0.910900  1.0
  C  C89  1  0.112000  0.235100  0.032000  1.0
  C  C90  1  0.888000  0.764900  0.968000  1.0
  C  C91  1  0.201400  0.681000  0.183700  1.0
  C  C92  1  0.798600  0.319000  0.816300  1.0
  C  C93  1  0.463100  0.849600  0.154700  1.0
  C  C94  1  0.536900  0.150400  0.845300  1.0
  N  N95  1  0.217800  0.106700  0.375000  1.0
  N  N96  1  0.782200  0.893300  0.625000  1.0
  N  N97  1  0.517900  0.272200  0.490500  1.0
  N  N98  1  0.482100  0.727800  0.509500  1.0
  Cl  Cl99  1  0.582840  0.070910  0.347160  1.0
  Cl  Cl100  1  0.417160  0.929090  0.652840  1.0
  Cl  Cl101  1  0.150600  0.311400  0.509390  1.0
  Cl  Cl102  1  0.849400  0.688600  0.490610  1.0
