# generated using pymatgen
data_H175Pd6C144(N13O20)3
_symmetry_space_group_name_H-M   'P 1'
_cell_length_a   22.15200000
_cell_length_b   22.62500000
_cell_length_c   25.96100000
_cell_angle_alpha   106.74800000
_cell_angle_beta   110.28400000
_cell_angle_gamma   101.93000000
_symmetry_Int_Tables_number   1
_chemical_formula_structural   H175Pd6C144(N13O20)3
_chemical_formula_sum   'H350 Pd12 C288 N78 O120'
_cell_volume   10984.75768562
_cell_formula_units_Z   2
loop_
 _symmetry_equiv_pos_site_id
 _symmetry_equiv_pos_as_xyz
  1  'x, y, z'
loop_
 _atom_site_type_symbol
 _atom_site_label
 _atom_site_symmetry_multiplicity
 _atom_site_fract_x
 _atom_site_fract_y
 _atom_site_fract_z
 _atom_site_occupancy
  H  H1  1  0.473700  0.687300  0.794500  1
  H  H2  1  0.526300  0.312700  0.205500  1
  H  H3  1  0.528900  0.804700  0.837700  1
  H  H4  1  0.471100  0.195300  0.162300  1
  H  H5  1  0.338000  0.818300  0.792000  1
  H  H6  1  0.662000  0.181700  0.208000  1
  H  H7  1  0.291900  0.704400  0.755400  1
  H  H8  1  0.708100  0.295600  0.244600  1
  H  H9  1  0.745900  0.171500  0.980200  1
  H  H10  1  0.254100  0.828500  0.019800  1
  H  H11  1  0.627000  0.115400  0.930600  1
  H  H12  1  0.373000  0.884600  0.069400  1
  H  H13  1  0.663100  0.943800  0.902100  1
  H  H14  1  0.336900  0.056200  0.097900  1
  H  H15  1  0.778900  0.001800  0.952200  1
  H  H16  1  0.221100  0.998200  0.047800  1
  H  H17  1  0.246400  0.020500  0.808700  1
  H  H18  1  0.753600  0.979500  0.191300  1
  H  H19  1  0.312800  0.957700  0.810900  1
  H  H20  1  0.687200  0.042300  0.189100  1
  H  H21  1  0.483100  0.123100  0.897900  1
  H  H22  1  0.516900  0.876900  0.102100  1
  H  H23  1  0.410200  0.186900  0.896900  1
  H  H24  1  0.589800  0.813100  0.103100  1
  H  H25  1  0.461500  0.719000  0.309400  1
  H  H26  1  0.538500  0.281000  0.690600  1
  H  H27  1  0.494000  0.831600  0.342600  1
  H  H28  1  0.506000  0.168400  0.657400  1
  H  H29  1  0.295100  0.813400  0.280400  1
  H  H30  1  0.704900  0.186600  0.719600  1
  H  H31  1  0.267500  0.698100  0.248400  1
  H  H32  1  0.732500  0.301900  0.751600  1
  H  H33  1  0.668400  0.202400  0.478100  1
  H  H34  1  0.331600  0.797600  0.521900  1
  H  H35  1  0.553100  0.135500  0.424100  1
  H  H36  1  0.446900  0.864500  0.575900  1
  H  H37  1  0.611100  0.976900  0.407000  1
  H  H38  1  0.388900  0.023100  0.593000  1
  H  H39  1  0.724200  0.043800  0.460800  1
  H  H40  1  0.275800  0.956200  0.539200  1
  H  H41  1  0.170000  0.997800  0.291300  1
  H  H42  1  0.830000  0.002200  0.708700  1
  H  H43  1  0.252200  0.947500  0.300700  1
  H  H44  1  0.747800  0.052500  0.699300  1
  H  H45  1  0.400200  0.122700  0.399200  1
  H  H46  1  0.599800  0.877300  0.600800  1
  H  H47  1  0.317000  0.172300  0.388000  1
  H  H48  1  0.683000  0.827700  0.612000  1
  H  H49  1  0.354200  0.228500  0.982400  1
  H  H50  1  0.645800  0.771500  0.017600  1
  H  H51  1  0.354000  0.228200  0.070300  1
  H  H52  1  0.646000  0.771800  0.929700  1
  H  H53  1  0.171900  0.081800  0.977400  1
  H  H54  1  0.828100  0.918200  0.022600  1
  H  H55  1  0.175900  0.084700  0.888900  1
  H  H56  1  0.824100  0.915300  0.111100  1
  H  H57  1  0.303600  0.185000  0.126800  1
  H  H58  1  0.696400  0.815000  0.873200  1
  H  H59  1  0.094400  0.061300  0.193400  1
  H  H60  1  0.905600  0.938700  0.806600  1
  H  H61  1  0.107100  0.060800  0.108000  1
  H  H62  1  0.892900  0.939200  0.892000  1
  H  H63  1  0.285300  0.209600  0.210700  1
  H  H64  1  0.714700  0.790400  0.789300  1
  H  H65  1  0.268900  0.209100  0.294500  1
  H  H66  1  0.731100  0.790900  0.705500  1
  H  H67  1  0.163800  0.101400  0.057700  1
  H  H68  1  0.836200  0.898600  0.942300  1
  H  H69  1  0.885200  0.064800  0.095900  1
  H  H70  1  0.114800  0.935200  0.904100  1
  H  H71  1  0.867300  0.063800  0.178400  1
  H  H72  1  0.132700  0.936200  0.821600  1
  H  H73  1  0.798500  0.214000  0.183500  1
  H  H74  1  0.201500  0.786000  0.816500  1
  H  H75  1  0.826000  0.219900  0.103400  1
  H  H76  1  0.174000  0.780100  0.896600  1
  H  H77  1  0.831100  0.098700  0.252500  1
  H  H78  1  0.168900  0.901300  0.747500  1
  H  H79  1  0.790800  0.266800  0.445300  1
  H  H80  1  0.209200  0.733200  0.554700  1
  H  H81  1  0.792900  0.263100  0.356600  1
  H  H82  1  0.207100  0.736900  0.643400  1
  H  H83  1  0.821700  0.089200  0.329800  1
  H  H84  1  0.178300  0.910800  0.670200  1
  H  H85  1  0.820000  0.091200  0.422100  1
  H  H86  1  0.180000  0.908800  0.577900  1
  H  H87  1  0.814700  0.218800  0.272100  1
  H  H88  1  0.185300  0.781200  0.727900  1
  H  H89  1  0.229800  0.586200  0.781000  1
  H  H90  1  0.770200  0.413800  0.219000  1
  H  H91  1  0.224300  0.585800  0.867900  1
  H  H92  1  0.775700  0.414200  0.132100  1
  H  H93  1  0.417400  0.587700  0.935000  1
  H  H94  1  0.582600  0.412300  0.065000  1
  H  H95  1  0.414900  0.573300  0.838800  1
  H  H96  1  0.585100  0.426700  0.161200  1
  H  H97  1  0.269300  0.586300  0.965500  1
  H  H98  1  0.730700  0.413700  0.034500  1
  H  H99  1  0.441400  0.595200  0.200100  1
  H  H100  1  0.558600  0.404800  0.799900  1
  H  H101  1  0.455100  0.609000  0.117600  1
  H  H102  1  0.544900  0.391000  0.882400  1
  H  H103  1  0.257200  0.587500  0.040400  1
  H  H104  1  0.742800  0.412500  0.959600  1
  H  H105  1  0.257100  0.611900  0.135300  1
  H  H106  1  0.742900  0.388100  0.864700  1
  H  H107  1  0.411400  0.596400  0.015600  1
  H  H108  1  0.588600  0.403600  0.984400  1
  H  H109  1  0.268100  0.515800  0.569800  1
  H  H110  1  0.731900  0.484200  0.430200  1
  H  H111  1  0.338400  0.504200  0.598300  1
  H  H112  1  0.661600  0.495800  0.401700  1
  H  H113  1  0.281100  0.433900  0.602500  1
  H  H114  1  0.718900  0.566100  0.397500  1
  H  H115  1  0.223600  0.466300  0.601400  1
  H  H116  1  0.776400  0.533700  0.398600  1
  H  H117  1  0.983500  0.178200  0.944200  1
  H  H118  1  0.016500  0.821800  0.055800  1
  H  H119  1  0.960600  0.237800  0.971300  1
  H  H120  1  0.039400  0.762200  0.028700  1
  H  H121  1  0.042400  0.242700  0.042000  1
  H  H122  1  0.957600  0.757300  0.958000  1
  H  H123  1  0.020600  0.165200  0.021600  1
  H  H124  1  0.979400  0.834800  0.978400  1
  H  H125  1  0.855600  0.175100  0.878800  1
  H  H126  1  0.144400  0.824900  0.121200  1
  H  H127  1  0.854900  0.220300  0.938500  1
  H  H128  1  0.145100  0.779700  0.061500  1
  H  H129  1  0.798300  0.148700  0.898800  1
  H  H130  1  0.201700  0.851300  0.101200  1
  H  H131  1  0.891700  0.085600  0.876400  1
  H  H132  1  0.108300  0.914400  0.123600  1
  H  H133  1  0.837300  0.053900  0.896900  1
  H  H134  1  0.162700  0.946100  0.103100  1
  H  H135  1  0.917000  0.068000  0.934000  1
  H  H136  1  0.083000  0.932000  0.066000  1
  H  H137  1  0.025100  0.300200  0.119500  1
  H  H138  1  0.974900  0.699800  0.880500  1
  H  H139  1  0.952100  0.274000  0.119200  1
  H  H140  1  0.047900  0.726000  0.880800  1
  H  H141  1  0.956500  0.283300  0.061600  1
  H  H142  1  0.043500  0.716700  0.938400  1
  H  H143  1  0.061200  0.215300  0.139700  1
  H  H144  1  0.938800  0.784700  0.860300  1
  H  H145  1  0.012900  0.140600  0.098300  1
  H  H146  1  0.987100  0.859400  0.901700  1
  H  H147  1  0.992500  0.185500  0.144900  1
  H  H148  1  0.007500  0.814500  0.855100  1
  H  H149  1  0.224200  0.232400  0.733500  1
  H  H150  1  0.775800  0.767600  0.266500  1
  H  H151  1  0.166200  0.172600  0.728400  1
  H  H152  1  0.833800  0.827400  0.271600  1
  H  H153  1  0.160100  0.258600  0.787600  1
  H  H154  1  0.839900  0.741400  0.212400  1
  H  H155  1  0.241400  0.293600  0.822000  1
  H  H156  1  0.758600  0.706400  0.178000  1
  H  H157  1  0.273600  0.442800  0.257200  1
  H  H158  1  0.726400  0.557200  0.742800  1
  H  H159  1  0.354900  0.474000  0.286400  1
  H  H160  1  0.645100  0.526000  0.713600  1
  H  H161  1  0.339800  0.522500  0.351400  1
  H  H162  1  0.660200  0.477500  0.648600  1
  H  H163  1  0.263500  0.513700  0.310600  1
  H  H164  1  0.736500  0.486300  0.689400  1
  H  H165  1  0.397900  0.622200  0.410300  1
  H  H166  1  0.602100  0.377800  0.589700  1
  H  H167  1  0.421000  0.669000  0.379600  1
  H  H168  1  0.579000  0.331000  0.620400  1
  H  H169  1  0.426400  0.597000  0.362200  1
  H  H170  1  0.573600  0.403000  0.637800  1
  H  H171  1  0.287700  0.626900  0.382200  1
  H  H172  1  0.712300  0.373100  0.617800  1
  H  H173  1  0.239600  0.609100  0.313600  1
  H  H174  1  0.760400  0.390900  0.686400  1
  H  H175  1  0.302600  0.676900  0.351700  1
  H  H176  1  0.697400  0.323100  0.648300  1
  H  H177  1  0.341000  0.428200  0.182200  1
  H  H178  1  0.659000  0.571800  0.817800  1
  H  H179  1  0.401300  0.495900  0.228800  1
  H  H180  1  0.598700  0.504100  0.771200  1
  H  H181  1  0.353600  0.489600  0.163500  1
  H  H182  1  0.646400  0.510400  0.836500  1
  H  H183  1  0.225700  0.422400  0.159300  1
  H  H184  1  0.774300  0.577600  0.840700  1
  H  H185  1  0.236400  0.484400  0.141300  1
  H  H186  1  0.763600  0.515600  0.858700  1
  H  H187  1  0.209600  0.485100  0.191300  1
  H  H188  1  0.790400  0.514900  0.808700  1
  H  H189  1  0.970300  0.282400  0.662200  1
  H  H190  1  0.029700  0.717600  0.337800  1
  H  H191  1  0.907600  0.309100  0.643200  1
  H  H192  1  0.092400  0.690900  0.356800  1
  H  H193  1  0.882800  0.238000  0.688000  1
  H  H194  1  0.117200  0.762000  0.312000  1
  H  H195  1  0.897200  0.181800  0.644900  1
  H  H196  1  0.102800  0.818200  0.355100  1
  H  H197  1  0.980200  0.317200  0.578300  1
  H  H198  1  0.019800  0.682800  0.421700  1
  H  H199  1  0.905700  0.323300  0.559100  1
  H  H200  1  0.094300  0.676700  0.440900  1
  H  H201  1  0.922200  0.274900  0.511500  1
  H  H202  1  0.077800  0.725100  0.488500  1
  H  H203  1  0.001000  0.234100  0.588600  1
  H  H204  1  0.999000  0.765900  0.411400  1
  H  H205  1  0.944100  0.186200  0.522700  1
  H  H206  1  0.055900  0.813800  0.477300  1
  H  H207  1  0.944400  0.170000  0.578800  1
  H  H208  1  0.055600  0.830000  0.421200  1
  H  H209  1  0.769400  0.246600  0.656600  1
  H  H210  1  0.230600  0.753400  0.343400  1
  H  H211  1  0.723600  0.226700  0.587100  1
  H  H212  1  0.276400  0.773300  0.412900  1
  H  H213  1  0.796200  0.284600  0.621200  1
  H  H214  1  0.203800  0.715400  0.378800  1
  H  H215  1  0.771300  0.141000  0.644700  1
  H  H216  1  0.228700  0.859000  0.355300  1
  H  H217  1  0.788200  0.098600  0.593900  1
  H  H218  1  0.211800  0.901400  0.406100  1
  H  H219  1  0.719700  0.116700  0.575900  1
  H  H220  1  0.280300  0.883300  0.424100  1
  H  H221  1  0.068100  0.146000  0.402200  1
  H  H222  1  0.931900  0.854000  0.597800  1
  H  H223  1  0.129500  0.213100  0.445300  1
  H  H224  1  0.870500  0.786900  0.554700  1
  H  H225  1  0.102500  0.252100  0.389600  1
  H  H226  1  0.897500  0.747900  0.610400  1
  H  H227  1  0.034800  0.189100  0.351800  1
  H  H228  1  0.965200  0.810900  0.648200  1
  H  H229  1  0.012900  0.186200  0.257400  1
  H  H230  1  0.987100  0.813800  0.742600  1
  H  H231  1  0.016600  0.116900  0.259100  1
  H  H232  1  0.983400  0.883100  0.740900  1
  H  H233  1  0.053300  0.150000  0.226000  1
  H  H234  1  0.946700  0.850000  0.774000  1
  H  H235  1  0.105600  0.277900  0.312700  1
  H  H236  1  0.894400  0.722100  0.687300  1
  H  H237  1  0.154700  0.248100  0.288600  1
  H  H238  1  0.845300  0.751900  0.711400  1
  H  H239  1  0.175100  0.276600  0.358700  1
  H  H240  1  0.824900  0.723400  0.641300  1
  H  H241  1  0.121700  0.080500  0.436400  1
  H  H242  1  0.878300  0.919500  0.563600  1
  H  H243  1  0.153700  0.049400  0.393200  1
  H  H244  1  0.846300  0.950600  0.606800  1
  H  H245  1  0.080000  0.056100  0.365600  1
  H  H246  1  0.920000  0.943900  0.634400  1
  H  H247  1  0.222700  0.184500  0.494300  1
  H  H248  1  0.777300  0.815500  0.505700  1
  H  H249  1  0.244500  0.227100  0.460000  1
  H  H250  1  0.755500  0.772900  0.540000  1
  H  H251  1  0.261500  0.160900  0.454900  1
  H  H252  1  0.738500  0.839100  0.545100  1
  H  H253  1  0.199900  0.311100  0.903700  1
  H  H254  1  0.800100  0.688900  0.096300  1
  H  H255  1  0.276800  0.313400  0.917800  1
  H  H256  1  0.723200  0.686600  0.082200  1
  H  H257  1  0.232800  0.271000  0.940500  1
  H  H258  1  0.767200  0.729000  0.059500  1
  H  H259  1  0.109800  0.222900  0.842100  1
  H  H260  1  0.890200  0.777100  0.157900  1
  H  H261  1  0.138000  0.175700  0.872200  1
  H  H262  1  0.862000  0.824300  0.127800  1
  H  H263  1  0.112300  0.155800  0.801900  1
  H  H264  1  0.887700  0.844200  0.198100  1
  H  H265  1  0.323500  0.216300  0.745000  1
  H  H266  1  0.676500  0.783700  0.255000  1
  H  H267  1  0.359700  0.191800  0.795800  1
  H  H268  1  0.640300  0.808200  0.204200  1
  H  H269  1  0.342900  0.258300  0.813300  1
  H  H270  1  0.657100  0.741700  0.186700  1
  H  H271  1  0.257200  0.110000  0.682400  1
  H  H272  1  0.742800  0.890000  0.317600  1
  H  H273  1  0.216300  0.064800  0.705200  1
  H  H274  1  0.783700  0.935200  0.294800  1
  H  H275  1  0.298200  0.089300  0.734500  1
  H  H276  1  0.701800  0.910700  0.265500  1
  H  H277  1  0.401600  0.620100  0.615900  1
  H  H278  1  0.598400  0.379900  0.384100  1
  H  H279  1  0.436300  0.599200  0.669800  1
  H  H280  1  0.563700  0.400800  0.330200  1
  H  H281  1  0.422100  0.667200  0.683100  1
  H  H282  1  0.577900  0.332800  0.316900  1
  H  H283  1  0.282000  0.615300  0.585500  1
  H  H284  1  0.718000  0.384700  0.414500  1
  H  H285  1  0.295500  0.659900  0.651500  1
  H  H286  1  0.704500  0.340100  0.348500  1
  H  H287  1  0.238200  0.588300  0.616800  1
  H  H288  1  0.761800  0.411700  0.383200  1
  H  H289  1  0.311400  0.407900  0.679700  1
  H  H290  1  0.688600  0.592100  0.320300  1
  H  H291  1  0.350100  0.465900  0.744800  1
  H  H292  1  0.649900  0.534100  0.255200  1
  H  H293  1  0.375400  0.468700  0.694500  1
  H  H294  1  0.624600  0.531300  0.305500  1
  H  H295  1  0.202300  0.408800  0.667400  1
  H  H296  1  0.797700  0.591200  0.332600  1
  H  H297  1  0.187000  0.475700  0.671600  1
  H  H298  1  0.813000  0.524300  0.328400  1
  H  H299  1  0.230200  0.467300  0.731100  1
  H  H300  1  0.769800  0.532700  0.268900  1
  H  H301  1  0.647300  0.119500  0.804700  1
  H  H302  1  0.352700  0.880500  0.195300  1
  H  H303  1  0.507200  0.802900  0.701200  1
  H  H304  1  0.492800  0.197100  0.298800  1
  H  H305  1  0.623000  0.847500  0.732800  1
  H  H306  1  0.377000  0.152500  0.267200  1
  H  H307  1  0.728800  0.941500  0.791200  1
  H  H308  1  0.271200  0.058500  0.208800  1
  H  H309  1  0.720700  0.054000  0.811600  1
  H  H310  1  0.279300  0.946000  0.188400  1
  H  H311  1  0.396100  0.807900  0.670700  1
  H  H312  1  0.603900  0.192100  0.329300  1
  H  H313  1  0.541000  0.126800  0.788500  1
  H  H314  1  0.459000  0.873200  0.211500  1
  H  H315  1  0.421800  0.082800  0.741400  1
  H  H316  1  0.578200  0.917200  0.258600  1
  H  H317  1  0.319000  0.987900  0.688600  1
  H  H318  1  0.681000  0.012100  0.311400  1
  H  H319  1  0.327800  0.876400  0.675300  1
  H  H320  1  0.672200  0.123600  0.324700  1
  H  H321  1  0.231200  0.588200  0.130500  1
  H  H322  1  0.768800  0.411800  0.869500  1
  H  H323  1  0.226900  0.599700  0.045100  1
  H  H324  1  0.773100  0.400300  0.954900  1
  H  H325  1  0.418400  0.598900  0.090400  1
  H  H326  1  0.581600  0.401100  0.909600  1
  H  H327  1  0.426400  0.603800  0.185500  1
  H  H328  1  0.573600  0.396200  0.814500  1
  H  H329  1  0.272100  0.603400  0.974400  1
  H  H330  1  0.727900  0.396600  0.025600  1
  H  H331  1  0.440400  0.581500  0.839600  1
  H  H332  1  0.559600  0.418500  0.160400  1
  H  H333  1  0.438700  0.568500  0.925200  1
  H  H334  1  0.561300  0.431500  0.074800  1
  H  H335  1  0.254600  0.585100  0.879800  1
  H  H336  1  0.745400  0.414900  0.120200  1
  H  H337  1  0.254000  0.591700  0.790700  1
  H  H338  1  0.746000  0.408300  0.209300  1
  H  H339  1  0.401100  0.581700  0.000300  1
  H  H340  1  0.598900  0.418300  0.999700  1
  H  H341  1  0.646800  0.135800  0.066900  1.0
  H  H342  1  0.353200  0.864200  0.933100  1.0
  H  H343  1  0.556200  0.168500  0.048300  1.0
  H  H344  1  0.443800  0.831500  0.951700  1.0
  H  H345  1  0.565000  0.854500  0.982400  1.0
  H  H346  1  0.435000  0.145500  0.017600  1.0
  H  H347  1  0.677300  0.929000  0.028400  1.0
  H  H348  1  0.322700  0.071000  0.971600  1.0
  H  H349  1  0.697500  0.047300  0.059900  1.0
  H  H350  1  0.302500  0.952700  0.940100  1.0
  Pd  Pd351  1  0.336200  0.587400  0.729070  1
  Pd  Pd352  1  0.663800  0.412600  0.270930  1
  Pd  Pd353  1  0.874200  0.146100  0.021290  1
  Pd  Pd354  1  0.125800  0.853900  0.978710  1
  Pd  Pd355  1  0.262920  0.167150  0.851050  1
  Pd  Pd356  1  0.737080  0.832850  0.148950  1
  Pd  Pd357  1  0.335110  0.600000  0.248230  1
  Pd  Pd358  1  0.664890  0.400000  0.751770  1
  Pd  Pd359  1  0.806350  0.185970  0.522080  1
  Pd  Pd360  1  0.193650  0.814030  0.477920  1
  Pd  Pd361  1  0.168440  0.138790  0.326010  1
  Pd  Pd362  1  0.831560  0.861210  0.673990  1
  C  C363  1  0.446300  0.714600  0.793900  1
  C  C364  1  0.553700  0.285400  0.206100  1
  C  C365  1  0.480400  0.785300  0.820000  1
  C  C366  1  0.519600  0.214700  0.180000  1
  C  C367  1  0.437300  0.823900  0.817600  1
  C  C368  1  0.562700  0.176100  0.182400  1
  C  C369  1  0.367400  0.793000  0.793300  1
  C  C370  1  0.632600  0.207000  0.206700  1
  C  C371  1  0.340000  0.725000  0.770700  1
  C  C372  1  0.660000  0.275000  0.229300  1
  C  C373  1  0.729000  0.124900  0.964200  1
  C  C374  1  0.271000  0.875100  0.035800  1
  C  C375  1  0.657700  0.091600  0.934900  1
  C  C376  1  0.342300  0.908400  0.065100  1
  C  C377  1  0.633100  0.023900  0.912600  1
  C  C378  1  0.366900  0.976100  0.087400  1
  C  C379  1  0.679100  0.990400  0.918300  1
  C  C380  1  0.320900  0.009600  0.081700  1
  C  C381  1  0.747600  0.025100  0.947400  1
  C  C382  1  0.252400  0.974900  0.052600  1
  C  C383  1  0.294700  0.041100  0.826600  1
  C  C384  1  0.705300  0.958900  0.173400  1
  C  C385  1  0.333400  0.004200  0.828100  1
  C  C386  1  0.666600  0.995800  0.171900  1
  C  C387  1  0.406800  0.033700  0.855700  1
  C  C388  1  0.593200  0.966300  0.144300  1
  C  C389  1  0.434800  0.102000  0.880200  1
  C  C390  1  0.565200  0.898000  0.119800  1
  C  C391  1  0.391200  0.140300  0.878500  1
  C  C392  1  0.608800  0.859700  0.121500  1
  C  C393  1  0.466400  0.894700  0.840500  1
  C  C394  1  0.533600  0.105300  0.159500  1
  C  C395  1  0.558300  0.989600  0.884600  1
  C  C396  1  0.441700  0.010400  0.115400  1
  C  C397  1  0.451300  0.993100  0.857500  1
  C  C398  1  0.548700  0.006900  0.142500  1
  C  C399  1  0.427200  0.738800  0.304200  1
  C  C400  1  0.572800  0.261200  0.695800  1
  C  C401  1  0.446800  0.805500  0.324000  1
  C  C402  1  0.553200  0.194500  0.676000  1
  C  C403  1  0.396600  0.834700  0.316400  1
  C  C404  1  0.603400  0.165300  0.683600  1
  C  C405  1  0.330600  0.795100  0.287700  1
  C  C406  1  0.669400  0.204900  0.712300  1
  C  C407  1  0.314100  0.726000  0.268400  1
  C  C408  1  0.685900  0.274000  0.731600  1
  C  C409  1  0.656100  0.156000  0.463900  1
  C  C410  1  0.343900  0.844000  0.536100  1
  C  C411  1  0.587900  0.116400  0.432300  1
  C  C412  1  0.412100  0.883600  0.567700  1
  C  C413  1  0.570900  0.050300  0.413200  1
  C  C414  1  0.429100  0.949700  0.586800  1
  C  C415  1  0.622400  0.023300  0.422500  1
  C  C416  1  0.377600  0.976700  0.577500  1
  C  C417  1  0.689400  0.063000  0.453900  1
  C  C418  1  0.310600  0.937000  0.546100  1
  C  C419  1  0.217100  0.023700  0.313400  1
  C  C420  1  0.782900  0.976300  0.686600  1
  C  C421  1  0.266200  0.993900  0.319300  1
  C  C422  1  0.733800  0.006100  0.680700  1
  C  C423  1  0.332300  0.028500  0.350100  1
  C  C424  1  0.667700  0.971500  0.649900  1
  C  C425  1  0.353000  0.096700  0.376900  1
  C  C426  1  0.647000  0.903300  0.623100  1
  C  C427  1  0.303100  0.125800  0.370000  1
  C  C428  1  0.696900  0.874200  0.630000  1
  C  C429  1  0.415500  0.906200  0.338700  1
  C  C430  1  0.584500  0.093800  0.661300  1
  C  C431  1  0.496500  0.007300  0.383000  1
  C  C432  1  0.503500  0.992700  0.617000  1
  C  C433  1  0.386100  0.998000  0.353500  1
  C  C434  1  0.613900  0.002000  0.646500  1
  C  C435  1  0.315700  0.199300  0.981100  1
  C  C436  1  0.684300  0.800700  0.018900  1
  C  C437  1  0.316000  0.199100  0.033600  1
  C  C438  1  0.684000  0.800900  0.966400  1
  C  C439  1  0.262500  0.157900  0.034100  1
  C  C440  1  0.737500  0.842100  0.965900  1
  C  C441  1  0.209200  0.113100  0.979000  1
  C  C442  1  0.790800  0.886900  0.021000  1
  C  C443  1  0.211600  0.115300  0.926300  1
  C  C444  1  0.788400  0.884700  0.073700  1
  C  C445  1  0.262600  0.160700  0.091000  1
  C  C446  1  0.737400  0.839300  0.909000  1
  C  C447  1  0.133600  0.092100  0.197000  1
  C  C448  1  0.866400  0.907900  0.803000  1
  C  C449  1  0.141800  0.091100  0.146100  1
  C  C450  1  0.858200  0.908900  0.853900  1
  C  C451  1  0.198600  0.132800  0.149600  1
  C  C452  1  0.801400  0.867200  0.850400  1
  C  C453  1  0.245900  0.178300  0.206100  1
  C  C454  1  0.754100  0.821700  0.793900  1
  C  C455  1  0.235900  0.178400  0.255900  1
  C  C456  1  0.764100  0.821600  0.744100  1
  C  C457  1  0.203200  0.128100  0.094100  1
  C  C458  1  0.796800  0.871900  0.905900  1
  C  C459  1  0.869300  0.096700  0.114700  1
  C  C460  1  0.130700  0.903300  0.885300  1
  C  C461  1  0.857900  0.095900  0.163000  1
  C  C462  1  0.142100  0.904100  0.837000  1
  C  C463  1  0.832500  0.141600  0.190600  1
  C  C464  1  0.167500  0.858400  0.809400  1
  C  C465  1  0.818500  0.184500  0.167600  1
  C  C466  1  0.181500  0.815500  0.832400  1
  C  C467  1  0.833600  0.187000  0.118300  1
  C  C468  1  0.166400  0.813000  0.881700  1
  C  C469  1  0.827300  0.136500  0.244500  1
  C  C470  1  0.172700  0.863500  0.755500  1
  C  C471  1  0.799000  0.231200  0.422100  1
  C  C472  1  0.201000  0.768800  0.577900  1
  C  C473  1  0.800100  0.229400  0.370400  1
  C  C474  1  0.199900  0.770600  0.629600  1
  C  C475  1  0.812200  0.176000  0.337400  1
  C  C476  1  0.187800  0.824000  0.662600  1
  C  C477  1  0.817300  0.126400  0.354900  1
  C  C478  1  0.182700  0.873600  0.645100  1
  C  C479  1  0.816400  0.126900  0.410300  1
  C  C480  1  0.183600  0.873100  0.589700  1
  C  C481  1  0.818100  0.180900  0.280200  1
  C  C482  1  0.181900  0.819100  0.719800  1
  C  C483  1  0.268300  0.586000  0.812200  1
  C  C484  1  0.731700  0.414000  0.187800  1
  C  C485  1  0.265000  0.584900  0.863600  1
  C  C486  1  0.735000  0.415100  0.136400  1
  C  C487  1  0.317100  0.582500  0.908300  1
  C  C488  1  0.682900  0.417500  0.091700  1
  C  C489  1  0.377600  0.584200  0.902800  1
  C  C490  1  0.622400  0.415800  0.097200  1
  C  C491  1  0.378000  0.581000  0.847100  1
  C  C492  1  0.622000  0.419000  0.152900  1
  C  C493  1  0.311800  0.587700  0.963900  1
  C  C494  1  0.688200  0.412300  0.036100  1
  C  C495  1  0.405400  0.599000  0.169700  1
  C  C496  1  0.594600  0.401000  0.830300  1
  C  C497  1  0.411900  0.603600  0.118500  1
  C  C498  1  0.588100  0.396400  0.881500  1
  C  C499  1  0.357500  0.600200  0.069700  1
  C  C500  1  0.642500  0.399800  0.930300  1
  C  C501  1  0.297700  0.596000  0.074400  1
  C  C502  1  0.702300  0.404000  0.925600  1
  C  C503  1  0.295200  0.604000  0.129400  1
  C  C504  1  0.704800  0.396000  0.870600  1
  C  C505  1  0.368300  0.595000  0.015700  1
  C  C506  1  0.631700  0.405000  0.984300  1
  C  C507  1  0.302400  0.517800  0.607500  1
  C  C508  1  0.697600  0.482200  0.392500  1
  C  C509  1  0.273400  0.474900  0.620700  1
  C  C510  1  0.726600  0.525100  0.379300  1
  C  C511  1  0.962900  0.194500  0.971200  1
  C  C512  1  0.037100  0.805500  0.028800  1
  C  C513  1  0.002700  0.202100  0.025600  1
  C  C514  1  0.997300  0.797900  0.974400  1
  C  C515  1  0.846200  0.175100  0.913000  1
  C  C516  1  0.153800  0.824900  0.087000  1
  C  C517  1  0.883700  0.083800  0.910800  1
  C  C518  1  0.116300  0.916200  0.089200  1
  C  C519  1  0.977600  0.270700  0.094800  1
  C  C520  1  0.022400  0.729300  0.905200  1
  C  C521  1  0.013700  0.185200  0.117500  1
  C  C522  1  0.986300  0.814800  0.882500  1
  C  C523  1  0.211100  0.207500  0.756000  1
  C  C524  1  0.788900  0.792500  0.244000  1
  C  C525  1  0.203900  0.250900  0.804000  1
  C  C526  1  0.796100  0.749100  0.196000  1
  C  C527  1  0.312100  0.483600  0.270900  1
  C  C528  1  0.687900  0.516400  0.729100  1
  C  C529  1  0.311000  0.526900  0.314800  1
  C  C530  1  0.689000  0.473100  0.685200  1
  C  C531  1  0.399600  0.623500  0.373400  1
  C  C532  1  0.600400  0.376500  0.626600  1
  C  C533  1  0.286600  0.630500  0.345200  1
  C  C534  1  0.713400  0.369500  0.654800  1
  C  C535  1  0.354800  0.476200  0.196500  1
  C  C536  1  0.645200  0.523800  0.803500  1
  C  C537  1  0.239700  0.470400  0.174300  1
  C  C538  1  0.760300  0.529600  0.825700  1
  C  C539  1  0.921200  0.269500  0.635300  1
  C  C540  1  0.078800  0.730500  0.364700  1
  C  C541  1  0.879100  0.218600  0.647200  1
  C  C542  1  0.120900  0.781400  0.352800  1
  C  C543  1  0.931100  0.293200  0.553600  1
  C  C544  1  0.068900  0.706800  0.446400  1
  C  C545  1  0.953100  0.205200  0.564800  1
  C  C546  1  0.046900  0.794800  0.435200  1
  C  C547  1  0.770500  0.242000  0.618300  1
  C  C548  1  0.229500  0.758000  0.381700  1
  C  C549  1  0.768000  0.132300  0.604400  1
  C  C550  1  0.232000  0.867700  0.395600  1
  C  C551  1  0.108500  0.177700  0.405000  1
  C  C552  1  0.891500  0.822300  0.595000  1
  C  C553  1  0.085300  0.204000  0.367100  1
  C  C554  1  0.914700  0.796000  0.632900  1
  C  C555  1  0.041600  0.158600  0.260000  1
  C  C556  1  0.958400  0.841400  0.740000  1
  C  C557  1  0.137000  0.253000  0.318800  1
  C  C558  1  0.863000  0.747000  0.681200  1
  C  C559  1  0.125600  0.076600  0.399200  1
  C  C560  1  0.874400  0.923400  0.600800  1
  C  C561  1  0.228200  0.182500  0.458100  1
  C  C562  1  0.771800  0.817500  0.541900  1
  C  C563  1  0.230900  0.285700  0.908200  1
  C  C564  1  0.769100  0.714300  0.091800  1
  C  C565  1  0.135500  0.192500  0.841000  1
  C  C566  1  0.864500  0.807500  0.159000  1
  C  C567  1  0.327000  0.213800  0.782900  1
  C  C568  1  0.673000  0.786200  0.217100  1
  C  C569  1  0.257800  0.101100  0.717300  1
  C  C570  1  0.742200  0.898900  0.282700  1
  C  C571  1  0.404900  0.621400  0.654900  1
  C  C572  1  0.595100  0.378600  0.345100  1
  C  C573  1  0.283300  0.614900  0.623600  1
  C  C574  1  0.716700  0.385100  0.376400  1
  C  C575  1  0.335300  0.455300  0.702000  1
  C  C576  1  0.664700  0.544700  0.298000  1
  C  C577  1  0.220600  0.456600  0.689100  1
  C  C578  1  0.779400  0.543400  0.310900  1
  C  C579  1  0.608600  0.081000  0.788900  1
  C  C580  1  0.391400  0.919000  0.211100  1
  C  C581  1  0.615400  0.013900  0.777200  1
  C  C582  1  0.384600  0.986100  0.222800  1
  C  C583  1  0.558300  0.963600  0.750800  1
  C  C584  1  0.441700  0.036400  0.249200  1
  C  C585  1  0.561900  0.896400  0.734600  1
  C  C586  1  0.438100  0.103600  0.265400  1
  C  C587  1  0.502800  0.845100  0.708600  1
  C  C588  1  0.497200  0.154900  0.291400  1
  C  C589  1  0.620600  0.890400  0.746000  1
  C  C590  1  0.379400  0.109600  0.254000  1
  C  C591  1  0.685800  0.947800  0.779300  1
  C  C592  1  0.314200  0.052200  0.220700  1
  C  C593  1  0.682000  0.015000  0.793500  1
  C  C594  1  0.318000  0.985000  0.206500  1
  C  C595  1  0.435600  0.846300  0.691200  1
  C  C596  1  0.564400  0.153700  0.308800  1
  C  C597  1  0.432800  0.915900  0.708600  1
  C  C598  1  0.567200  0.084100  0.291400  1
  C  C599  1  0.492400  0.967300  0.735500  1
  C  C600  1  0.507600  0.032700  0.264500  1
  C  C601  1  0.483900  0.033500  0.747300  1
  C  C602  1  0.516100  0.966500  0.252700  1
  C  C603  1  0.543900  0.084100  0.775900  1
  C  C604  1  0.456100  0.915900  0.224100  1
  C  C605  1  0.425000  0.040100  0.732500  1
  C  C606  1  0.575000  0.959900  0.267500  1
  C  C607  1  0.362400  0.982500  0.702000  1
  C  C608  1  0.637600  0.017500  0.298000  1
  C  C609  1  0.366400  0.915100  0.691600  1
  C  C610  1  0.633600  0.084900  0.308400  1
  C  C611  1  0.271600  0.595000  0.124500  1
  C  C612  1  0.728400  0.405000  0.875500  1
  C  C613  1  0.267900  0.598100  0.072100  1
  C  C614  1  0.732100  0.401900  0.927900  1
  C  C615  1  0.320900  0.599000  0.057300  1
  C  C616  1  0.679100  0.401000  0.942700  1
  C  C617  1  0.380400  0.599800  0.099300  1
  C  C618  1  0.619600  0.400200  0.900700  1
  C  C619  1  0.385000  0.601900  0.156300  1
  C  C620  1  0.615000  0.398100  0.843700  1
  C  C621  1  0.311900  0.597500  0.998600  1
  C  C622  1  0.688100  0.402500  0.001400  1
  C  C623  1  0.401400  0.581000  0.847100  1
  C  C624  1  0.598600  0.419000  0.152900  1
  C  C625  1  0.401900  0.577200  0.900000  1
  C  C626  1  0.598100  0.422800  0.100000  1
  C  C627  1  0.350600  0.585300  0.916600  1
  C  C628  1  0.649400  0.414700  0.083400  1
  C  C629  1  0.294300  0.586000  0.873200  1
  C  C630  1  0.705700  0.414000  0.126800  1
  C  C631  1  0.292800  0.588000  0.818800  1
  C  C632  1  0.707200  0.412000  0.181200  1
  C  C633  1  0.361000  0.587300  0.976300  1
  C  C634  1  0.639000  0.412700  0.023700  1
  C  C635  1  0.602200  0.103900  0.048100  1.0
  C  C636  1  0.397800  0.896100  0.951900  1.0
  C  C637  1  0.593800  0.032400  0.030000  1.0
  C  C638  1  0.406200  0.967600  0.970000  1.0
  C  C639  1  0.529200  0.989600  0.005000  1.0
  C  C640  1  0.470800  0.010400  0.995000  1.0
  C  C641  1  0.518400  0.918600  0.985700  1.0
  C  C642  1  0.481600  0.081400  0.014300  1.0
  C  C643  1  0.548500  0.122900  0.038200  1.0
  C  C644  1  0.451500  0.877100  0.961800  1.0
  C  C645  1  0.572000  0.900100  0.994800  1.0
  C  C646  1  0.428000  0.099900  0.005200  1.0
  C  C647  1  0.640000  0.945000  0.022300  1.0
  C  C648  1  0.360000  0.055000  0.977700  1.0
  C  C649  1  0.652800  0.015600  0.041400  1.0
  C  C650  1  0.347200  0.984400  0.958600  1.0
  N  N651  1  0.380600  0.687000  0.770000  1
  N  N652  1  0.619400  0.313000  0.230000  1
  N  N653  1  0.773000  0.092700  0.970000  1
  N  N654  1  0.227000  0.907300  0.030000  1
  N  N655  1  0.322300  0.109600  0.850400  1
  N  N656  1  0.677700  0.890400  0.149600  1
  N  N657  1  0.534700  0.922800  0.864800  1
  N  N658  1  0.465300  0.077200  0.135200  1
  N  N659  1  0.519800  0.027200  0.883000  1
  N  N660  1  0.480200  0.972800  0.117000  1
  N  N661  1  0.423200  0.929100  0.837000  1
  N  N662  1  0.576800  0.070900  0.163000  1
  N  N663  1  0.362600  0.700800  0.278200  1
  N  N664  1  0.637400  0.299200  0.721800  1
  N  N665  1  0.706800  0.127300  0.474900  1
  N  N666  1  0.293200  0.872700  0.525100  1
  N  N667  1  0.236700  0.091600  0.339600  1
  N  N668  1  0.763300  0.908400  0.660400  1
  N  N669  1  0.481900  0.942100  0.364100  1
  N  N670  1  0.518100  0.057900  0.635900  1
  N  N671  1  0.450900  0.037400  0.378100  1
  N  N672  1  0.549100  0.962600  0.621900  1
  N  N673  1  0.364100  0.931300  0.332000  1
  N  N674  1  0.635900  0.068700  0.668000  1
  N  N675  1  0.263800  0.160300  0.927800  1
  N  N676  1  0.736200  0.839700  0.072200  1
  N  N677  1  0.179100  0.134800  0.249700  1
  N  N678  1  0.820900  0.865200  0.750300  1
  N  N679  1  0.857400  0.144400  0.094100  1
  N  N680  1  0.142600  0.855600  0.905900  1
  N  N681  1  0.810200  0.179500  0.443800  1
  N  N682  1  0.189800  0.820500  0.556200  1
  N  N683  1  0.325300  0.587700  0.806200  1
  N  N684  1  0.674700  0.412300  0.193800  1
  N  N685  1  0.347800  0.601000  0.174000  1
  N  N686  1  0.652200  0.399000  0.826000  1
  N  N687  1  0.890900  0.147300  0.947200  1
  N  N688  1  0.109100  0.852700  0.052800  1
  N  N689  1  0.976100  0.206100  0.072400  1
  N  N690  1  0.023900  0.793900  0.927600  1
  N  N691  1  0.332000  0.597700  0.327000  1
  N  N692  1  0.668000  0.402300  0.673000  1
  N  N693  1  0.307700  0.498100  0.218600  1
  N  N694  1  0.692300  0.501900  0.781400  1
  N  N695  1  0.804800  0.192600  0.602600  1
  N  N696  1  0.195200  0.807400  0.397400  1
  N  N697  1  0.909800  0.241700  0.570800  1
  N  N698  1  0.090200  0.758300  0.429200  1
  N  N699  1  0.158400  0.143000  0.402800  1
  N  N700  1  0.841600  0.857000  0.597200  1
  N  N701  1  0.101900  0.191000  0.313500  1
  N  N702  1  0.898100  0.809000  0.686500  1
  N  N703  1  0.205200  0.227300  0.851200  1
  N  N704  1  0.794800  0.772700  0.148800  1
  N  N705  1  0.261300  0.177400  0.775200  1
  N  N706  1  0.738700  0.822600  0.224800  1
  N  N707  1  0.334100  0.586900  0.648500  1
  N  N708  1  0.665900  0.413100  0.351500  1
  N  N709  1  0.293000  0.487300  0.684200  1
  N  N710  1  0.707000  0.512700  0.315800  1
  N  N711  1  0.721500  0.337800  0.503700  1
  N  N712  1  0.278500  0.662200  0.496300  1
  N  N713  1  0.946800  0.995500  0.037600  1
  N  N714  1  0.053200  0.004500  0.962400  1
  N  N715  1  0.094200  0.002900  0.737600  1
  N  N716  1  0.905800  0.997100  0.262400  1
  N  N717  1  0.562600  0.154000  0.547700  1
  N  N718  1  0.437400  0.846000  0.452300  1
  N  N719  1  0.206100  0.307200  0.187600  1
  N  N720  1  0.793900  0.692800  0.812400  1
  N  N721  1  0.319000  0.734000  0.906000  1
  N  N722  1  0.681000  0.266000  0.094000  1
  N  N723  1  0.329800  0.601000  0.168200  1
  N  N724  1  0.670200  0.399000  0.831800  1
  N  N725  1  0.347000  0.585000  0.807600  1
  N  N726  1  0.653000  0.415000  0.192400  1
  N  N727  1  0.231400  0.297200  0.121300  1
  N  N728  1  0.768600  0.702800  0.878700  1
  O  O729  1  0.766500  0.323300  0.526400  1
  O  O730  1  0.233500  0.676700  0.473600  1
  O  O731  1  0.706500  0.389800  0.526000  1
  O  O732  1  0.293500  0.610200  0.474000  1
  O  O733  1  0.667500  0.298800  0.459300  1
  O  O734  1  0.332500  0.701200  0.540700  1
  O  O735  1  0.906900  0.018800  0.009500  1
  O  O736  1  0.093100  0.981200  0.990500  1
  O  O737  1  0.954100  0.944300  0.009100  1
  O  O738  1  0.045900  0.055700  0.990900  1
  O  O739  1  0.976000  0.021100  0.092000  1
  O  O740  1  0.024000  0.978900  0.908000  1
  O  O741  1  0.119900  0.980200  0.705800  1
  O  O742  1  0.880100  0.019800  0.294200  1
  O  O743  1  0.128500  0.032300  0.785400  1
  O  O744  1  0.871500  0.967700  0.214600  1
  O  O745  1  0.035000  0.005500  0.707100  1
  O  O746  1  0.965000  0.994500  0.292900  1
  O  O747  1  0.599600  0.116800  0.556600  1
  O  O748  1  0.400400  0.883200  0.443400  1
  O  O749  1  0.596200  0.209500  0.561500  1
  O  O750  1  0.403800  0.790500  0.438500  1
  O  O751  1  0.497700  0.131900  0.523900  1
  O  O752  1  0.502300  0.868100  0.476100  1
  O  O753  1  0.190200  0.308300  0.230600  1
  O  O754  1  0.809800  0.691700  0.769400  1
  O  O755  1  0.261900  0.313200  0.188800  1
  O  O756  1  0.738100  0.686800  0.811200  1
  O  O757  1  0.156300  0.300100  0.139300  1
  O  O758  1  0.843700  0.699900  0.860700  1
  O  O759  1  0.276000  0.730000  0.865300  1
  O  O760  1  0.724000  0.270000  0.134700  1
  O  O761  1  0.365800  0.725300  0.896100  1
  O  O762  1  0.634200  0.274700  0.103900  1
  O  O763  1  0.330500  0.750900  0.970100  1
  O  O764  1  0.669500  0.249100  0.029900  1
  O  O765  1  0.483300  0.470200  0.555800  1
  O  O766  1  0.516700  0.529800  0.444200  1
  O  O767  1  0.183800  0.593100  0.687500  1
  O  O768  1  0.816200  0.406900  0.312500  1
  O  O769  1  0.586200  0.696000  0.069100  1
  O  O770  1  0.413800  0.304000  0.930900  1
  O  O771  1  0.618500  0.842600  0.459400  1
  O  O772  1  0.381500  0.157400  0.540600  1
  O  O773  1  0.487100  0.283600  0.067000  1
  O  O774  1  0.512900  0.716400  0.933000  1
  O  O775  1  0.179000  0.464100  0.365900  1
  O  O776  1  0.821000  0.535900  0.634100  1
  O  O777  1  0.419800  0.549600  0.493600  1
  O  O778  1  0.580200  0.450400  0.506400  1
  O  O779  1  0.099100  0.370000  0.250400  1
  O  O780  1  0.900900  0.630000  0.749600  1
  O  O781  1  0.399800  0.009600  0.474300  1
  O  O782  1  0.600200  0.990400  0.525700  1
  O  O783  1  0.290200  0.052300  0.474100  1
  O  O784  1  0.709800  0.947700  0.525900  1
  O  O785  1  0.042200  0.107800  0.896100  1
  O  O786  1  0.957800  0.892200  0.103900  1
  O  O787  1  0.310800  0.288100  0.403700  1
  O  O788  1  0.689200  0.711900  0.596300  1
  O  O789  1  0.120500  0.229400  0.963200  1
  O  O790  1  0.879500  0.770600  0.036800  1
  O  O791  1  0.277800  0.412900  0.814100  1
  O  O792  1  0.722200  0.587100  0.185900  1
  O  O793  1  0.149600  0.255700  0.609900  1
  O  O794  1  0.850400  0.744300  0.390100  1
  O  O795  1  0.982700  0.308100  0.244900  1
  O  O796  1  0.017300  0.691900  0.755100  1
  O  O797  1  0.530400  0.595000  0.803000  1
  O  O798  1  0.469600  0.405000  0.197000  1
  O  O799  1  0.512500  0.623800  0.309000  1
  O  O800  1  0.487500  0.376200  0.691000  1
  O  O801  1  0.835600  0.030800  0.526400  1
  O  O802  1  0.164400  0.969200  0.473600  1
  O  O803  1  0.170600  0.818200  0.234200  1
  O  O804  1  0.829400  0.181800  0.765800  1
  O  O805  1  0.535600  0.757800  0.247100  1
  O  O806  1  0.464400  0.242200  0.752900  1
  O  O807  1  0.595200  0.718300  0.425900  1
  O  O808  1  0.404800  0.281700  0.574100  1
  O  O809  1  0.342000  0.247000  0.642000  1
  O  O810  1  0.658000  0.753000  0.358000  1
  O  O811  1  0.483500  0.483200  0.669900  1
  O  O812  1  0.516500  0.516800  0.330100  1
  O  O813  1  0.161800  0.595900  0.180400  1
  O  O814  1  0.838200  0.404100  0.819600  1
  O  O815  1  0.982700  0.238200  0.439100  1
  O  O816  1  0.017300  0.761800  0.560900  1
  O  O817  1  0.314100  0.363600  0.339000  1
  O  O818  1  0.685900  0.636400  0.661000  1
  O  O819  1  0.974400  0.304600  0.356000  1
  O  O820  1  0.025600  0.695400  0.644000  1
  O  O821  1  0.037100  0.967700  0.222400  1
  O  O822  1  0.962900  0.032300  0.777600  1
  O  O823  1  0.198700  0.354000  0.496700  1
  O  O824  1  0.801300  0.646000  0.503300  1
  O  O825  1  0.400200  0.334200  0.741100  1
  O  O826  1  0.599800  0.665800  0.258900  1
  O  O827  1  0.293800  0.453500  0.423100  1
  O  O828  1  0.706200  0.546500  0.576900  1
  O  O829  1  0.095100  0.316900  0.538400  1
  O  O830  1  0.904900  0.683100  0.461600  1
  O  O831  1  0.140900  0.577300  0.380200  1
  O  O832  1  0.859100  0.422700  0.619800  1
  O  O833  1  0.499300  0.749300  0.140400  1
  O  O834  1  0.500700  0.250700  0.859600  1
  O  O835  1  0.638200  0.246100  0.833000  1
  O  O836  1  0.361800  0.753900  0.167000  1
  O  O837  1  0.885100  0.364600  0.200000  1
  O  O838  1  0.114900  0.635400  0.800000  1
  O  O839  1  0.244500  0.301900  0.078100  1
  O  O840  1  0.755500  0.698100  0.921900  1
  O  O841  1  0.276400  0.310100  0.168400  1
  O  O842  1  0.723600  0.689900  0.831600  1
  O  O843  1  0.171400  0.282800  0.121600  1
  O  O844  1  0.828600  0.717200  0.878400  1
  O  O845  1  0.270000  0.730000  0.923000  1
  O  O846  1  0.730000  0.270000  0.077000  1
  O  O847  1  0.503600  0.721300  0.969500  1
  O  O848  1  0.496400  0.278700  0.030500  1
