# generated using pymatgen
data_GaH60C57(NO2)6
_symmetry_space_group_name_H-M   'P 1'
_cell_length_a   25.51250000
_cell_length_b   25.51250000
_cell_length_c   26.82627156
_cell_angle_alpha   61.60722117
_cell_angle_beta   61.60722117
_cell_angle_gamma   60.00000000
_symmetry_Int_Tables_number   1
_chemical_formula_structural   GaH60C57(NO2)6
_chemical_formula_sum   'Ga4 H240 C228 N24 O48'
_cell_volume   12638.19899029
_cell_formula_units_Z   4
loop_
 _symmetry_equiv_pos_site_id
 _symmetry_equiv_pos_as_xyz
  1  'x, y, z'
loop_
 _atom_site_type_symbol
 _atom_site_label
 _atom_site_symmetry_multiplicity
 _atom_site_fract_x
 _atom_site_fract_y
 _atom_site_fract_z
 _atom_site_occupancy
  C  C1  1  0.741330  0.236930  0.824610  1.0
  C  C2  1  0.197130  0.741330  0.824610  1.0
  C  C3  1  0.236930  0.197130  0.824610  1.0
  C  C4  1  0.728990  0.274790  0.855630  1.0
  C  C5  1  0.140590  0.728990  0.855630  1.0
  C  C6  1  0.274790  0.140590  0.855630  1.0
  C  C7  1  0.764220  0.252820  0.892740  1.0
  C  C8  1  0.090220  0.764220  0.892740  1.0
  C  C9  1  0.252820  0.090220  0.892740  1.0
  C  C10  1  0.811890  0.192890  0.898830  1.0
  C  C11  1  0.096390  0.811890  0.898830  1.0
  C  C12  1  0.192890  0.096390  0.898830  1.0
  C  C13  1  0.824230  0.155130  0.867810  1.0
  C  C14  1  0.152830  0.824230  0.867810  1.0
  C  C15  1  0.155130  0.152830  0.867810  1.0
  C  C16  1  0.789000  0.177100  0.830700  1.0
  C  C17  1  0.203200  0.789000  0.830700  1.0
  C  C18  1  0.177100  0.203200  0.830700  1.0
  C  C19  1  0.677320  0.337220  0.857640  1.0
  C  C20  1  0.127820  0.677320  0.857640  1.0
  C  C21  1  0.337220  0.127820  0.857640  1.0
  C  C22  1  0.601120  0.424620  0.800640  1.0
  C  C23  1  0.173620  0.601120  0.800640  1.0
  C  C24  1  0.424620  0.173620  0.800640  1.0
  C  C25  1  0.584370  0.470070  0.825390  1.0
  C  C26  1  0.120170  0.584370  0.825390  1.0
  C  C27  1  0.470070  0.120170  0.825390  1.0
  C  C28  1  0.542720  0.531420  0.806640  1.0
  C  C29  1  0.119220  0.542720  0.806640  1.0
  C  C30  1  0.531420  0.119220  0.806640  1.0
  C  C31  1  0.517630  0.547530  0.763110  1.0
  C  C32  1  0.171730  0.517630  0.763110  1.0
  C  C33  1  0.547530  0.171730  0.763110  1.0
  C  C34  1  0.534390  0.502090  0.738330  1.0
  C  C35  1  0.225190  0.534390  0.738330  1.0
  C  C36  1  0.502090  0.225190  0.738330  1.0
  C  C37  1  0.576130  0.440630  0.757110  1.0
  C  C38  1  0.226130  0.576130  0.757110  1.0
  C  C39  1  0.440630  0.226130  0.757110  1.0
  C  C40  1  0.592790  0.395290  0.732330  1.0
  C  C41  1  0.279590  0.592790  0.732330  1.0
  C  C42  1  0.395290  0.279590  0.732330  1.0
  C  C43  1  0.567800  0.411300  0.688800  1.0
  C  C44  1  0.332100  0.567800  0.688800  1.0
  C  C45  1  0.411300  0.332100  0.688800  1.0
  C  C46  1  0.526050  0.472750  0.670050  1.0
  C  C47  1  0.331150  0.526050  0.670050  1.0
  C  C48  1  0.472750  0.331150  0.670050  1.0
  C  C49  1  0.509390  0.518090  0.694830  1.0
  C  C50  1  0.277690  0.509390  0.694830  1.0
  C  C51  1  0.518090  0.277690  0.694830  1.0
  C  C52  1  0.876180  0.088380  0.871560  1.0
  C  C53  1  0.163880  0.876180  0.871560  1.0
  C  C54  1  0.088380  0.163880  0.871560  1.0
  C  C55  1  0.930060  0.989560  0.857520  1.0
  C  C56  1  0.222860  0.930060  0.857520  1.0
  C  C57  1  0.989560  0.222860  0.857520  1.0
  C  C58  1  0.989200  0.991600  0.826200  1.0
  C  C59  1  0.193000  0.989200  0.826200  1.0
  C  C60  1  0.991600  0.193000  0.826200  1.0
  C  C61  1  0.907260  0.957660  0.836220  1.0
  C  C62  1  0.298860  0.907260  0.836220  1.0
  C  C63  1  0.957660  0.298860  0.836220  1.0
  C  C64  1  0.838900  0.960900  0.876000  1.0
  C  C65  1  0.324200  0.838900  0.876000  1.0
  C  C66  1  0.960900  0.324200  0.876000  1.0
  C  C67  1  0.913510  0.985110  0.769470  1.0
  C  C68  1  0.331910  0.913510  0.769470  1.0
  C  C69  1  0.985110  0.331910  0.769470  1.0
  C  C70  1  0.941100  0.884800  0.855300  1.0
  C  C71  1  0.318800  0.941100  0.855300  1.0
  C  C72  1  0.884800  0.318800  0.855300  1.0
  C  C73  1  0.374780  0.707580  0.651960  1.0
  C  C74  1  0.265680  0.374780  0.651960  1.0
  C  C75  1  0.707580  0.265680  0.651960  1.0
  C  C76  1  0.418670  0.679370  0.607590  1.0
  C  C77  1  0.294370  0.418670  0.607590  1.0
  C  C78  1  0.679370  0.294370  0.607590  1.0
  C  C79  1  0.419210  0.712610  0.548670  1.0
  C  C80  1  0.319510  0.419210  0.548670  1.0
  C  C81  1  0.712610  0.319510  0.548670  1.0
  C  C82  1  0.375950  0.774250  0.534150  1.0
  C  C83  1  0.315650  0.375950  0.534150  1.0
  C  C84  1  0.774250  0.315650  0.534150  1.0
  C  C85  1  0.332060  0.802460  0.578520  1.0
  C  C86  1  0.286960  0.332060  0.578520  1.0
  C  C87  1  0.802460  0.286960  0.578520  1.0
  C  C88  1  0.331420  0.769220  0.637440  1.0
  C  C89  1  0.261920  0.331420  0.637440  1.0
  C  C90  1  0.769220  0.261920  0.637440  1.0
  C  C91  1  0.471400  0.612200  0.621900  1.0
  C  C92  1  0.294500  0.471400  0.621900  1.0
  C  C93  1  0.612200  0.294500  0.621900  1.0
  C  C94  1  0.287000  0.868600  0.564900  1.0
  C  C95  1  0.279500  0.287000  0.564900  1.0
  C  C96  1  0.868600  0.279500  0.564900  1.0
  C  C97  1  0.193970  0.954970  0.597990  1.0
  C  C98  1  0.253070  0.193970  0.597990  1.0
  C  C99  1  0.954970  0.253070  0.597990  1.0
  C  C100  1  0.221400  0.008800  0.564900  1.0
  C  C101  1  0.204900  0.221400  0.564900  1.0
  C  C102  1  0.008800  0.204900  0.564900  1.0
  C  C103  1  0.147900  0.958300  0.655200  1.0
  C  C104  1  0.238600  0.147900  0.655200  1.0
  C  C105  1  0.958300  0.238600  0.655200  1.0
  C  C106  1  0.172500  0.957200  0.702900  1.0
  C  C107  1  0.167400  0.172500  0.702900  1.0
  C  C108  1  0.957200  0.167400  0.702900  1.0
  C  C109  1  0.087900  0.034200  0.650100  1.0
  C  C110  1  0.227800  0.087900  0.650100  1.0
  C  C111  1  0.034200  0.227800  0.650100  1.0
  C  C112  1  0.106900  0.915800  0.691200  1.0
  C  C113  1  0.286100  0.106900  0.691200  1.0
  C  C114  1  0.915800  0.286100  0.691200  1.0
  C  C115  1  0.738120  0.075620  0.767940  1.0
  C  C116  1  0.418320  0.738120  0.767940  1.0
  C  C117  1  0.075620  0.418320  0.767940  1.0
  C  C118  1  0.751940  0.018240  0.762480  1.0
  C  C119  1  0.467340  0.751940  0.762480  1.0
  C  C120  1  0.018240  0.467340  0.762480  1.0
  C  C121  1  0.720560  0.976960  0.808020  1.0
  C  C122  1  0.494460  0.720560  0.808020  1.0
  C  C123  1  0.976960  0.494460  0.808020  1.0
  C  C124  1  0.675370  0.993070  0.858990  1.0
  C  C125  1  0.472570  0.675370  0.858990  1.0
  C  C126  1  0.993070  0.472570  0.858990  1.0
  C  C127  1  0.661450  0.050550  0.864450  1.0
  C  C128  1  0.423550  0.661450  0.864450  1.0
  C  C129  1  0.050550  0.423550  0.864450  1.0
  C  C130  1  0.692820  0.091820  0.818940  1.0
  C  C131  1  0.396420  0.692820  0.818940  1.0
  C  C132  1  0.091820  0.396420  0.818940  1.0
  C  C133  1  0.796300  0.001600  0.714300  1.0
  C  C134  1  0.487800  0.796300  0.714300  1.0
  C  C135  1  0.001600  0.487800  0.714300  1.0
  C  C136  1  0.882000  0.036400  0.600000  1.0
  C  C137  1  0.481600  0.882000  0.600000  1.0
  C  C138  1  0.036400  0.481600  0.600000  1.0
  C  C139  1  0.884700  0.099400  0.561600  1.0
  C  C140  1  0.454300  0.884700  0.561600  1.0
  C  C141  1  0.099400  0.454300  0.561600  1.0
  C  C142  1  0.941800  0.067600  0.515700  1.0
  C  C143  1  0.474900  0.941800  0.515700  1.0
  C  C144  1  0.067600  0.474900  0.515700  1.0
  C  C145  1  0.911100  0.118100  0.589200  1.0
  C  C146  1  0.381600  0.911100  0.589200  1.0
  C  C147  1  0.118100  0.381600  0.589200  1.0
  C  C148  1  0.823300  0.148800  0.546000  1.0
  C  C149  1  0.481900  0.823300  0.546000  1.0
  C  C150  1  0.148800  0.481900  0.546000  1.0
  C  C151  1  0.600800  0.079200  0.916200  1.0
  C  C152  1  0.403800  0.600800  0.916200  1.0
  C  C153  1  0.079200  0.403800  0.916200  1.0
  C  C154  1  0.511170  0.247770  0.052790  1.0
  C  C155  1  0.188270  0.511170  0.052790  1.0
  C  C156  1  0.247770  0.188270  0.052790  1.0
  C  C157  1  0.570760  0.252460  0.030620  1.0
  C  C158  1  0.146160  0.570760  0.030620  1.0
  C  C159  1  0.252460  0.146160  0.030620  1.0
  C  C160  1  0.619040  0.225440  0.986580  1.0
  C  C161  1  0.168940  0.619040  0.986580  1.0
  C  C162  1  0.225440  0.168940  0.986580  1.0
  C  C163  1  0.607820  0.193520  0.964740  1.0
  C  C164  1  0.233920  0.607820  0.964740  1.0
  C  C165  1  0.193520  0.233920  0.964740  1.0
  C  C166  1  0.548330  0.188730  0.986910  1.0
  C  C167  1  0.276030  0.548330  0.986910  1.0
  C  C168  1  0.188730  0.276030  0.986910  1.0
  C  C169  1  0.499960  0.215860  0.030920  1.0
  C  C170  1  0.253260  0.499960  0.030920  1.0
  C  C171  1  0.215860  0.253260  0.030920  1.0
  C  C172  1  0.440460  0.211060  0.053120  1.0
  C  C173  1  0.295360  0.440460  0.053120  1.0
  C  C174  1  0.211060  0.295360  0.053120  1.0
  C  C175  1  0.429250  0.179250  0.031250  1.0
  C  C176  1  0.360250  0.429250  0.031250  1.0
  C  C177  1  0.179250  0.360250  0.031250  1.0
  C  C178  1  0.477530  0.152130  0.987210  1.0
  C  C179  1  0.383130  0.477530  0.987210  1.0
  C  C180  1  0.152130  0.383130  0.987210  1.0
  C  C181  1  0.537020  0.156920  0.965040  1.0
  C  C182  1  0.341020  0.537020  0.965040  1.0
  C  C183  1  0.156920  0.341020  0.965040  1.0
  C  C184  1  0.460300  0.304500  0.124100  1.0
  C  C185  1  0.111100  0.460300  0.124100  1.0
  C  C186  1  0.304500  0.111100  0.124100  1.0
  C  C187  1  0.400870  0.324870  0.174290  1.0
  C  C188  1  0.099970  0.400870  0.174290  1.0
  C  C189  1  0.324870  0.099970  0.174290  1.0
  C  C190  1  0.345920  0.313020  0.192140  1.0
  C  C191  1  0.148920  0.345920  0.192140  1.0
  C  C192  1  0.313020  0.148920  0.192140  1.0
  C  C193  1  0.295320  0.328420  0.241340  1.0
  C  C194  1  0.134920  0.295320  0.241340  1.0
  C  C195  1  0.328420  0.134920  0.241340  1.0
  C  C196  1  0.299470  0.355970  0.272690  1.0
  C  C197  1  0.071870  0.299470  0.272690  1.0
  C  C198  1  0.355970  0.071870  0.272690  1.0
  C  C199  1  0.354420  0.367820  0.254840  1.0
  C  C200  1  0.022920  0.354420  0.254840  1.0
  C  C201  1  0.367820  0.022920  0.254840  1.0
  C  C202  1  0.405020  0.352420  0.205640  1.0
  C  C203  1  0.036920  0.405020  0.205640  1.0
  C  C204  1  0.352420  0.036920  0.205640  1.0
  C  C205  1  0.228900  0.380900  0.322100  1.0
  C  C206  1  0.068100  0.228900  0.322100  1.0
  C  C207  1  0.380900  0.068100  0.322100  1.0
  C  C208  1  0.132100  0.370900  0.396800  1.0
  C  C209  1  0.100200  0.132100  0.396800  1.0
  C  C210  1  0.370900  0.100200  0.396800  1.0
  C  C211  1  0.142660  0.323260  0.456920  1.0
  C  C212  1  0.077160  0.142660  0.456920  1.0
  C  C213  1  0.323260  0.077160  0.456920  1.0
  C  C214  1  0.076960  0.378460  0.385220  1.0
  C  C215  1  0.159360  0.076960  0.385220  1.0
  C  C216  1  0.378460  0.159360  0.385220  1.0
  C  C217  1  0.095000  0.308600  0.392000  1.0
  C  C218  1  0.204400  0.095000  0.392000  1.0
  C  C219  1  0.308600  0.204400  0.392000  1.0
  C  C220  1  0.056370  0.418370  0.328790  1.0
  C  C221  1  0.196470  0.056370  0.328790  1.0
  C  C222  1  0.418370  0.196470  0.328790  1.0
  C  C223  1  0.015830  0.393030  0.437510  1.0
  C  C224  1  0.153630  0.015830  0.437510  1.0
  C  C225  1  0.393030  0.153630  0.437510  1.0
  C  C226  1  0.964500  0.982200  0.601500  1.0
  C  C227  1  0.451800  0.964500  0.601500  1.0
  C  C228  1  0.982200  0.451800  0.601500  1.0
  Ga  Ga229  1  0.263790  0.263723  0.208730  1
  Ga  Ga230  1  0.736880  0.191200  0.754350  1.0
  Ga  Ga231  1  0.317570  0.736880  0.754350  1.0
  Ga  Ga232  1  0.191200  0.317570  0.754350  1.0
  H  H233  1  0.755900  0.278600  0.913800  1.0
  H  H234  1  0.051700  0.755900  0.913800  1.0
  H  H235  1  0.278600  0.051700  0.913800  1.0
  H  H236  1  0.836000  0.177800  0.924300  1.0
  H  H237  1  0.061900  0.836000  0.924300  1.0
  H  H238  1  0.177800  0.061900  0.924300  1.0
  H  H239  1  0.601600  0.459100  0.855000  1.0
  H  H240  1  0.084300  0.601600  0.855000  1.0
  H  H241  1  0.459100  0.084300  0.855000  1.0
  H  H242  1  0.531300  0.562500  0.823500  1.0
  H  H243  1  0.082700  0.531300  0.823500  1.0
  H  H244  1  0.562500  0.082700  0.823500  1.0
  H  H245  1  0.489200  0.589400  0.750300  1.0
  H  H246  1  0.171100  0.489200  0.750300  1.0
  H  H247  1  0.589400  0.171100  0.750300  1.0
  H  H248  1  0.621300  0.353300  0.745200  1.0
  H  H249  1  0.280200  0.621300  0.745200  1.0
  H  H250  1  0.353300  0.280200  0.745200  1.0
  H  H251  1  0.579200  0.380200  0.672000  1.0
  H  H252  1  0.368600  0.579200  0.672000  1.0
  H  H253  1  0.380200  0.368600  0.672000  1.0
  H  H254  1  0.509000  0.483700  0.640200  1.0
  H  H255  1  0.367100  0.509000  0.640200  1.0
  H  H256  1  0.483700  0.367100  0.640200  1.0
  H  H257  1  0.924200  0.970300  0.901200  1.0
  H  H258  1  0.204300  0.924200  0.901200  1.0
  H  H259  1  0.970300  0.204300  0.901200  1.0
  H  H260  1  0.998200  0.013200  0.841500  1.0
  H  H261  1  0.147100  0.998200  0.841500  1.0
  H  H262  1  0.013200  0.147100  0.841500  1.0
  H  H263  1  0.992200  0.015000  0.783900  1.0
  H  H264  1  0.208900  0.992200  0.783900  1.0
  H  H265  1  0.015000  0.208900  0.783900  1.0
  H  H266  1  0.020400  0.948100  0.829800  1.0
  H  H267  1  0.201700  0.020400  0.829800  1.0
  H  H268  1  0.948100  0.201700  0.829800  1.0
  H  H269  1  0.810200  0.005500  0.869400  1.0
  H  H270  1  0.314900  0.810200  0.869400  1.0
  H  H271  1  0.005500  0.314900  0.869400  1.0
  H  H272  1  0.837400  0.941100  0.918000  1.0
  H  H273  1  0.303500  0.837400  0.918000  1.0
  H  H274  1  0.941100  0.303500  0.918000  1.0
  H  H275  1  0.825500  0.938000  0.866100  1.0
  H  H276  1  0.370400  0.825500  0.866100  1.0
  H  H277  1  0.938000  0.370400  0.866100  1.0
  H  H278  1  0.957600  0.982600  0.745800  1.0
  H  H279  1  0.314000  0.957600  0.745800  1.0
  H  H280  1  0.982600  0.314000  0.745800  1.0
  H  H281  1  0.884900  0.029700  0.760500  1.0
  H  H282  1  0.324900  0.884900  0.760500  1.0
  H  H283  1  0.029700  0.324900  0.760500  1.0
  H  H284  1  0.902100  0.960300  0.759900  1.0
  H  H285  1  0.377700  0.902100  0.759900  1.0
  H  H286  1  0.960300  0.377700  0.759900  1.0
  H  H287  1  0.987000  0.874300  0.834300  1.0
  H  H288  1  0.304400  0.987000  0.834300  1.0
  H  H289  1  0.874300  0.304400  0.834300  1.0
  H  H290  1  0.924200  0.865300  0.845100  1.0
  H  H291  1  0.365400  0.924200  0.845100  1.0
  H  H292  1  0.865300  0.365400  0.845100  1.0
  H  H293  1  0.933600  0.868400  0.898500  1.0
  H  H294  1  0.299500  0.933600  0.898500  1.0
  H  H295  1  0.868400  0.299500  0.898500  1.0
  H  H296  1  0.449200  0.693300  0.518400  1.0
  H  H297  1  0.339100  0.449200  0.518400  1.0
  H  H298  1  0.693300  0.339100  0.518400  1.0
  H  H299  1  0.376300  0.797000  0.493800  1.0
  H  H300  1  0.332900  0.376300  0.493800  1.0
  H  H301  1  0.797000  0.332900  0.493800  1.0
  H  H302  1  0.171800  0.959700  0.573000  1.0
  H  H303  1  0.295500  0.171800  0.573000  1.0
  H  H304  1  0.959700  0.295500  0.573000  1.0
  H  H305  1  0.252100  0.004200  0.526200  1.0
  H  H306  1  0.217500  0.252100  0.526200  1.0
  H  H307  1  0.004200  0.217500  0.526200  1.0
  H  H308  1  0.242700  0.006200  0.588600  1.0
  H  H309  1  0.162500  0.242700  0.588600  1.0
  H  H310  1  0.006200  0.162500  0.588600  1.0
  H  H311  1  0.186600  0.050100  0.559200  1.0
  H  H312  1  0.204100  0.186600  0.559200  1.0
  H  H313  1  0.050100  0.204100  0.559200  1.0
  H  H314  1  0.137000  0.961900  0.739500  1.0
  H  H315  1  0.161600  0.137000  0.739500  1.0
  H  H316  1  0.961900  0.161600  0.739500  1.0
  H  H317  1  0.188100  0.992300  0.685200  1.0
  H  H318  1  0.134400  0.188100  0.685200  1.0
  H  H319  1  0.992300  0.134400  0.685200  1.0
  H  H320  1  0.207000  0.916600  0.712200  1.0
  H  H321  1  0.164200  0.207000  0.712200  1.0
  H  H322  1  0.916600  0.164200  0.712200  1.0
  H  H323  1  0.058100  0.035700  0.689700  1.0
  H  H324  1  0.216500  0.058100  0.689700  1.0
  H  H325  1  0.035700  0.216500  0.689700  1.0
  H  H326  1  0.065100  0.042800  0.624600  1.0
  H  H327  1  0.267500  0.065100  0.624600  1.0
  H  H328  1  0.042800  0.267500  0.624600  1.0
  H  H329  1  0.107400  0.066500  0.632400  1.0
  H  H330  1  0.193700  0.107400  0.632400  1.0
  H  H331  1  0.066500  0.193700  0.632400  1.0
  H  H332  1  0.078900  0.924500  0.729000  1.0
  H  H333  1  0.267600  0.078900  0.729000  1.0
  H  H334  1  0.924500  0.267600  0.729000  1.0
  H  H335  1  0.134700  0.870900  0.699000  1.0
  H  H336  1  0.295400  0.134700  0.699000  1.0
  H  H337  1  0.870900  0.295400  0.699000  1.0
  H  H338  1  0.081100  0.925100  0.668100  1.0
  H  H339  1  0.325700  0.081100  0.668100  1.0
  H  H340  1  0.925100  0.325700  0.668100  1.0
  H  H341  1  0.730000  0.937700  0.804300  1.0
  H  H342  1  0.528000  0.730000  0.804300  1.0
  H  H343  1  0.937700  0.528000  0.804300  1.0
  H  H344  1  0.653900  0.964900  0.890100  1.0
  H  H345  1  0.491100  0.653900  0.890100  1.0
  H  H346  1  0.964900  0.491100  0.890100  1.0
  H  H347  1  0.867300  0.021600  0.582000  1.0
  H  H348  1  0.529100  0.867300  0.582000  1.0
  H  H349  1  0.021600  0.529100  0.582000  1.0
  H  H350  1  0.961300  0.098700  0.483600  1.0
  H  H351  1  0.456400  0.961300  0.483600  1.0
  H  H352  1  0.098700  0.456400  0.483600  1.0
  H  H353  1  0.927300  0.052100  0.499200  1.0
  H  H354  1  0.521400  0.927300  0.499200  1.0
  H  H355  1  0.052100  0.521400  0.499200  1.0
  H  H356  1  0.973200  0.031800  0.535200  1.0
  H  H357  1  0.459800  0.973200  0.535200  1.0
  H  H358  1  0.031800  0.459800  0.535200  1.0
  H  H359  1  0.913600  0.160700  0.564600  1.0
  H  H360  1  0.361100  0.913600  0.564600  1.0
  H  H361  1  0.160700  0.361100  0.564600  1.0
  H  H362  1  0.953800  0.087200  0.590400  1.0
  H  H363  1  0.368600  0.953800  0.590400  1.0
  H  H364  1  0.087200  0.368600  0.590400  1.0
  H  H365  1  0.882900  0.118600  0.629700  1.0
  H  H366  1  0.368800  0.882900  0.629700  1.0
  H  H367  1  0.118600  0.368800  0.629700  1.0
  H  H368  1  0.829200  0.189600  0.520800  1.0
  H  H369  1  0.460400  0.829200  0.520800  1.0
  H  H370  1  0.189600  0.460400  0.520800  1.0
  H  H371  1  0.788100  0.154000  0.582900  1.0
  H  H372  1  0.475000  0.788100  0.582900  1.0
  H  H373  1  0.154000  0.475000  0.582900  1.0
  H  H374  1  0.813400  0.134100  0.525000  1.0
  H  H375  1  0.527500  0.813400  0.525000  1.0
  H  H376  1  0.134100  0.527500  0.525000  1.0
  H  H377  1  0.578400  0.274300  0.045500  1.0
  H  H378  1  0.101800  0.578400  0.045500  1.0
  H  H379  1  0.274300  0.101800  0.045500  1.0
  H  H380  1  0.659800  0.228600  0.971400  1.0
  H  H381  1  0.140200  0.659800  0.971400  1.0
  H  H382  1  0.228600  0.140200  0.971400  1.0
  H  H383  1  0.640900  0.175100  0.934500  1.0
  H  H384  1  0.249500  0.640900  0.934500  1.0
  H  H385  1  0.175100  0.249500  0.934500  1.0
  H  H386  1  0.407400  0.229600  0.083300  1.0
  H  H387  1  0.279700  0.407400  0.083300  1.0
  H  H388  1  0.229600  0.279700  0.083300  1.0
  H  H389  1  0.388500  0.176000  0.046400  1.0
  H  H390  1  0.389100  0.388500  0.046400  1.0
  H  H391  1  0.176000  0.389100  0.046400  1.0
  H  H392  1  0.469800  0.130400  0.972300  1.0
  H  H393  1  0.427500  0.469800  0.972300  1.0
  H  H394  1  0.130400  0.427500  0.972300  1.0
  H  H395  1  0.357300  0.386700  0.276200  1.0
  H  H396  1  0.979800  0.357300  0.276200  1.0
  H  H397  1  0.386700  0.979800  0.276200  1.0
  H  H398  1  0.442500  0.360600  0.193400  1.0
  H  H399  1  0.003500  0.442500  0.193400  1.0
  H  H400  1  0.360600  0.003500  0.193400  1.0
  H  H401  1  0.122400  0.413400  0.398000  1.0
  H  H402  1  0.066200  0.122400  0.398000  1.0
  H  H403  1  0.413400  0.066200  0.398000  1.0
  H  H404  1  0.175700  0.327100  0.462500  1.0
  H  H405  1  0.034700  0.175700  0.462500  1.0
  H  H406  1  0.327100  0.034700  0.462500  1.0
  H  H407  1  0.155900  0.279900  0.457400  1.0
  H  H408  1  0.106800  0.155900  0.457400  1.0
  H  H409  1  0.279900  0.106800  0.457400  1.0
  H  H410  1  0.102800  0.332800  0.489200  1.0
  H  H411  1  0.075200  0.102800  0.489200  1.0
  H  H412  1  0.332800  0.075200  0.489200  1.0
  H  H413  1  0.063200  0.305200  0.384200  1.0
  H  H414  1  0.247400  0.063200  0.384200  1.0
  H  H415  1  0.305200  0.247400  0.384200  1.0
  H  H416  1  0.096200  0.281800  0.432800  1.0
  H  H417  1  0.189200  0.096200  0.432800  1.0
  H  H418  1  0.281800  0.189200  0.432800  1.0
  H  H419  1  0.137000  0.294400  0.363500  1.0
  H  H420  1  0.205100  0.137000  0.363500  1.0
  H  H421  1  0.294400  0.205100  0.363500  1.0
  H  H422  1  0.023500  0.406800  0.331700  1.0
  H  H423  1  0.238000  0.023500  0.331700  1.0
  H  H424  1  0.406800  0.238000  0.331700  1.0
  H  H425  1  0.093200  0.410100  0.293900  1.0
  H  H426  1  0.202800  0.093200  0.293900  1.0
  H  H427  1  0.410100  0.202800  0.293900  1.0
  H  H428  1  0.039300  0.463700  0.324800  1.0
  H  H429  1  0.172200  0.039300  0.324800  1.0
  H  H430  1  0.463700  0.172200  0.324800  1.0
  H  H431  1  0.981100  0.391100  0.432800  1.0
  H  H432  1  0.195000  0.981100  0.432800  1.0
  H  H433  1  0.391100  0.195000  0.432800  1.0
  H  H434  1  0.004200  0.435700  0.437900  1.0
  H  H435  1  0.122200  0.004200  0.437900  1.0
  H  H436  1  0.435700  0.122200  0.437900  1.0
  H  H437  1  0.023300  0.361600  0.475100  1.0
  H  H438  1  0.140000  0.023300  0.475100  1.0
  H  H439  1  0.361600  0.140000  0.475100  1.0
  H  H440  1  0.656200  0.338200  0.795900  1.0
  H  H441  1  0.209700  0.656200  0.795900  1.0
  H  H442  1  0.338200  0.209700  0.795900  1.0
  H  H443  1  0.874200  0.072700  0.813000  1.0
  H  H444  1  0.240100  0.874200  0.813000  1.0
  H  H445  1  0.072700  0.240100  0.813000  1.0
  H  H446  1  0.436000  0.599600  0.694800  1.0
  H  H447  1  0.269600  0.436000  0.694800  1.0
  H  H448  1  0.599600  0.269600  0.694800  1.0
  H  H449  1  0.240700  0.866300  0.643200  1.0
  H  H450  1  0.249800  0.240700  0.643200  1.0
  H  H451  1  0.866300  0.249800  0.643200  1.0
  H  H452  1  0.824900  0.075900  0.669000  1.0
  H  H453  1  0.430200  0.824900  0.669000  1.0
  H  H454  1  0.075900  0.430200  0.669000  1.0
  H  H455  1  0.614600  0.140800  0.901500  1.0
  H  H456  1  0.343100  0.614600  0.901500  1.0
  H  H457  1  0.140800  0.343100  0.901500  1.0
  H  H458  1  0.423300  0.267900  0.108200  1.0
  H  H459  1  0.200600  0.423300  0.108200  1.0
  H  H460  1  0.267900  0.200600  0.108200  1.0
  H  H461  1  0.198700  0.331500  0.332000  1.0
  H  H462  1  0.137800  0.198700  0.332000  1.0
  H  H463  1  0.331500  0.137800  0.332000  1.0
  H  H464  1  0.964800  0.938800  0.626100  1.0
  H  H465  1  0.470300  0.964800  0.626100  1.0
  H  H466  1  0.938800  0.470300  0.626100  1.0
  H  H467  1  0.979500  0.996700  0.618600  1.0
  H  H468  1  0.405200  0.979500  0.618600  1.0
  H  H469  1  0.996700  0.405200  0.618600  1.0
  H  H470  1  0.992800  0.982200  0.561000  1.0
  H  H471  1  0.464000  0.992800  0.561000  1.0
  H  H472  1  0.982200  0.464000  0.561000  1.0
  N  N473  1  0.646320  0.363220  0.815340  1.0
  N  N474  1  0.175120  0.646320  0.815340  1.0
  N  N475  1  0.363220  0.175120  0.815340  1.0
  N  N476  1  0.889450  0.055750  0.842850  1.0
  N  N477  1  0.211950  0.889450  0.842850  1.0
  N  N478  1  0.055750  0.211950  0.842850  1.0
  N  N479  1  0.468930  0.581830  0.668310  1.0
  N  N480  1  0.280930  0.468930  0.668310  1.0
  N  N481  1  0.581830  0.280930  0.668310  1.0
  N  N482  1  0.242460  0.891160  0.606420  1.0
  N  N483  1  0.259960  0.242460  0.606420  1.0
  N  N484  1  0.891160  0.259960  0.606420  1.0
  N  N485  1  0.832740  0.041340  0.662880  1.0
  N  N486  1  0.463040  0.832740  0.662880  1.0
  N  N487  1  0.041340  0.463040  0.662880  1.0
  N  N488  1  0.586600  0.121800  0.925800  1.0
  N  N489  1  0.365800  0.586600  0.925800  1.0
  N  N490  1  0.121800  0.365800  0.925800  1.0
  N  N491  1  0.459210  0.273210  0.097370  1.0
  N  N492  1  0.170210  0.459210  0.097370  1.0
  N  N493  1  0.273210  0.170210  0.097370  1.0
  N  N494  1  0.191940  0.360340  0.345680  1.0
  N  N495  1  0.102040  0.191940  0.345680  1.0
  N  N496  1  0.360340  0.102040  0.345680  1.0
  O  O497  1  0.706140  0.255740  0.791880  1.0
  O  O498  1  0.246240  0.706140  0.791880  1.0
  O  O499  1  0.255740  0.246240  0.791880  1.0
  O  O500  1  0.797890  0.147590  0.798330  1.0
  O  O501  1  0.256190  0.797890  0.798330  1.0
  O  O502  1  0.147590  0.256190  0.798330  1.0
  O  O503  1  0.373370  0.675070  0.706290  1.0
  O  O504  1  0.245270  0.373370  0.706290  1.0
  O  O505  1  0.675070  0.245270  0.706290  1.0
  O  O506  1  0.294140  0.794440  0.681780  1.0
  O  O507  1  0.229640  0.294140  0.681780  1.0
  O  O508  1  0.794440  0.229640  0.681780  1.0
  O  O509  1  0.768020  0.117720  0.728940  1.0
  O  O510  1  0.385320  0.768020  0.728940  1.0
  O  O511  1  0.117720  0.385320  0.728940  1.0
  O  O512  1  0.675450  0.148750  0.820650  1.0
  O  O513  1  0.355150  0.675450  0.820650  1.0
  O  O514  1  0.148750  0.355150  0.820650  1.0
  O  O515  1  0.342570  0.285670  0.161990  1.0
  O  O516  1  0.209770  0.342570  0.161990  1.0
  O  O517  1  0.285670  0.209770  0.161990  1.0
  O  O518  1  0.247390  0.310690  0.257330  1.0
  O  O519  1  0.184590  0.247390  0.257330  1.0
  O  O520  1  0.310690  0.184590  0.257330  1.0
  O  O521  1  0.668220  0.363320  0.887940  1.0
  O  O522  1  0.080520  0.668220  0.887940  1.0
  O  O523  1  0.363320  0.080520  0.887940  1.0
  O  O524  1  0.899880  0.070480  0.918060  1.0
  O  O525  1  0.111580  0.899880  0.918060  1.0
  O  O526  1  0.070480  0.111580  0.918060  1.0
  O  O527  1  0.509200  0.596200  0.577500  1.0
  O  O528  1  0.317100  0.509200  0.577500  1.0
  O  O529  1  0.596200  0.317100  0.577500  1.0
  O  O530  1  0.271250  0.898050  0.510150  1.0
  O  O531  1  0.320550  0.271250  0.510150  1.0
  O  O532  1  0.898050  0.320550  0.510150  1.0
  O  O533  1  0.812750  0.947550  0.697950  1.0
  O  O534  1  0.541750  0.812750  0.697950  1.0
  O  O535  1  0.947550  0.541750  0.697950  1.0
  O  O536  1  0.594500  0.012200  0.954300  1.0
  O  O537  1  0.439000  0.594500  0.954300  1.0
  O  O538  1  0.012200  0.439000  0.954300  1.0
  O  O539  1  0.509600  0.318800  0.113600  1.0
  O  O540  1  0.058000  0.509600  0.113600  1.0
  O  O541  1  0.318800  0.058000  0.113600  1.0
  O  O542  1  0.258000  0.403300  0.345200  1.0
  O  O543  1  0.993500  0.258000  0.345200  1.0
  O  O544  1  0.403300  0.993500  0.345200  1.0
