# generated using pymatgen
data_H88Pd6C71N45O76
_symmetry_space_group_name_H-M   'P 1'
_cell_length_a   14.78260000
_cell_length_b   18.52700000
_cell_length_c   23.71500000
_cell_angle_alpha   71.07100000
_cell_angle_beta   77.52800000
_cell_angle_gamma   68.30400000
_symmetry_Int_Tables_number   1
_chemical_formula_structural   H88Pd6C71N45O76
_chemical_formula_sum   'H176 Pd12 C142 N90 O152'
_cell_volume   5674.34126525
_cell_formula_units_Z   2
loop_
 _symmetry_equiv_pos_site_id
 _symmetry_equiv_pos_as_xyz
  1  'x, y, z'
loop_
 _atom_site_type_symbol
 _atom_site_label
 _atom_site_symmetry_multiplicity
 _atom_site_fract_x
 _atom_site_fract_y
 _atom_site_fract_z
 _atom_site_occupancy
  H  H1  1  0.002900  0.301700  0.270100  1
  H  H2  1  0.997100  0.698300  0.729900  1
  H  H3  1  0.123900  0.369000  0.105200  1
  H  H4  1  0.876100  0.631000  0.894800  1
  H  H5  1  0.136700  0.462500  0.234000  1
  H  H6  1  0.863300  0.537500  0.766000  1
  H  H7  1  0.372400  0.562300  0.017700  1
  H  H8  1  0.627600  0.437700  0.982300  1
  H  H9  1  0.252100  0.388300  0.989700  1
  H  H10  1  0.747900  0.611700  0.010300  1
  H  H11  1  0.401300  0.547300  0.927700  1
  H  H12  1  0.598700  0.452700  0.072300  1
  H  H13  1  0.446300  0.509000  0.837600  1
  H  H14  1  0.553700  0.491000  0.162400  1
  H  H15  1  0.389500  0.412800  0.826900  1
  H  H16  1  0.610500  0.587200  0.173100  1
  H  H17  1  0.283500  0.557000  0.210500  1
  H  H18  1  0.716500  0.443000  0.789500  1
  H  H19  1  0.373400  0.668200  0.042600  1
  H  H20  1  0.626600  0.331800  0.957400  1
  H  H21  1  0.414900  0.750800  0.083800  1
  H  H22  1  0.585100  0.249200  0.916200  1
  H  H23  1  0.386400  0.733600  0.187200  1
  H  H24  1  0.613600  0.266400  0.812800  1
  H  H25  1  0.090100  0.200200  0.373300  1
  H  H26  1  0.909900  0.799800  0.626700  1
  H  H27  1  0.249300  0.336500  0.361400  1
  H  H28  1  0.750700  0.663500  0.638600  1
  H  H29  1  0.373800  0.098300  0.377900  1
  H  H30  1  0.626200  0.901700  0.622100  1
  H  H31  1  0.664500  0.247200  0.344900  1
  H  H32  1  0.335500  0.752800  0.655100  1
  H  H33  1  0.375000  0.447000  0.326700  1
  H  H34  1  0.625000  0.553000  0.673300  1
  H  H35  1  0.666400  0.363500  0.341500  1
  H  H36  1  0.333600  0.636500  0.658500  1
  H  H37  1  0.663700  0.496900  0.316400  1
  H  H38  1  0.336300  0.503100  0.683600  1
  H  H39  1  0.519600  0.600800  0.297900  1
  H  H40  1  0.480400  0.399200  0.702100  1
  H  H41  1  0.597000  0.024600  0.360900  1
  H  H42  1  0.403000  0.975400  0.639100  1
  H  H43  1  0.779100  0.133600  0.375300  1
  H  H44  1  0.220900  0.866400  0.624700  1
  H  H45  1  0.909800  0.012600  0.375700  1
  H  H46  1  0.090200  0.987400  0.624300  1
  H  H47  1  0.877800  0.901400  0.369200  1
  H  H48  1  0.122200  0.098600  0.630800  1
  H  H49  1  0.083400  0.139600  0.280600  1
  H  H50  1  0.916600  0.860400  0.719400  1
  H  H51  1  0.365400  0.016500  0.268700  1
  H  H52  1  0.634600  0.983500  0.731300  1
  H  H53  1  0.233500  0.159200  0.120900  1
  H  H54  1  0.766500  0.840800  0.879100  1
  H  H55  1  0.638600  0.022700  0.056800  1
  H  H56  1  0.361400  0.977300  0.943200  1
  H  H57  1  0.587900  0.941100  0.259100  1
  H  H58  1  0.412100  0.058900  0.740900  1
  H  H59  1  0.768600  0.958600  0.104500  1
  H  H60  1  0.231400  0.041400  0.895500  1
  H  H61  1  0.900900  0.885000  0.161900  1
  H  H62  1  0.099100  0.115000  0.838100  1
  H  H63  1  0.873800  0.846900  0.264700  1
  H  H64  1  0.126200  0.153100  0.735300  1
  H  H65  1  0.359200  0.202800  0.002300  1
  H  H66  1  0.640800  0.797200  0.997700  1
  H  H67  1  0.611300  0.037500  0.959300  1
  H  H68  1  0.388700  0.962500  0.040700  1
  H  H69  1  0.587500  0.101100  0.857400  1
  H  H70  1  0.412500  0.898900  0.142600  1
  H  H71  1  0.451100  0.212000  0.831600  1
  H  H72  1  0.548900  0.788000  0.168400  1
  H  H73  1  0.961500  0.495100  0.437500  1
  H  H74  1  0.038500  0.504900  0.562500  1
  H  H75  1  0.892500  0.448500  0.485200  1
  H  H76  1  0.107500  0.551500  0.514800  1
  H  H77  1  0.818300  0.446200  0.407800  1
  H  H78  1  0.181700  0.553800  0.592200  1
  H  H79  1  0.812900  0.537900  0.396800  1
  H  H80  1  0.187100  0.462100  0.603200  1
  H  H81  1  0.813500  0.266800  0.133700  1
  H  H82  1  0.186500  0.733200  0.866300  1
  H  H83  1  0.819400  0.320900  0.065600  1
  H  H84  1  0.180600  0.679100  0.934400  1
  H  H85  1  0.898900  0.179600  0.074200  1
  H  H86  1  0.101100  0.820400  0.925800  1
  H  H87  1  0.971600  0.231400  0.042700  1
  H  H88  1  0.028400  0.768600  0.957300  1
  H  H89  1  0.207700  0.826300  0.453000  1
  H  H90  1  0.792300  0.173700  0.547000  1
  H  H91  1  0.308000  0.846700  0.434900  1
  H  H92  1  0.692000  0.153300  0.565100  1
  H  H93  1  0.254100  0.879800  0.517000  1
  H  H94  1  0.745900  0.120200  0.483000  1
  H  H95  1  0.142200  0.912000  0.504100  1
  H  H96  1  0.857800  0.088000  0.495900  1
  H  H97  1  0.131300  0.654900  0.402000  1
  H  H98  1  0.868700  0.345100  0.598000  1
  H  H99  1  0.177300  0.693700  0.435500  1
  H  H100  1  0.822700  0.306300  0.564500  1
  H  H101  1  0.211300  0.780600  0.348400  1
  H  H102  1  0.788700  0.219400  0.651600  1
  H  H103  1  0.099100  0.787000  0.351900  1
  H  H104  1  0.900900  0.213000  0.648100  1
  H  H105  1  0.103100  0.369300  0.808600  1
  H  H106  1  0.896900  0.630700  0.191400  1
  H  H107  1  0.009300  0.391500  0.856400  1
  H  H108  1  0.990700  0.608500  0.143600  1
  H  H109  1  0.070300  0.266500  0.925800  1
  H  H110  1  0.929700  0.733500  0.074200  1
  H  H111  1  0.072500  0.248700  0.863400  1
  H  H112  1  0.927500  0.751300  0.136600  1
  H  H113  1  0.749400  0.669300  0.433400  1
  H  H114  1  0.250600  0.330700  0.566600  1
  H  H115  1  0.642400  0.667100  0.432000  1
  H  H116  1  0.357600  0.332900  0.568000  1
  H  H117  1  0.568000  0.781200  0.466900  1
  H  H118  1  0.432000  0.218800  0.533100  1
  H  H119  1  0.649200  0.719800  0.510900  1
  H  H120  1  0.350800  0.280200  0.489100  1
  H  H121  1  0.975100  0.335300  0.457700  1
  H  H122  1  0.024900  0.664700  0.542300  1
  H  H123  1  0.056400  0.366100  0.454900  1
  H  H124  1  0.943600  0.633900  0.545100  1
  H  H125  1  0.938400  0.525400  0.323900  1
  H  H126  1  0.061600  0.474600  0.676100  1
  H  H127  1  0.881700  0.481000  0.311800  1
  H  H128  1  0.118300  0.519000  0.688200  1
  H  H129  1  0.871500  0.359800  0.139900  1
  H  H130  1  0.128500  0.640200  0.860100  1
  H  H131  1  0.935100  0.361200  0.081600  1
  H  H132  1  0.064900  0.638800  0.918400  1
  H  H133  1  0.052900  0.132600  0.115800  1
  H  H134  1  0.947100  0.867400  0.884200  1
  H  H135  1  0.964400  0.136700  0.160600  1
  H  H136  1  0.035600  0.863300  0.839400  1
  H  H137  1  0.133200  0.938100  0.376600  1
  H  H138  1  0.866800  0.061900  0.623400  1
  H  H139  1  0.234800  0.911500  0.345700  1
  H  H140  1  0.765200  0.088500  0.654300  1
  H  H141  1  0.267300  0.991600  0.475800  1
  H  H142  1  0.732700  0.008400  0.524200  1
  H  H143  1  0.158500  0.023200  0.481900  1
  H  H144  1  0.841500  0.976800  0.518100  1
  H  H145  1  0.284100  0.570100  0.407400  1
  H  H146  1  0.715900  0.429900  0.592600  1
  H  H147  1  0.328300  0.634100  0.398100  1
  H  H148  1  0.671700  0.365900  0.601900  1
  H  H149  1  0.200600  0.768700  0.258800  1
  H  H150  1  0.799400  0.231300  0.741200  1
  H  H151  1  0.138500  0.715200  0.284300  1
  H  H152  1  0.861500  0.284800  0.715700  1
  H  H153  1  0.099700  0.404600  0.914500  1
  H  H154  1  0.900300  0.595400  0.085500  1
  H  H155  1  0.142000  0.441200  0.853600  1
  H  H156  1  0.858000  0.558800  0.146400  1
  H  H157  1  0.233900  0.226300  0.844200  1
  H  H158  1  0.766100  0.773700  0.155800  1
  H  H159  1  0.224300  0.186900  0.909900  1
  H  H160  1  0.775700  0.813100  0.090100  1
  H  H161  1  0.617600  0.771100  0.352700  1
  H  H162  1  0.382400  0.228900  0.647300  1
  H  H163  1  0.724000  0.728900  0.339100  1
  H  H164  1  0.276000  0.271100  0.660900  1
  H  H165  1  0.751000  0.791000  0.467100  1
  H  H166  1  0.249000  0.209000  0.532900  1
  H  H167  1  0.654900  0.856500  0.468800  1
  H  H168  1  0.345100  0.143500  0.531200  1
  H  H169  1  0.252100  0.844100  0.446500  1
  H  H170  1  0.747900  0.155900  0.553500  1
  H  H171  1  0.144500  0.851500  0.437000  1
  H  H172  1  0.855500  0.148500  0.563000  1
  H  H173  1  0.145500  0.898600  0.519500  1
  H  H174  1  0.854500  0.101400  0.480500  1
  H  H175  1  0.075500  0.966000  0.470700  1
  H  H176  1  0.924500  0.034000  0.529300  1
  Pd  Pd177  1  0.035910  0.379450  0.350400  1
  Pd  Pd178  1  0.964090  0.620550  0.649600  1
  Pd  Pd179  1  0.026710  0.245070  0.159400  1
  Pd  Pd180  1  0.973290  0.754930  0.840600  1
  Pd  Pd181  1  0.215330  0.034280  0.374990  1
  Pd  Pd182  1  0.784670  0.965720  0.625010  1
  Pd  Pd183  1  0.311440  0.629320  0.297480  1
  Pd  Pd184  1  0.688560  0.370680  0.702520  1
  Pd  Pd185  1  0.266830  0.310190  0.895710  1
  Pd  Pd186  1  0.733170  0.689810  0.104290  1
  Pd  Pd187  1  0.708830  0.855060  0.361950  1
  Pd  Pd188  1  0.291170  0.144940  0.638050  1
  C  C189  1  0.037800  0.334400  0.241700  1
  C  C190  1  0.962200  0.665600  0.758300  1
  C  C191  1  0.108200  0.373100  0.145300  1
  C  C192  1  0.891800  0.626900  0.854700  1
  C  C193  1  0.138700  0.425300  0.161700  1
  C  C194  1  0.861300  0.574700  0.838300  1
  C  C195  1  0.115700  0.428200  0.221300  1
  C  C196  1  0.884300  0.571800  0.778700  1
  C  C197  1  0.203200  0.468500  0.119200  1
  C  C198  1  0.796800  0.531500  0.880800  1
  C  C199  1  0.291700  0.490400  0.027300  1
  C  C200  1  0.708300  0.509600  0.972700  1
  C  C201  1  0.327000  0.538200  0.044200  1
  C  C202  1  0.673000  0.461800  0.955800  1
  C  C203  1  0.294600  0.550800  0.101400  1
  C  C204  1  0.705400  0.449200  0.898600  1
  C  C205  1  0.292000  0.413500  0.958700  1
  C  C206  1  0.708000  0.586500  0.041300  1
  C  C207  1  0.321400  0.471400  0.968700  1
  C  C208  1  0.678600  0.528600  0.031300  1
  C  C209  1  0.379700  0.507600  0.922700  1
  C  C210  1  0.620300  0.492400  0.077300  1
  C  C211  1  0.406000  0.485200  0.869500  1
  C  C212  1  0.594000  0.514800  0.130500  1
  C  C213  1  0.372500  0.427400  0.863600  1
  C  C214  1  0.627500  0.572600  0.136400  1
  C  C215  1  0.311500  0.596100  0.184300  1
  C  C216  1  0.688500  0.403900  0.815700  1
  C  C217  1  0.325700  0.603100  0.122700  1
  C  C218  1  0.674300  0.396900  0.877300  1
  C  C219  1  0.363700  0.661400  0.084700  1
  C  C220  1  0.636300  0.338600  0.915300  1
  C  C221  1  0.387900  0.710500  0.109000  1
  C  C222  1  0.612100  0.289500  0.891000  1
  C  C223  1  0.371500  0.699300  0.170800  1
  C  C224  1  0.628500  0.300700  0.829200  1
  C  C225  1  0.152300  0.205000  0.372100  1
  C  C226  1  0.847700  0.795000  0.627900  1
  C  C227  1  0.244700  0.285100  0.366000  1
  C  C228  1  0.755300  0.714900  0.634000  1
  C  C229  1  0.327700  0.218400  0.371900  1
  C  C230  1  0.672300  0.781600  0.628100  1
  C  C231  1  0.317400  0.145100  0.375600  1
  C  C232  1  0.682600  0.854900  0.624400  1
  C  C233  1  0.424500  0.226300  0.368000  1
  C  C234  1  0.575500  0.773700  0.632000  1
  C  C235  1  0.515300  0.308000  0.350600  1
  C  C236  1  0.484700  0.692000  0.649400  1
  C  C237  1  0.601300  0.241500  0.352000  1
  C  C238  1  0.398700  0.758500  0.648000  1
  C  C239  1  0.588600  0.165900  0.364400  1
  C  C240  1  0.411400  0.834100  0.635600  1
  C  C241  1  0.434600  0.456500  0.324800  1
  C  C242  1  0.565400  0.543500  0.675200  1
  C  C243  1  0.520100  0.391300  0.336200  1
  C  C244  1  0.479900  0.608700  0.663800  1
  C  C245  1  0.607000  0.406800  0.333400  1
  C  C246  1  0.393000  0.593200  0.666600  1
  C  C247  1  0.605200  0.485500  0.318800  1
  C  C248  1  0.394800  0.514500  0.681200  1
  C  C249  1  0.519900  0.546700  0.307900  1
  C  C250  1  0.480100  0.453300  0.692100  1
  C  C251  1  0.661100  0.022800  0.363700  1
  C  C252  1  0.338900  0.977200  0.636300  1
  C  C253  1  0.675100  0.091200  0.366800  1
  C  C254  1  0.324900  0.908800  0.633200  1
  C  C255  1  0.768100  0.087800  0.372100  1
  C  C256  1  0.231900  0.912200  0.627900  1
  C  C257  1  0.845100  0.016300  0.372700  1
  C  C258  1  0.154900  0.983700  0.627300  1
  C  C259  1  0.825400  0.950500  0.368800  1
  C  C260  1  0.174600  0.049500  0.631200  1
  C  C261  1  0.143900  0.124900  0.256500  1
  C  C262  1  0.856100  0.875100  0.743500  1
  C  C263  1  0.308600  0.052300  0.249900  1
  C  C264  1  0.691400  0.947700  0.750100  1
  C  C265  1  0.315200  0.082900  0.188000  1
  C  C266  1  0.684800  0.917100  0.812000  1
  C  C267  1  0.231000  0.136500  0.163100  1
  C  C268  1  0.769000  0.863500  0.836900  1
  C  C269  1  0.410100  0.063300  0.150500  1
  C  C270  1  0.589900  0.936700  0.849500  1
  C  C271  1  0.575600  0.004700  0.144300  1
  C  C272  1  0.424400  0.995300  0.855700  1
  C  C273  1  0.578100  0.034100  0.081600  1
  C  C274  1  0.421900  0.965900  0.918400  1
  C  C275  1  0.492900  0.078900  0.056700  1
  C  C276  1  0.507100  0.921100  0.943300  1
  C  C277  1  0.652400  0.930100  0.238800  1
  C  C278  1  0.347600  0.069900  0.761200  1
  C  C279  1  0.663600  0.957300  0.176100  1
  C  C280  1  0.336400  0.042700  0.823900  1
  C  C281  1  0.757700  0.940900  0.147000  1
  C  C282  1  0.242300  0.059100  0.853000  1
  C  C283  1  0.835800  0.898000  0.181100  1
  C  C284  1  0.164200  0.102000  0.818900  1
  C  C285  1  0.819500  0.874600  0.242000  1
  C  C286  1  0.180500  0.125400  0.758000  1
  C  C287  1  0.406700  0.181200  0.972900  1
  C  C288  1  0.593300  0.818800  0.027100  1
  C  C289  1  0.487300  0.113900  0.991900  1
  C  C290  1  0.512700  0.886100  0.008100  1
  C  C291  1  0.555500  0.083500  0.948300  1
  C  C292  1  0.444500  0.916500  0.051700  1
  C  C293  1  0.541100  0.121200  0.887900  1
  C  C294  1  0.458900  0.878800  0.112100  1
  C  C295  1  0.460500  0.186800  0.872700  1
  C  C296  1  0.539500  0.813200  0.127300  1
  C  C297  1  0.928100  0.455000  0.444300  1
  C  C298  1  0.071900  0.545000  0.555700  1
  C  C299  1  0.857800  0.482600  0.398000  1
  C  C300  1  0.142200  0.517400  0.602000  1
  C  C301  1  0.858500  0.284600  0.099000  1
  C  C302  1  0.141500  0.715400  0.901000  1
  C  C303  1  0.932100  0.213500  0.080600  1
  C  C304  1  0.067900  0.786500  0.919400  1
  C  C305  1  0.236000  0.870700  0.440400  1
  C  C306  1  0.764000  0.129300  0.559600  1
  C  C307  1  0.209000  0.910700  0.485500  1
  C  C308  1  0.791000  0.089300  0.514500  1
  C  C309  1  0.182200  0.679700  0.397800  1
  C  C310  1  0.817800  0.320300  0.602200  1
  C  C311  1  0.167700  0.751000  0.348200  1
  C  C312  1  0.832300  0.249000  0.651800  1
  C  C313  1  0.080500  0.362100  0.851900  1
  C  C314  1  0.919500  0.637900  0.148100  1
  C  C315  1  0.100300  0.273600  0.883600  1
  C  C316  1  0.899700  0.726400  0.116400  1
  C  C317  1  0.681100  0.703100  0.426200  1
  C  C318  1  0.318900  0.296900  0.573800  1
  C  C319  1  0.639100  0.753800  0.469400  1
  C  C320  1  0.360900  0.246200  0.530600  1
  C  C321  1  0.407800  0.185000  0.237400  1
  C  C322  1  0.592200  0.815000  0.762600  1
  C  C323  1  0.323500  0.256000  0.231900  1
  C  C324  1  0.676500  0.744000  0.768100  1
  C  C325  1  0.234500  0.238700  0.243600  1
  C  C326  1  0.765500  0.761300  0.756400  1
  C  C327  1  0.187000  0.883000  0.435200  1
  C  C328  1  0.813000  0.117000  0.564800  1
  C  C329  1  0.144200  0.932800  0.477500  1
  C  C330  1  0.855800  0.067200  0.522500  1
  N  N331  1  0.056700  0.328300  0.185300  1
  N  N332  1  0.943300  0.671700  0.814700  1
  N  N333  1  0.064500  0.383300  0.261000  1
  N  N334  1  0.935500  0.616700  0.739000  1
  N  N335  1  0.227700  0.455700  0.065000  1
  N  N336  1  0.772300  0.544300  0.935000  1
  N  N337  1  0.232800  0.515700  0.139800  1
  N  N338  1  0.767200  0.484300  0.860200  1
  N  N339  1  0.317900  0.392200  0.907300  1
  N  N340  1  0.682100  0.607800  0.092700  1
  N  N341  1  0.336000  0.642500  0.207700  1
  N  N342  1  0.664000  0.357500  0.792300  1
  N  N343  1  0.156800  0.277900  0.366700  1
  N  N344  1  0.843200  0.722100  0.633300  1
  N  N345  1  0.230400  0.139300  0.375900  1
  N  N346  1  0.769600  0.860700  0.624100  1
  N  N347  1  0.427200  0.300200  0.358200  1
  N  N348  1  0.572800  0.699800  0.641800  1
  N  N349  1  0.501000  0.158100  0.371800  1
  N  N350  1  0.499000  0.841900  0.628200  1
  N  N351  1  0.435300  0.532900  0.311000  1
  N  N352  1  0.564700  0.467100  0.689000  1
  N  N353  1  0.735700  0.953900  0.364400  1
  N  N354  1  0.264300  0.046100  0.635600  1
  N  N355  1  0.222000  0.073100  0.283500  1
  N  N356  1  0.778000  0.926900  0.716500  1
  N  N357  1  0.145900  0.157200  0.197600  1
  N  N358  1  0.854100  0.842800  0.802400  1
  N  N359  1  0.489700  0.019300  0.178600  1
  N  N360  1  0.510300  0.980700  0.821400  1
  N  N361  1  0.406300  0.092500  0.091000  1
  N  N362  1  0.593700  0.907500  0.909000  1
  N  N363  1  0.727300  0.889800  0.271100  1
  N  N364  1  0.272700  0.110200  0.728900  1
  N  N365  1  0.393600  0.216500  0.915200  1
  N  N366  1  0.606400  0.783500  0.084800  1
  N  N367  1  0.001000  0.376200  0.438000  1
  N  N368  1  0.999000  0.623800  0.562000  1
  N  N369  1  0.918300  0.480600  0.338800  1
  N  N370  1  0.081700  0.519400  0.661200  1
  N  N371  1  0.912700  0.328300  0.115600  1
  N  N372  1  0.087300  0.671700  0.884400  1
  N  N373  1  0.995900  0.167000  0.129700  1
  N  N374  1  0.004100  0.833000  0.870300  1
  N  N375  1  0.197900  0.931000  0.377500  1
  N  N376  1  0.802100  0.069000  0.622500  1
  N  N377  1  0.212500  0.990300  0.464200  1
  N  N378  1  0.787500  0.009700  0.535800  1
  N  N379  1  0.282000  0.621800  0.386000  1
  N  N380  1  0.718000  0.378200  0.614000  1
  N  N381  1  0.190200  0.727100  0.290600  1
  N  N382  1  0.809800  0.272900  0.709400  1
  N  N383  1  0.134400  0.394000  0.879300  1
  N  N384  1  0.865600  0.606000  0.120700  1
  N  N385  1  0.208700  0.235600  0.881200  1
  N  N386  1  0.791300  0.764400  0.118800  1
  N  N387  1  0.678600  0.756000  0.364800  1
  N  N388  1  0.321400  0.244000  0.635200  1
  N  N389  1  0.690900  0.814300  0.452500  1
  N  N390  1  0.309100  0.185700  0.547500  1
  N  N391  1  0.311200  0.330800  0.737200  1
  N  N392  1  0.688800  0.669200  0.262800  1
  N  N393  1  0.175600  0.720700  0.565200  1
  N  N394  1  0.824400  0.279300  0.434800  1
  N  N395  1  0.790900  0.554300  0.564000  1
  N  N396  1  0.209100  0.445700  0.436000  1
  N  N397  1  0.930000  0.843900  0.486300  1
  N  N398  1  0.070000  0.156100  0.513700  1
  N  N399  1  0.822900  0.433800  0.235800  1
  N  N400  1  0.177100  0.566200  0.764200  1
  N  N401  1  0.966100  0.658500  0.306600  1
  N  N402  1  0.033900  0.341500  0.693400  1
  N  N403  1  0.570500  0.182300  0.709500  1
  N  N404  1  0.429500  0.817700  0.290500  1
  N  N405  1  0.019100  0.988300  0.255800  1
  N  N406  1  0.980900  0.011700  0.744200  1
  N  N407  1  0.202400  0.110000  0.027900  1
  N  N408  1  0.797600  0.890000  0.972100  1
  N  N409  1  0.382000  0.261000  0.089100  1
  N  N410  1  0.618000  0.739000  0.910900  1
  N  N411  1  0.061000  0.822600  0.643500  1
  N  N412  1  0.939000  0.177400  0.356500  1
  N  N413  1  0.079000  0.944500  0.271400  1
  N  N414  1  0.921000  0.055500  0.728600  1
  N  N415  1  0.396000  0.360900  0.230200  1
  N  N416  1  0.604000  0.639100  0.769800  1
  N  N417  1  0.534900  0.013300  0.509900  1
  N  N418  1  0.465100  0.986700  0.490100  1
  N  N419  1  0.011200  0.471000  0.000300  1
  N  N420  1  0.988800  0.529000  0.999700  1
  O  O421  1  0.351100  0.343200  0.772000  1
  O  O422  1  0.648900  0.656800  0.228000  1
  O  O423  1  0.304900  0.375500  0.684900  1
  O  O424  1  0.695100  0.624500  0.315100  1
  O  O425  1  0.277300  0.273100  0.753600  1
  O  O426  1  0.722700  0.726900  0.246400  1
  O  O427  1  0.221900  0.751000  0.586200  1
  O  O428  1  0.778100  0.249000  0.413800  1
  O  O429  1  0.219100  0.676300  0.532100  1
  O  O430  1  0.780900  0.323700  0.467900  1
  O  O431  1  0.085300  0.735900  0.582400  1
  O  O432  1  0.914700  0.264100  0.417600  1
  O  O433  1  0.168500  0.783700  0.744700  1
  O  O434  1  0.831500  0.216300  0.255300  1
  O  O435  1  0.050100  0.806900  0.661400  1
  O  O436  1  0.949900  0.193100  0.338600  1
  O  O437  1  0.815500  0.521800  0.620700  1
  O  O438  1  0.184500  0.478200  0.379300  1
  O  O439  1  0.737400  0.538700  0.542500  1
  O  O440  1  0.262600  0.461300  0.457500  1
  O  O441  1  0.815000  0.619600  0.537100  1
  O  O442  1  0.185000  0.380400  0.462900  1
  O  O443  1  0.527000  0.553000  0.535000  1
  O  O444  1  0.473000  0.447000  0.465000  1
  O  O445  1  0.002000  0.794700  0.454400  1
  O  O446  1  0.998000  0.205300  0.545600  1
  O  O447  1  0.961400  0.893900  0.487300  1
  O  O448  1  0.038600  0.106100  0.512700  1
  O  O449  1  0.853500  0.834300  0.501900  1
  O  O450  1  0.146500  0.165700  0.498100  1
  O  O451  1  0.823600  0.384300  0.285400  1
  O  O452  1  0.176400  0.615700  0.714600  1
  O  O453  1  0.850300  0.489400  0.230300  1
  O  O454  1  0.149700  0.510600  0.769700  1
  O  O455  1  0.793200  0.431700  0.190700  1
  O  O456  1  0.206800  0.568300  0.809300  1
  O  O457  1  0.912300  0.638200  0.350800  1
  O  O458  1  0.087700  0.361800  0.649200  1
  O  O459  1  0.013200  0.619000  0.268400  1
  O  O460  1  0.986800  0.381000  0.731600  1
  O  O461  1  0.998500  0.718800  0.305100  1
  O  O462  1  0.001500  0.281200  0.694900  1
  O  O463  1  0.543600  0.192000  0.657400  1
  O  O464  1  0.456400  0.808000  0.342600  1
  O  O465  1  0.565700  0.242200  0.725300  1
  O  O466  1  0.434300  0.757800  0.274700  1
  O  O467  1  0.656800  0.123400  0.725800  1
  O  O468  1  0.343200  0.876600  0.274200  1
  O  O469  1  0.999500  0.062400  0.251900  1
  O  O470  1  0.000500  0.937600  0.748100  1
  O  O471  1  0.986400  0.971000  0.218600  1
  O  O472  1  0.013600  0.029000  0.781400  1
  O  O473  1  0.057100  0.936500  0.299100  1
  O  O474  1  0.942900  0.063500  0.700900  1
  O  O475  1  0.235000  0.866000  0.199800  1
  O  O476  1  0.765000  0.134000  0.800200  1
  O  O477  1  0.255600  0.084100  0.985100  1
  O  O478  1  0.744400  0.915900  0.014900  1
  O  O479  1  0.184300  0.061900  0.076600  1
  O  O480  1  0.815700  0.938100  0.923400  1
  O  O481  1  0.171300  0.184200  0.024100  1
  O  O482  1  0.828700  0.815800  0.975900  1
  O  O483  1  0.955000  0.371400  0.981600  1
  O  O484  1  0.045000  0.628600  0.018400  1
  O  O485  1  0.462500  0.949900  0.355000  1
  O  O486  1  0.537500  0.050100  0.645000  1
  O  O487  1  0.223800  0.902800  0.078400  1
  O  O488  1  0.776200  0.097200  0.921600  1
  O  O489  1  0.102600  0.714300  0.171800  1
  O  O490  1  0.897400  0.285700  0.828200  1
  O  O491  1  0.128100  0.723800  0.054600  1
  O  O492  1  0.871900  0.276200  0.945400  1
  O  O493  1  0.092900  0.289100  0.559500  1
  O  O494  1  0.907100  0.710900  0.440500  1
  O  O495  1  0.438000  0.664300  0.413000  1
  O  O496  1  0.562000  0.335700  0.587000  1
  O  O497  1  0.467000  0.650400  0.937800  1
  O  O498  1  0.533000  0.349600  0.062200  1
  O  O499  1  0.414100  0.729700  0.513000  1
  O  O500  1  0.585900  0.270300  0.487000  1
  O  O501  1  0.593600  0.498700  0.468700  1
  O  O502  1  0.406400  0.501300  0.531300  1
  O  O503  1  0.117000  0.847600  0.176400  1
  O  O504  1  0.883000  0.152400  0.823600  1
  O  O505  1  0.034500  0.087600  0.968400  1
  O  O506  1  0.965500  0.912400  0.031600  1
  O  O507  1  0.962000  0.018600  0.066000  1
  O  O508  1  0.038000  0.981400  0.934000  1
  O  O509  1  0.669000  0.317000  0.207500  1
  O  O510  1  0.331000  0.683000  0.792500  1
  O  O511  1  0.250000  0.838000  0.973400  1
  O  O512  1  0.750000  0.162000  0.026600  1
  O  O513  1  0.331200  0.317500  0.231200  1
  O  O514  1  0.668800  0.682500  0.768800  1
  O  O515  1  0.483900  0.378500  0.176800  1
  O  O516  1  0.516100  0.621500  0.823200  1
  O  O517  1  0.422000  0.221000  0.140000  1
  O  O518  1  0.578000  0.779000  0.860000  1
  O  O519  1  0.441400  0.277500  0.044300  1
  O  O520  1  0.558600  0.722500  0.955700  1
  O  O521  1  0.303400  0.270200  0.090900  1
  O  O522  1  0.696600  0.729800  0.909100  1
  O  O523  1  0.392000  0.841000  0.795500  1
  O  O524  1  0.608000  0.159000  0.204500  1
  O  O525  1  0.076000  0.803000  0.698100  1
  O  O526  1  0.924000  0.197000  0.301900  1
  O  O527  1  0.105000  0.768000  0.616500  1
  O  O528  1  0.895000  0.232000  0.383500  1
  O  O529  1  0.006000  0.891000  0.616800  1
  O  O530  1  0.994000  0.109000  0.383200  1
  O  O531  1  0.281000  0.655000  0.529400  1
  O  O532  1  0.719000  0.345000  0.470600  1
  O  O533  1  0.813300  0.505400  0.689400  1
  O  O534  1  0.186700  0.494600  0.310600  1
  O  O535  1  0.809000  0.574000  0.570100  1
  O  O536  1  0.191000  0.426000  0.429900  1
  O  O537  1  0.671000  0.550000  0.540900  1
  O  O538  1  0.329000  0.450000  0.459100  1
  O  O539  1  0.169200  0.910000  0.257000  1
  O  O540  1  0.830800  0.090000  0.743000  1
  O  O541  1  0.015000  0.920800  0.261600  1
  O  O542  1  0.985000  0.079200  0.738400  1
  O  O543  1  0.056000  0.997200  0.298600  1
  O  O544  1  0.944000  0.002800  0.701400  1
  O  O545  1  0.847000  0.085000  0.214000  1
  O  O546  1  0.153000  0.915000  0.786000  1
  O  O547  1  0.130600  0.321300  0.029800  1
  O  O548  1  0.869400  0.678700  0.970200  1
  O  O549  1  0.442300  0.411400  0.210800  1
  O  O550  1  0.557700  0.588600  0.789200  1
  O  O551  1  0.308200  0.382800  0.252400  1
  O  O552  1  0.691800  0.617200  0.747600  1
  O  O553  1  0.443000  0.286700  0.239000  1
  O  O554  1  0.557000  0.713300  0.761000  1
  O  O555  1  0.260500  0.240300  0.240500  1
  O  O556  1  0.739500  0.759700  0.759500  1
  O  O557  1  0.498000  0.116000  0.260000  1
  O  O558  1  0.502000  0.884000  0.740000  1
  O  O559  1  0.558500  0.063000  0.521200  1
  O  O560  1  0.441500  0.937000  0.478800  1
  O  O561  1  0.603800  0.956600  0.501800  1
  O  O562  1  0.396200  0.043400  0.498200  1
  O  O563  1  0.446300  0.035200  0.506000  1
  O  O564  1  0.553700  0.964800  0.494000  1
  O  O565  1  0.598300  0.091800  0.520300  1
  O  O566  1  0.401700  0.908200  0.479700  1
  O  O567  1  0.046200  0.515600  0.955700  1
  O  O568  1  0.953800  0.484400  0.044300  1
  O  O569  1  0.981800  0.488200  0.049000  1
  O  O570  1  0.018200  0.511800  0.951000  1
  O  O571  1  0.014300  0.404000  0.997100  1
  O  O572  1  0.985700  0.596000  0.002900  1
