# generated using pymatgen
data_Fe10H96C144S12N24O151
_symmetry_space_group_name_H-M   'P 1'
_cell_length_a   15.86100000
_cell_length_b   15.99460000
_cell_length_c   22.50640000
_cell_angle_alpha   97.07500000
_cell_angle_beta   102.50000000
_cell_angle_gamma   97.64100000
_symmetry_Int_Tables_number   1
_chemical_formula_structural   Fe10H96C144S12N24O151
_chemical_formula_sum   'Fe10 H96 C144 S12 N24 O151'
_cell_volume   5456.27578147
_cell_formula_units_Z   1
loop_
 _symmetry_equiv_pos_site_id
 _symmetry_equiv_pos_as_xyz
  1  'x, y, z'
loop_
 _atom_site_type_symbol
 _atom_site_label
 _atom_site_symmetry_multiplicity
 _atom_site_fract_x
 _atom_site_fract_y
 _atom_site_fract_z
 _atom_site_occupancy
  Fe  Fe1  1  0.356140  0.236220  0.005440  1
  Fe  Fe2  1  0.643860  0.763780  0.994560  1
  Fe  Fe3  1  0.280720  0.138470  0.491630  1
  Fe  Fe4  1  0.719280  0.861530  0.508370  1
  Fe  Fe5  1  0.858300  0.399900  0.760600  1
  Fe  Fe6  1  0.141700  0.600100  0.239400  1
  Fe  Fe7  1  0.850900  0.279500  0.771300  1
  Fe  Fe8  1  0.149100  0.720500  0.228700  1
  Fe  Fe9  1  0.023900  0.550900  0.458570  1.0
  Fe  Fe10  1  0.976100  0.449100  0.541430  1.0
  H  H11  1  0.153500  0.040500  0.372400  1
  H  H12  1  0.846500  0.959500  0.627600  1
  H  H13  1  0.018500  0.053400  0.314000  1
  H  H14  1  0.981500  0.946600  0.686000  1
  H  H15  1  0.949300  0.168400  0.342800  1
  H  H16  1  0.050700  0.831600  0.657200  1
  H  H17  1  0.017800  0.265200  0.433900  1
  H  H18  1  0.982200  0.734800  0.566100  1
  H  H19  1  0.156200  0.310600  0.524200  1
  H  H20  1  0.843800  0.689400  0.475800  1
  H  H21  1  0.397800  0.338500  0.565000  1
  H  H22  1  0.602200  0.661500  0.435000  1
  H  H23  1  0.269500  0.344700  0.733200  1
  H  H24  1  0.730500  0.655300  0.266800  1
  H  H25  1  0.199300  0.257800  0.639400  1
  H  H26  1  0.800700  0.742200  0.360600  1
  H  H27  1  0.394000  0.429400  0.952000  1
  H  H28  1  0.606000  0.570600  0.048000  1
  H  H29  1  0.504400  0.243700  0.871000  1
  H  H30  1  0.495600  0.756300  0.129000  1
  H  H31  1  0.489600  0.307500  0.782900  1
  H  H32  1  0.510400  0.692500  0.217100  1
  H  H33  1  0.581000  0.310900  0.992800  1
  H  H34  1  0.419000  0.689100  0.007200  1
  H  H35  1  0.669600  0.242900  0.083100  1
  H  H36  1  0.330400  0.757100  0.916900  1
  H  H37  1  0.661000  0.174800  0.170100  1
  H  H38  1  0.339000  0.825200  0.829900  1
  H  H39  1  0.524700  0.131800  0.188100  1
  H  H40  1  0.475300  0.868200  0.811900  1
  H  H41  1  0.399600  0.152800  0.122900  1
  H  H42  1  0.600400  0.847200  0.877100  1
  H  H43  1  0.446300  0.351500  0.131600  1
  H  H44  1  0.553700  0.648500  0.868400  1
  H  H45  1  0.423000  0.479000  0.181800  1
  H  H46  1  0.577000  0.521000  0.818200  1
  H  H47  1  0.325300  0.556600  0.134600  1
  H  H48  1  0.674700  0.443400  0.865400  1
  H  H49  1  0.241300  0.501500  0.035500  1
  H  H50  1  0.758700  0.498500  0.964500  1
  H  H51  1  0.198600  0.373700  0.943600  1
  H  H52  1  0.801400  0.626300  0.056400  1
  H  H53  1  0.150000  0.136600  0.925400  1
  H  H54  1  0.850000  0.863400  0.074600  1
  H  H55  1  0.161800  0.243000  0.743800  1
  H  H56  1  0.838200  0.757000  0.256200  1
  H  H57  1  0.250300  0.316800  0.837600  1
  H  H58  1  0.749700  0.683200  0.162400  1
  H  H59  1  0.187800  0.023500  0.720400  1
  H  H60  1  0.812200  0.976500  0.279600  1
  H  H61  1  0.259000  0.004300  0.639400  1
  H  H62  1  0.741000  0.995700  0.360600  1
  H  H63  1  0.083300  0.115300  0.533200  1
  H  H64  1  0.916700  0.884700  0.466800  1
  H  H65  1  0.203600  0.925800  0.525100  1
  H  H66  1  0.796400  0.074200  0.474900  1
  H  H67  1  0.263000  0.831600  0.447400  1
  H  H68  1  0.737000  0.168400  0.552600  1
  H  H69  1  0.328800  0.824800  0.362400  1
  H  H70  1  0.671200  0.175200  0.637600  1
  H  H71  1  0.374100  0.951100  0.329400  1
  H  H72  1  0.625900  0.048900  0.670600  1
  H  H73  1  0.363400  0.082000  0.382500  1
  H  H74  1  0.636600  0.918000  0.617500  1
  H  H75  1  0.244500  0.263800  0.102200  1
  H  H76  1  0.755500  0.736200  0.897800  1
  H  H77  1  0.143200  0.173200  0.137300  1
  H  H78  1  0.856800  0.826800  0.862700  1
  H  H79  1  0.111000  0.032600  0.100000  1
  H  H80  1  0.889000  0.967400  0.900000  1
  H  H81  1  0.174600  0.975500  0.023000  1
  H  H82  1  0.825400  0.024500  0.977000  1
  H  H83  1  0.282700  0.004900  0.952500  1
  H  H84  1  0.717300  0.995100  0.047500  1
  H  H85  1  0.506800  0.107300  0.961600  1
  H  H86  1  0.493200  0.892700  0.038400  1
  H  H87  1  0.342600  0.035400  0.760400  1
  H  H88  1  0.657400  0.964600  0.239600  1
  H  H89  1  0.274100  0.071200  0.839300  1
  H  H90  1  0.725900  0.928800  0.160700  1
  H  H91  1  0.521000  0.182400  0.747600  1
  H  H92  1  0.479000  0.817600  0.252400  1
  H  H93  1  0.473000  0.235200  0.657500  1
  H  H94  1  0.527000  0.764800  0.342500  1
  H  H95  1  0.394800  0.994200  0.565600  1
  H  H96  1  0.605200  0.005800  0.434400  1
  H  H97  1  0.520600  0.206200  0.550000  1
  H  H98  1  0.479400  0.793800  0.450000  1
  H  H99  1  0.549000  0.296400  0.469400  1
  H  H100  1  0.451000  0.703600  0.530600  1
  H  H101  1  0.492500  0.358100  0.381300  1
  H  H102  1  0.507500  0.641900  0.618700  1
  H  H103  1  0.343300  0.322200  0.336100  1
  H  H104  1  0.656700  0.677800  0.663900  1
  H  H105  1  0.252500  0.236800  0.380200  1
  H  H106  1  0.747500  0.763200  0.619800  1
  C  C107  1  0.125800  0.086400  0.385200  1
  C  C108  1  0.874200  0.913600  0.614800  1
  C  C109  1  0.045500  0.093900  0.349900  1
  C  C110  1  0.954500  0.906100  0.650100  1
  C  C111  1  0.004200  0.161800  0.367100  1
  C  C112  1  0.995800  0.838200  0.632900  1
  C  C113  1  0.044600  0.219200  0.420200  1
  C  C114  1  0.955400  0.780800  0.579800  1
  C  C115  1  0.126900  0.206400  0.452800  1
  C  C116  1  0.873100  0.793600  0.547200  1
  C  C117  1  0.175500  0.260600  0.508500  1
  C  C118  1  0.824500  0.739400  0.491500  1
  C  C119  1  0.292200  0.290500  0.594200  1
  C  C120  1  0.707800  0.709500  0.405800  1
  C  C121  1  0.372700  0.338600  0.599700  1
  C  C122  1  0.627300  0.661400  0.400300  1
  C  C123  1  0.417600  0.387300  0.655900  1
  C  C124  1  0.582400  0.612700  0.344100  1
  C  C125  1  0.378100  0.388700  0.705400  1
  C  C126  1  0.621900  0.611300  0.294600  1
  C  C127  1  0.296700  0.342300  0.699500  1
  C  C128  1  0.703300  0.657700  0.300500  1
  C  C129  1  0.254700  0.291800  0.643500  1
  C  C130  1  0.745300  0.708200  0.356500  1
  C  C131  1  0.428900  0.404400  0.813100  1
  C  C132  1  0.571100  0.595600  0.186900  1
  C  C133  1  0.400200  0.440200  0.862600  1
  C  C134  1  0.599800  0.559800  0.137400  1
  C  C135  1  0.411400  0.403800  0.917200  1
  C  C136  1  0.588600  0.596200  0.082800  1
  C  C137  1  0.448400  0.329600  0.919200  1
  C  C138  1  0.551600  0.670400  0.080800  1
  C  C139  1  0.478200  0.293600  0.868900  1
  C  C140  1  0.521800  0.706400  0.131100  1
  C  C141  1  0.468900  0.331100  0.816800  1
  C  C142  1  0.531100  0.668900  0.183200  1
  C  C143  1  0.530200  0.285000  0.003600  1
  C  C144  1  0.469800  0.715000  0.996400  1
  C  C145  1  0.536900  0.239100  0.055800  1
  C  C146  1  0.463100  0.760900  0.944200  1
  C  C147  1  0.614800  0.225400  0.092300  1
  C  C148  1  0.385200  0.774600  0.907700  1
  C  C149  1  0.609500  0.184600  0.143200  1
  C  C150  1  0.390500  0.815400  0.856800  1
  C  C151  1  0.529000  0.159100  0.153500  1
  C  C152  1  0.471000  0.840900  0.846500  1
  C  C153  1  0.454700  0.172200  0.114900  1
  C  C154  1  0.545300  0.827800  0.885100  1
  C  C155  1  0.402800  0.381000  0.111900  1
  C  C156  1  0.597200  0.619000  0.888100  1
  C  C157  1  0.389600  0.457700  0.141000  1
  C  C158  1  0.610400  0.542300  0.859000  1
  C  C159  1  0.331900  0.503100  0.114100  1
  C  C160  1  0.668100  0.496900  0.885900  1
  C  C161  1  0.282500  0.470400  0.056200  1
  C  C162  1  0.717500  0.529600  0.943800  1
  C  C163  1  0.292800  0.391900  0.027700  1
  C  C164  1  0.707200  0.608100  0.972300  1
  C  C165  1  0.242600  0.349100  0.968000  1
  C  C166  1  0.757400  0.650900  0.032000  1
  C  C167  1  0.208100  0.231500  0.890600  1
  C  C168  1  0.791900  0.768500  0.109400  1
  C  C169  1  0.153500  0.158000  0.888300  1
  C  C170  1  0.846500  0.842000  0.111700  1
  C  C171  1  0.101700  0.112400  0.831400  1
  C  C172  1  0.898300  0.887600  0.168600  1
  C  C173  1  0.107500  0.144100  0.778400  1
  C  C174  1  0.892500  0.855900  0.221600  1
  C  C175  1  0.160600  0.220400  0.780700  1
  C  C176  1  0.839400  0.779600  0.219300  1
  C  C177  1  0.212600  0.264900  0.836400  1
  C  C178  1  0.787400  0.735100  0.163600  1
  C  C179  1  0.097200  0.090300  0.675600  1
  C  C180  1  0.902800  0.909700  0.324400  1
  C  C181  1  0.168300  0.045000  0.683100  1
  C  C182  1  0.831700  0.955000  0.316900  1
  C  C183  1  0.209400  0.032500  0.634500  1
  C  C184  1  0.790600  0.967500  0.365500  1
  C  C185  1  0.179300  0.060200  0.580000  1
  C  C186  1  0.820700  0.939800  0.420000  1
  C  C187  1  0.105500  0.098700  0.571900  1
  C  C188  1  0.894500  0.901300  0.428100  1
  C  C189  1  0.063200  0.113700  0.618900  1
  C  C190  1  0.936800  0.886300  0.381100  1
  C  C191  1  0.228600  0.973000  0.509300  1
  C  C192  1  0.771400  0.027000  0.490700  1
  C  C193  1  0.273200  0.960200  0.460400  1
  C  C194  1  0.726800  0.039800  0.539600  1
  C  C195  1  0.282600  0.882200  0.432800  1
  C  C196  1  0.717400  0.117800  0.567200  1
  C  C197  1  0.321600  0.878100  0.382800  1
  C  C198  1  0.678400  0.121900  0.617200  1
  C  C199  1  0.349000  0.952500  0.364200  1
  C  C200  1  0.651000  0.047500  0.635800  1
  C  C201  1  0.340900  0.030800  0.395100  1
  C  C202  1  0.659100  0.969200  0.604900  1
  C  C203  1  0.231000  0.204900  0.085400  1
  C  C204  1  0.769000  0.795100  0.914600  1
  C  C205  1  0.170300  0.150400  0.106700  1
  C  C206  1  0.829700  0.849600  0.893300  1
  C  C207  1  0.151100  0.068600  0.084700  1
  C  C208  1  0.848900  0.931400  0.915300  1
  C  C209  1  0.188900  0.034600  0.039400  1
  C  C210  1  0.811100  0.965400  0.960600  1
  C  C211  1  0.246700  0.086800  0.018800  1
  C  C212  1  0.753300  0.913200  0.981200  1
  C  C213  1  0.292100  0.062500  0.972300  1
  C  C214  1  0.707900  0.937500  0.027700  1
  C  C215  1  0.383800  0.094000  0.907700  1
  C  C216  1  0.616200  0.906000  0.092300  1
  C  C217  1  0.472800  0.093300  0.920300  1
  C  C218  1  0.527200  0.906700  0.079700  1
  C  C219  1  0.512700  0.072100  0.872900  1
  C  C220  1  0.487300  0.927900  0.127100  1
  C  C221  1  0.464700  0.053000  0.814500  1
  C  C222  1  0.535300  0.947000  0.185500  1
  C  C223  1  0.376200  0.051200  0.801600  1
  C  C224  1  0.623800  0.948800  0.198400  1
  C  C225  1  0.335600  0.072100  0.848400  1
  C  C226  1  0.664400  0.927900  0.151600  1
  C  C227  1  0.477600  0.058300  0.712000  1
  C  C228  1  0.522400  0.941700  0.288000  1
  C  C229  1  0.492200  0.144300  0.710900  1
  C  C230  1  0.507800  0.855700  0.289100  1
  C  C231  1  0.466000  0.175300  0.657800  1
  C  C232  1  0.534000  0.824700  0.342200  1
  C  C233  1  0.428300  0.117800  0.602800  1
  C  C234  1  0.571700  0.882200  0.397200  1
  C  C235  1  0.418000  0.032200  0.603200  1
  C  C236  1  0.582000  0.967800  0.396800  1
  C  C237  1  0.440900  0.999300  0.657900  1
  C  C238  1  0.559100  0.000700  0.342100  1
  C  C239  1  0.460900  0.197500  0.528400  1
  C  C240  1  0.539100  0.802500  0.471600  1
  C  C241  1  0.432500  0.236200  0.473200  1
  C  C242  1  0.567500  0.763800  0.526800  1
  C  C243  1  0.488100  0.285500  0.450500  1
  C  C244  1  0.511900  0.714500  0.549500  1
  C  C245  1  0.455200  0.321100  0.398200  1
  C  C246  1  0.544800  0.678900  0.601800  1
  C  C247  1  0.367500  0.300600  0.372400  1
  C  C248  1  0.632500  0.699400  0.627600  1
  C  C249  1  0.313600  0.249000  0.398300  1
  C  C250  1  0.686400  0.751000  0.601700  1
  S  S251  1  0.529900  0.434300  0.665650  1
  S  S252  1  0.470100  0.565700  0.334350  1
  S  S253  1  0.630400  0.081900  0.892560  1
  S  S254  1  0.369600  0.918100  0.107440  1
  S  S255  1  0.340400  0.525990  0.857260  1
  S  S256  1  0.659600  0.474010  0.142740  1
  S  S257  1  0.425700  0.889200  0.656220  1
  S  S258  1  0.574300  0.110800  0.343780  1
  S  S259  1  0.039100  0.011300  0.829750  1
  S  S260  1  0.960900  0.988700  0.170250  1
  S  S261  1  0.975400  0.172200  0.609600  1
  S  S262  1  0.024600  0.827800  0.390400  1
  N  N263  1  0.166300  0.139700  0.436300  1
  N  N264  1  0.833700  0.860300  0.563700  1
  N  N265  1  0.246400  0.238100  0.536000  1
  N  N266  1  0.753600  0.761900  0.464000  1
  N  N267  1  0.346000  0.215600  0.448700  1
  N  N268  1  0.654000  0.784400  0.551300  1
  N  N269  1  0.400600  0.150600  0.546400  1
  N  N270  1  0.599400  0.849400  0.453600  1
  N  N271  1  0.301500  0.035300  0.442900  1
  N  N272  1  0.698500  0.964700  0.557100  1
  N  N273  1  0.223500  0.049300  0.530700  1
  N  N274  1  0.776500  0.950700  0.469300  1
  N  N275  1  0.454900  0.289300  0.973100  1
  N  N276  1  0.545100  0.710700  0.026900  1
  N  N277  1  0.457200  0.211800  0.065900  1
  N  N278  1  0.542800  0.788200  0.934100  1
  N  N279  1  0.352300  0.347900  0.054200  1
  N  N280  1  0.647700  0.652100  0.945800  1
  N  N281  1  0.261000  0.275600  0.949600  1
  N  N282  1  0.739000  0.724400  0.050400  1
  N  N283  1  0.269700  0.174800  0.041900  1
  N  N284  1  0.730300  0.825200  0.958100  1
  N  N285  1  0.344900  0.118900  0.957800  1
  N  N286  1  0.655100  0.881100  0.042200  1
  O  O287  1  0.875300  0.135600  0.744500  1
  O  O288  1  0.124700  0.864400  0.255500  1
  O  O289  1  0.714200  0.174600  0.764100  1
  O  O290  1  0.285800  0.825400  0.235900  1
  O  O291  1  0.283400  0.699500  0.531200  1
  O  O292  1  0.716600  0.300500  0.468800  1
  O  O293  1  0.076000  0.693000  0.870900  1
  O  O294  1  0.924000  0.307000  0.129100  1
  O  O295  1  0.813900  0.882900  0.734100  1
  O  O296  1  0.186100  0.117100  0.265900  1
  O  O297  1  0.721000  0.311000  0.939000  1
  O  O298  1  0.279000  0.689000  0.061000  1
  O  O299  1  0.111000  0.383000  0.108400  1
  O  O300  1  0.889000  0.617000  0.891600  1
  O  O301  1  0.180800  0.847800  0.824000  1
  O  O302  1  0.819200  0.152200  0.176000  1
  O  O303  1  0.345300  0.106600  0.237100  1
  O  O304  1  0.654700  0.893400  0.762900  1
  O  O305  1  0.060800  0.283000  0.994100  1
  O  O306  1  0.939200  0.717000  0.005900  1
  O  O307  1  0.666000  0.317000  0.595000  1
  O  O308  1  0.334000  0.683000  0.405000  1
  O  O309  1  0.961000  0.161000  0.946500  1
  O  O310  1  0.039000  0.839000  0.053500  1
  O  O311  1  0.194900  0.632200  0.950600  1
  O  O312  1  0.805100  0.367800  0.049400  1
  O  O313  1  0.100100  0.427900  0.844800  1
  O  O314  1  0.899900  0.572100  0.155200  1
  O  O315  1  0.963500  0.288000  0.235000  1
  O  O316  1  0.036500  0.712000  0.765000  1
  O  O317  1  0.205200  0.813900  0.950300  1
  O  O318  1  0.794800  0.186100  0.049700  1
  O  O319  1  0.116200  0.655200  0.675000  1
  O  O320  1  0.883800  0.344800  0.325000  1
  O  O321  1  0.792500  0.179000  0.293300  1
  O  O322  1  0.207500  0.821000  0.706700  1
  O  O323  1  0.200100  0.523400  0.689500  1
  O  O324  1  0.799900  0.476600  0.310500  1
  O  O325  1  0.629700  0.723600  0.782000  1
  O  O326  1  0.370300  0.276400  0.218000  1
  O  O327  1  0.768600  0.643000  0.790800  1
  O  O328  1  0.231400  0.357000  0.209200  1
  O  O329  1  0.456900  0.636800  0.741200  1
  O  O330  1  0.543100  0.363200  0.258800  1
  O  O331  1  0.237000  0.448000  0.497000  1
  O  O332  1  0.763000  0.552000  0.503000  1
  O  O333  1  0.192000  0.399000  0.400900  1
  O  O334  1  0.808000  0.601000  0.599100  1
  O  O335  1  0.861000  0.727100  0.719400  1
  O  O336  1  0.139000  0.272900  0.280600  1
  O  O337  1  0.505900  0.028200  0.767300  1
  O  O338  1  0.494100  0.971800  0.232700  1
  O  O339  1  0.055600  0.102400  0.723300  1
  O  O340  1  0.944400  0.897600  0.276700  1
  O  O341  1  0.420600  0.441200  0.760500  1
  O  O342  1  0.579400  0.558800  0.239500  1
  O  O343  1  0.578100  0.392200  0.716200  1
  O  O344  1  0.421900  0.607800  0.283800  1
  O  O345  1  0.540100  0.522500  0.685100  1
  O  O346  1  0.459900  0.477500  0.314900  1
  O  O347  1  0.549400  0.412400  0.605900  1
  O  O348  1  0.450600  0.587600  0.394100  1
  O  O349  1  0.662500  0.155000  0.867700  1
  O  O350  1  0.337500  0.845000  0.132300  1
  O  O351  1  0.650300  0.002200  0.864800  1
  O  O352  1  0.349700  0.997800  0.135200  1
  O  O353  1  0.656500  0.095400  0.960300  1
  O  O354  1  0.343500  0.904600  0.039700  1
  O  O355  1  0.261100  0.489500  0.810800  1
  O  O356  1  0.738900  0.510500  0.189200  1
  O  O357  1  0.325200  0.547200  0.918000  1
  O  O358  1  0.674800  0.452800  0.082000  1
  O  O359  1  0.395600  0.594000  0.838800  1
  O  O360  1  0.604400  0.406000  0.161200  1
  O  O361  1  0.378700  0.876900  0.704300  1
  O  O362  1  0.621300  0.123100  0.295700  1
  O  O363  1  0.377300  0.855800  0.594400  1
  O  O364  1  0.622700  0.144200  0.405600  1
  O  O365  1  0.512300  0.864800  0.668700  1
  O  O366  1  0.487700  0.135200  0.331300  1
  O  O367  1  0.948800  0.016700  0.802200  1
  O  O368  1  0.051200  0.983300  0.197800  1
  O  O369  1  0.055500  0.998600  0.894300  1
  O  O370  1  0.944500  0.001400  0.105700  1
  O  O371  1  0.074200  0.950000  0.791300  1
  O  O372  1  0.925800  0.050000  0.208700  1
  O  O373  1  0.905600  0.122600  0.627600  1
  O  O374  1  0.094400  0.877400  0.372400  1
  O  O375  1  0.954500  0.180200  0.544900  1
  O  O376  1  0.045500  0.819800  0.455100  1
  O  O377  1  0.008400  0.253200  0.649800  1
  O  O378  1  0.991600  0.746800  0.350200  1
  O  O379  1  0.755000  0.481100  0.740500  1
  O  O380  1  0.245000  0.518900  0.259500  1
  O  O381  1  0.936000  0.314400  0.791000  1
  O  O382  1  0.064000  0.685600  0.209000  1
  O  O383  1  0.973000  0.482000  0.755000  1
  O  O384  1  0.027000  0.518000  0.245000  1
  O  O385  1  0.738000  0.335000  0.753000  1
  O  O386  1  0.262000  0.665000  0.247000  1
  O  O387  1  0.853000  0.359000  0.673200  1
  O  O388  1  0.147000  0.641000  0.326800  1
  O  O389  1  0.861000  0.431000  0.865200  1
  O  O390  1  0.139000  0.569000  0.134800  1
  O  O391  1  0.818400  0.391600  0.814600  1
  O  O392  1  0.181600  0.608400  0.185400  1
  O  O393  1  0.972000  0.304000  0.761200  1
  O  O394  1  0.028000  0.696000  0.238800  1
  O  O395  1  0.823000  0.314000  0.675000  1
  O  O396  1  0.177000  0.686000  0.325000  1
  O  O397  1  0.703000  0.240000  0.759900  1
  O  O398  1  0.297000  0.760000  0.240100  1
  O  O399  1  0.851000  0.232000  0.852000  1
  O  O400  1  0.149000  0.768000  0.148000  1
  O  O401  1  0.859000  0.157000  0.743000  1
  O  O402  1  0.141000  0.843000  0.257000  1
  O  O403  1  0.043000  0.605000  0.854400  1
  O  O404  1  0.957000  0.395000  0.145600  1
  O  O405  1  0.750000  0.319000  0.918000  1
  O  O406  1  0.250000  0.681000  0.082000  1
  O  O407  1  0.061000  0.843000  0.943800  1
  O  O408  1  0.939000  0.157000  0.056200  1
  O  O409  1  0.081000  0.346000  0.121000  1
  O  O410  1  0.919000  0.654000  0.879000  1
  O  O411  1  0.694000  0.324400  0.578000  1
  O  O412  1  0.306000  0.675600  0.422000  1
  O  O413  1  0.000000  0.500000  0.000000  1
  O  O414  1  0.284000  0.732000  0.691000  1
  O  O415  1  0.716000  0.268000  0.309000  1
  O  O416  1  0.324000  0.626000  0.648700  1
  O  O417  1  0.676000  0.374000  0.351300  1
  O  O418  1  0.287000  0.568000  0.545000  1
  O  O419  1  0.713000  0.432000  0.455000  1
  O  O420  1  0.301000  0.434000  0.489000  1
  O  O421  1  0.699000  0.566000  0.511000  1
  O  O422  1  0.374000  0.476000  0.474100  1
  O  O423  1  0.626000  0.524000  0.525900  1
  O  O424  1  0.193000  0.420000  0.363400  1
  O  O425  1  0.807000  0.580000  0.636600  1
  O  O426  1  0.956000  0.579500  0.528100  1
  O  O427  1  0.044000  0.420500  0.471900  1
  O  O428  1  0.884200  0.491800  0.476200  1.0
  O  O429  1  0.115800  0.508200  0.523800  1.0
  O  O430  1  0.915800  0.604000  0.396100  1.0
  O  O431  1  0.084200  0.396000  0.603900  1.0
  O  O432  1  0.088100  0.519400  0.389700  1.0
  O  O433  1  0.911900  0.480600  0.610300  1.0
  O  O434  1  0.104600  0.672100  0.486600  1.0
  O  O435  1  0.895400  0.327900  0.513400  1.0
  O  O436  1  0.049600  0.574200  0.566300  1.0
  O  O437  1  0.950400  0.425800  0.433700  1.0
