# generated using pymatgen
data_ZnH24(C5N)8
_symmetry_space_group_name_H-M   'P 1'
_cell_length_a   15.00250000
_cell_length_b   23.57440000
_cell_length_c   23.57440000
_cell_angle_alpha   90.00000000
_cell_angle_beta   90.00000000
_cell_angle_gamma   90.00000000
_symmetry_Int_Tables_number   1
_chemical_formula_structural   ZnH24(C5N)8
_chemical_formula_sum   'Zn8 H192 C320 N64'
_cell_volume   8337.67441124
_cell_formula_units_Z   8
loop_
 _symmetry_equiv_pos_site_id
 _symmetry_equiv_pos_as_xyz
  1  'x, y, z'
loop_
 _atom_site_type_symbol
 _atom_site_label
 _atom_site_symmetry_multiplicity
 _atom_site_fract_x
 _atom_site_fract_y
 _atom_site_fract_z
 _atom_site_occupancy
  Zn  Zn1  1  0.314970  0.521760  0.150921  1.0
  Zn  Zn2  1  0.314970  0.978240  0.349079  1.0
  Zn  Zn3  1  0.814970  0.849079  0.021760  1.0
  Zn  Zn4  1  0.814970  0.650921  0.478240  1.0
  Zn  Zn5  1  0.685030  0.478240  0.849079  1.0
  Zn  Zn6  1  0.685030  0.021760  0.650921  1.0
  Zn  Zn7  1  0.185030  0.150921  0.978240  1.0
  Zn  Zn8  1  0.185030  0.349079  0.521760  1.0
  H  H9  1  0.413800  0.446600  0.346300  1.0
  H  H10  1  0.413800  0.053400  0.153700  1.0
  H  H11  1  0.913800  0.653700  0.946600  1.0
  H  H12  1  0.913800  0.846300  0.553400  1.0
  H  H13  1  0.586200  0.553400  0.653700  1.0
  H  H14  1  0.586200  0.946600  0.846300  1.0
  H  H15  1  0.086200  0.346300  0.053400  1.0
  H  H16  1  0.086200  0.153700  0.446600  1.0
  H  H17  1  0.554700  0.480800  0.302500  1.0
  H  H18  1  0.554700  0.019200  0.197500  1.0
  H  H19  1  0.054700  0.697500  0.980800  1.0
  H  H20  1  0.054700  0.802500  0.519200  1.0
  H  H21  1  0.445300  0.519200  0.697500  1.0
  H  H22  1  0.445300  0.980800  0.802500  1.0
  H  H23  1  0.945300  0.302500  0.019200  1.0
  H  H24  1  0.945300  0.197500  0.480800  1.0
  H  H25  1  0.641600  0.579900  0.108400  1.0
  H  H26  1  0.641600  0.920100  0.391600  1.0
  H  H27  1  0.141600  0.891600  0.079900  1.0
  H  H28  1  0.141600  0.608400  0.420100  1.0
  H  H29  1  0.358400  0.420100  0.891600  1.0
  H  H30  1  0.358400  0.079900  0.608400  1.0
  H  H31  1  0.858400  0.108400  0.920100  1.0
  H  H32  1  0.858400  0.391600  0.579900  1.0
  H  H33  1  0.559900  0.605000  0.020900  1.0
  H  H34  1  0.559900  0.895000  0.479100  1.0
  H  H35  1  0.059900  0.979100  0.105000  1.0
  H  H36  1  0.059900  0.520900  0.395000  1.0
  H  H37  1  0.440100  0.395000  0.979100  1.0
  H  H38  1  0.440100  0.105000  0.520900  1.0
  H  H39  1  0.940100  0.020900  0.895000  1.0
  H  H40  1  0.940100  0.479100  0.605000  1.0
  H  H41  1  0.215300  0.615400  0.963300  1.0
  H  H42  1  0.215300  0.884600  0.536700  1.0
  H  H43  1  0.715300  0.036700  0.115400  1.0
  H  H44  1  0.715300  0.463300  0.384600  1.0
  H  H45  1  0.784700  0.384600  0.036700  1.0
  H  H46  1  0.784700  0.115400  0.463300  1.0
  H  H47  1  0.284700  0.963300  0.884600  1.0
  H  H48  1  0.284700  0.536700  0.615400  1.0
  H  H49  1  0.073800  0.599500  0.015700  1.0
  H  H50  1  0.073800  0.900500  0.484300  1.0
  H  H51  1  0.573800  0.984300  0.099500  1.0
  H  H52  1  0.573800  0.515700  0.400500  1.0
  H  H53  1  0.926200  0.400500  0.984300  1.0
  H  H54  1  0.926200  0.099500  0.515700  1.0
  H  H55  1  0.426200  0.015700  0.900500  1.0
  H  H56  1  0.426200  0.484300  0.599500  1.0
  H  H57  1  0.987000  0.522000  0.220200  1.0
  H  H58  1  0.987000  0.978000  0.279800  1.0
  H  H59  1  0.487000  0.779800  0.022000  1.0
  H  H60  1  0.487000  0.720200  0.478000  1.0
  H  H61  1  0.013000  0.478000  0.779800  1.0
  H  H62  1  0.013000  0.022000  0.720200  1.0
  H  H63  1  0.513000  0.220200  0.978000  1.0
  H  H64  1  0.513000  0.279800  0.522000  1.0
  H  H65  1  0.070500  0.473200  0.297400  1.0
  H  H66  1  0.070500  0.026800  0.202600  1.0
  H  H67  1  0.570500  0.702600  0.973200  1.0
  H  H68  1  0.570500  0.797400  0.526800  1.0
  H  H69  1  0.929500  0.526800  0.702600  1.0
  H  H70  1  0.929500  0.973200  0.797400  1.0
  H  H71  1  0.429500  0.297400  0.026800  1.0
  H  H72  1  0.429500  0.202600  0.473200  1.0
  H  H73  1  0.616300  0.605200  0.262800  1.0
  H  H74  1  0.616300  0.894800  0.237200  1.0
  H  H75  1  0.116300  0.737200  0.105200  1.0
  H  H76  1  0.116300  0.762800  0.394800  1.0
  H  H77  1  0.383700  0.394800  0.737200  1.0
  H  H78  1  0.383700  0.105200  0.762800  1.0
  H  H79  1  0.883700  0.262800  0.894800  1.0
  H  H80  1  0.883700  0.237200  0.605200  1.0
  H  H81  1  0.763000  0.612200  0.288300  1.0
  H  H82  1  0.763000  0.887800  0.211700  1.0
  H  H83  1  0.263000  0.711700  0.112200  1.0
  H  H84  1  0.263000  0.788300  0.387800  1.0
  H  H85  1  0.237000  0.387800  0.711700  1.0
  H  H86  1  0.237000  0.112200  0.788300  1.0
  H  H87  1  0.737000  0.288300  0.887800  1.0
  H  H88  1  0.737000  0.211700  0.612200  1.0
  H  H89  1  0.824800  0.481200  0.196600  1.0
  H  H90  1  0.824800  0.018800  0.303400  1.0
  H  H91  1  0.324800  0.803400  0.981200  1.0
  H  H92  1  0.324800  0.696600  0.518800  1.0
  H  H93  1  0.175200  0.518800  0.803400  1.0
  H  H94  1  0.175200  0.981200  0.696600  1.0
  H  H95  1  0.675200  0.196600  0.018800  1.0
  H  H96  1  0.675200  0.303400  0.481200  1.0
  H  H97  1  0.677600  0.468700  0.171300  1.0
  H  H98  1  0.677600  0.031300  0.328700  1.0
  H  H99  1  0.177600  0.828700  0.968700  1.0
  H  H100  1  0.177600  0.671300  0.531300  1.0
  H  H101  1  0.322400  0.531300  0.828700  1.0
  H  H102  1  0.322400  0.968700  0.671300  1.0
  H  H103  1  0.822400  0.171300  0.031300  1.0
  H  H104  1  0.822400  0.328700  0.468700  1.0
  H  H105  1  0.460800  0.537900  0.941900  1.0
  H  H106  1  0.460800  0.962100  0.558100  1.0
  H  H107  1  0.960800  0.058100  0.037900  1.0
  H  H108  1  0.960800  0.441900  0.462100  1.0
  H  H109  1  0.539200  0.462100  0.058100  1.0
  H  H110  1  0.539200  0.037900  0.441900  1.0
  H  H111  1  0.039200  0.941900  0.962100  1.0
  H  H112  1  0.039200  0.558100  0.537900  1.0
  H  H113  1  0.501500  0.573300  0.853800  1.0
  H  H114  1  0.501500  0.926700  0.646200  1.0
  H  H115  1  0.001500  0.146200  0.073300  1.0
  H  H116  1  0.001500  0.353800  0.426700  1.0
  H  H117  1  0.498500  0.426700  0.146200  1.0
  H  H118  1  0.498500  0.073300  0.353800  1.0
  H  H119  1  0.998500  0.853800  0.926700  1.0
  H  H120  1  0.998500  0.646200  0.573300  1.0
  H  H121  1  0.401200  0.720400  0.888400  1.0
  H  H122  1  0.401200  0.779600  0.611600  1.0
  H  H123  1  0.901200  0.111600  0.220400  1.0
  H  H124  1  0.901200  0.388400  0.279600  1.0
  H  H125  1  0.598800  0.279600  0.111600  1.0
  H  H126  1  0.598800  0.220400  0.388400  1.0
  H  H127  1  0.098800  0.888400  0.779600  1.0
  H  H128  1  0.098800  0.611600  0.720400  1.0
  H  H129  1  0.355500  0.690400  0.976600  1.0
  H  H130  1  0.355500  0.809600  0.523400  1.0
  H  H131  1  0.855500  0.023400  0.190400  1.0
  H  H132  1  0.855500  0.476600  0.309600  1.0
  H  H133  1  0.644500  0.309600  0.023400  1.0
  H  H134  1  0.644500  0.190400  0.476600  1.0
  H  H135  1  0.144500  0.976600  0.809600  1.0
  H  H136  1  0.144500  0.523400  0.690400  1.0
  H  H137  1  0.990600  0.642600  0.153900  1.0
  H  H138  1  0.990600  0.857400  0.346100  1.0
  H  H139  1  0.490600  0.846100  0.142600  1.0
  H  H140  1  0.490600  0.653900  0.357400  1.0
  H  H141  1  0.009400  0.357400  0.846100  1.0
  H  H142  1  0.009400  0.142600  0.653900  1.0
  H  H143  1  0.509400  0.153900  0.857400  1.0
  H  H144  1  0.509400  0.346100  0.642600  1.0
  H  H145  1  0.841300  0.660100  0.134800  1.0
  H  H146  1  0.841300  0.839900  0.365200  1.0
  H  H147  1  0.341300  0.865200  0.160100  1.0
  H  H148  1  0.341300  0.634800  0.339900  1.0
  H  H149  1  0.158700  0.339900  0.865200  1.0
  H  H150  1  0.158700  0.160100  0.634800  1.0
  H  H151  1  0.658700  0.134800  0.839900  1.0
  H  H152  1  0.658700  0.365200  0.660100  1.0
  H  H153  1  0.823000  0.514600  0.055700  1.0
  H  H154  1  0.823000  0.985400  0.444300  1.0
  H  H155  1  0.323000  0.944300  0.014600  1.0
  H  H156  1  0.323000  0.555700  0.485400  1.0
  H  H157  1  0.177000  0.485400  0.944300  1.0
  H  H158  1  0.177000  0.014600  0.555700  1.0
  H  H159  1  0.677000  0.055700  0.985400  1.0
  H  H160  1  0.677000  0.444300  0.514600  1.0
  H  H161  1  0.970800  0.495400  0.071400  1.0
  H  H162  1  0.970800  0.004600  0.428600  1.0
  H  H163  1  0.470800  0.928600  0.995400  1.0
  H  H164  1  0.470800  0.571400  0.504600  1.0
  H  H165  1  0.029200  0.504600  0.928600  1.0
  H  H166  1  0.029200  0.995400  0.571400  1.0
  H  H167  1  0.529200  0.071400  0.004600  1.0
  H  H168  1  0.529200  0.428600  0.495400  1.0
  H  H169  1  0.204900  0.363400  0.304900  1.0
  H  H170  1  0.204900  0.136600  0.195100  1.0
  H  H171  1  0.704900  0.695100  0.863400  1.0
  H  H172  1  0.704900  0.804900  0.636600  1.0
  H  H173  1  0.795100  0.636600  0.695100  1.0
  H  H174  1  0.795100  0.863400  0.804900  1.0
  H  H175  1  0.295100  0.304900  0.136600  1.0
  H  H176  1  0.295100  0.195100  0.363400  1.0
  H  H177  1  0.178500  0.320700  0.392100  1.0
  H  H178  1  0.178500  0.179300  0.107900  1.0
  H  H179  1  0.678500  0.607900  0.820700  1.0
  H  H180  1  0.678500  0.892100  0.679300  1.0
  H  H181  1  0.821500  0.679300  0.607900  1.0
  H  H182  1  0.821500  0.820700  0.892100  1.0
  H  H183  1  0.321500  0.392100  0.179300  1.0
  H  H184  1  0.321500  0.107900  0.320700  1.0
  H  H185  1  0.211800  0.464700  0.470600  1.0
  H  H186  1  0.211800  0.035300  0.029400  1.0
  H  H187  1  0.711800  0.529400  0.964700  1.0
  H  H188  1  0.711800  0.970600  0.535300  1.0
  H  H189  1  0.788200  0.535300  0.529400  1.0
  H  H190  1  0.788200  0.964700  0.970600  1.0
  H  H191  1  0.288200  0.470600  0.035300  1.0
  H  H192  1  0.288200  0.029400  0.464700  1.0
  H  H193  1  0.242600  0.510600  0.386600  1.0
  H  H194  1  0.242600  0.989400  0.113400  1.0
  H  H195  1  0.742600  0.613400  0.010600  1.0
  H  H196  1  0.742600  0.886600  0.489400  1.0
  H  H197  1  0.757400  0.489400  0.613400  1.0
  H  H198  1  0.757400  0.010600  0.886600  1.0
  H  H199  1  0.257400  0.386600  0.989400  1.0
  H  H200  1  0.257400  0.113400  0.510600  1.0
  C  C201  1  0.349000  0.478650  0.272140  1.0
  C  C202  1  0.349000  0.021350  0.227860  1.0
  C  C203  1  0.849000  0.727860  0.978650  1.0
  C  C204  1  0.849000  0.772140  0.521350  1.0
  C  C205  1  0.651000  0.521350  0.727860  1.0
  C  C206  1  0.651000  0.978650  0.772140  1.0
  C  C207  1  0.151000  0.272140  0.021350  1.0
  C  C208  1  0.151000  0.227860  0.478650  1.0
  C  C209  1  0.419700  0.465080  0.310670  1.0
  C  C210  1  0.419700  0.034920  0.189330  1.0
  C  C211  1  0.919700  0.689330  0.965080  1.0
  C  C212  1  0.919700  0.810670  0.534920  1.0
  C  C213  1  0.580300  0.534920  0.689330  1.0
  C  C214  1  0.580300  0.965080  0.810670  1.0
  C  C215  1  0.080300  0.310670  0.034920  1.0
  C  C216  1  0.080300  0.189330  0.465080  1.0
  C  C217  1  0.496600  0.483640  0.286760  1.0
  C  C218  1  0.496600  0.016360  0.213240  1.0
  C  C219  1  0.996600  0.713240  0.983640  1.0
  C  C220  1  0.996600  0.786760  0.516360  1.0
  C  C221  1  0.503400  0.516360  0.713240  1.0
  C  C222  1  0.503400  0.983640  0.786760  1.0
  C  C223  1  0.003400  0.286760  0.016360  1.0
  C  C224  1  0.003400  0.213240  0.483640  1.0
  C  C225  1  0.473300  0.508290  0.233360  1.0
  C  C226  1  0.473300  0.991710  0.266640  1.0
  C  C227  1  0.973300  0.766640  0.008290  1.0
  C  C228  1  0.973300  0.733360  0.491710  1.0
  C  C229  1  0.526700  0.491710  0.766640  1.0
  C  C230  1  0.526700  0.008290  0.733360  1.0
  C  C231  1  0.026700  0.233360  0.991710  1.0
  C  C232  1  0.026700  0.266640  0.508290  1.0
  C  C233  1  0.535000  0.531980  0.195170  1.0
  C  C234  1  0.535000  0.968020  0.304830  1.0
  C  C235  1  0.035000  0.804830  0.031980  1.0
  C  C236  1  0.035000  0.695170  0.468020  1.0
  C  C237  1  0.465000  0.468020  0.804830  1.0
  C  C238  1  0.465000  0.031980  0.695170  1.0
  C  C239  1  0.965000  0.195170  0.968020  1.0
  C  C240  1  0.965000  0.304830  0.531980  1.0
  C  C241  1  0.515200  0.551870  0.140890  1.0
  C  C242  1  0.515200  0.948130  0.359110  1.0
  C  C243  1  0.015200  0.859110  0.051870  1.0
  C  C244  1  0.015200  0.640890  0.448130  1.0
  C  C245  1  0.484800  0.448130  0.859110  1.0
  C  C246  1  0.484800  0.051870  0.640890  1.0
  C  C247  1  0.984800  0.140890  0.948130  1.0
  C  C248  1  0.984800  0.359110  0.551870  1.0
  C  C249  1  0.579500  0.575280  0.101880  1.0
  C  C250  1  0.579500  0.924720  0.398120  1.0
  C  C251  1  0.079500  0.898120  0.075280  1.0
  C  C252  1  0.079500  0.601880  0.424720  1.0
  C  C253  1  0.420500  0.424720  0.898120  1.0
  C  C254  1  0.420500  0.075280  0.601880  1.0
  C  C255  1  0.920500  0.101880  0.924720  1.0
  C  C256  1  0.920500  0.398120  0.575280  1.0
  C  C257  1  0.534700  0.589250  0.054420  1.0
  C  C258  1  0.534700  0.910750  0.445580  1.0
  C  C259  1  0.034700  0.945580  0.089250  1.0
  C  C260  1  0.034700  0.554420  0.410750  1.0
  C  C261  1  0.465300  0.410750  0.945580  1.0
  C  C262  1  0.465300  0.089250  0.554420  1.0
  C  C263  1  0.965300  0.054420  0.910750  1.0
  C  C264  1  0.965300  0.445580  0.589250  1.0
  C  C265  1  0.441300  0.576070  0.063360  1.0
  C  C266  1  0.441300  0.923930  0.436640  1.0
  C  C267  1  0.941300  0.936640  0.076070  1.0
  C  C268  1  0.941300  0.563360  0.423930  1.0
  C  C269  1  0.558700  0.423930  0.936640  1.0
  C  C270  1  0.558700  0.076070  0.563360  1.0
  C  C271  1  0.058700  0.063360  0.923930  1.0
  C  C272  1  0.058700  0.436640  0.576070  1.0
  C  C273  1  0.372600  0.588680  0.025700  1.0
  C  C274  1  0.372600  0.911320  0.474300  1.0
  C  C275  1  0.872600  0.974300  0.088680  1.0
  C  C276  1  0.872600  0.525700  0.411320  1.0
  C  C277  1  0.627400  0.411320  0.974300  1.0
  C  C278  1  0.627400  0.088680  0.525700  1.0
  C  C279  1  0.127400  0.025700  0.911320  1.0
  C  C280  1  0.127400  0.474300  0.588680  1.0
  C  C281  1  0.281400  0.585650  0.038040  1.0
  C  C282  1  0.281400  0.914350  0.461960  1.0
  C  C283  1  0.781400  0.961960  0.085650  1.0
  C  C284  1  0.781400  0.538040  0.414350  1.0
  C  C285  1  0.718600  0.414350  0.961960  1.0
  C  C286  1  0.718600  0.085650  0.538040  1.0
  C  C287  1  0.218600  0.038040  0.914350  1.0
  C  C288  1  0.218600  0.461960  0.585650  1.0
  C  C289  1  0.209700  0.601350  0.000870  1.0
  C  C290  1  0.209700  0.898650  0.499130  1.0
  C  C291  1  0.709700  0.999130  0.101350  1.0
  C  C292  1  0.709700  0.500870  0.398650  1.0
  C  C293  1  0.790300  0.398650  0.999130  1.0
  C  C294  1  0.790300  0.101350  0.500870  1.0
  C  C295  1  0.290300  0.000870  0.898650  1.0
  C  C296  1  0.290300  0.499130  0.601350  1.0
  C  C297  1  0.132300  0.592480  0.029360  1.0
  C  C298  1  0.132300  0.907520  0.470640  1.0
  C  C299  1  0.632300  0.970640  0.092480  1.0
  C  C300  1  0.632300  0.529360  0.407520  1.0
  C  C301  1  0.867700  0.407520  0.970640  1.0
  C  C302  1  0.867700  0.092480  0.529360  1.0
  C  C303  1  0.367700  0.029360  0.907520  1.0
  C  C304  1  0.367700  0.470640  0.592480  1.0
  C  C305  1  0.155700  0.570570  0.084010  1.0
  C  C306  1  0.155700  0.929430  0.415990  1.0
  C  C307  1  0.655700  0.915990  0.070570  1.0
  C  C308  1  0.655700  0.584010  0.429430  1.0
  C  C309  1  0.844300  0.429430  0.915990  1.0
  C  C310  1  0.844300  0.070570  0.584010  1.0
  C  C311  1  0.344300  0.084010  0.929430  1.0
  C  C312  1  0.344300  0.415990  0.570570  1.0
  C  C313  1  0.094300  0.555530  0.126300  1.0
  C  C314  1  0.094300  0.944470  0.373700  1.0
  C  C315  1  0.594300  0.873700  0.055530  1.0
  C  C316  1  0.594300  0.626300  0.444470  1.0
  C  C317  1  0.905700  0.444470  0.873700  1.0
  C  C318  1  0.905700  0.055530  0.626300  1.0
  C  C319  1  0.405700  0.126300  0.944470  1.0
  C  C320  1  0.405700  0.373700  0.555530  1.0
  C  C321  1  0.114200  0.530870  0.178800  1.0
  C  C322  1  0.114200  0.969130  0.321200  1.0
  C  C323  1  0.614200  0.821200  0.030870  1.0
  C  C324  1  0.614200  0.678800  0.469130  1.0
  C  C325  1  0.885800  0.469130  0.821200  1.0
  C  C326  1  0.885800  0.030870  0.678800  1.0
  C  C327  1  0.385800  0.178800  0.969130  1.0
  C  C328  1  0.385800  0.321200  0.530870  1.0
  C  C329  1  0.049500  0.515300  0.221550  1.0
  C  C330  1  0.049500  0.984700  0.278450  1.0
  C  C331  1  0.549500  0.778450  0.015300  1.0
  C  C332  1  0.549500  0.721550  0.484700  1.0
  C  C333  1  0.950500  0.484700  0.778450  1.0
  C  C334  1  0.950500  0.015300  0.721550  1.0
  C  C335  1  0.450500  0.221550  0.984700  1.0
  C  C336  1  0.450500  0.278450  0.515300  1.0
  C  C337  1  0.095200  0.489340  0.263980  1.0
  C  C338  1  0.095200  0.010660  0.236020  1.0
  C  C339  1  0.595200  0.736020  0.989340  1.0
  C  C340  1  0.595200  0.763980  0.510660  1.0
  C  C341  1  0.904800  0.510660  0.736020  1.0
  C  C342  1  0.904800  0.989340  0.763980  1.0
  C  C343  1  0.404800  0.263980  0.010660  1.0
  C  C344  1  0.404800  0.236020  0.489340  1.0
  C  C345  1  0.187800  0.490990  0.248690  1.0
  C  C346  1  0.187800  0.009010  0.251310  1.0
  C  C347  1  0.687800  0.751310  0.990990  1.0
  C  C348  1  0.687800  0.748690  0.509010  1.0
  C  C349  1  0.812200  0.509010  0.751310  1.0
  C  C350  1  0.812200  0.990990  0.748690  1.0
  C  C351  1  0.312200  0.248690  0.009010  1.0
  C  C352  1  0.312200  0.251310  0.490990  1.0
  C  C353  1  0.257500  0.471000  0.281970  1.0
  C  C354  1  0.257500  0.029000  0.218030  1.0
  C  C355  1  0.757500  0.718030  0.971000  1.0
  C  C356  1  0.757500  0.781970  0.529000  1.0
  C  C357  1  0.742500  0.529000  0.718030  1.0
  C  C358  1  0.742500  0.971000  0.781970  1.0
  C  C359  1  0.242500  0.281970  0.029000  1.0
  C  C360  1  0.242500  0.218030  0.471000  1.0
  C  C361  1  0.629400  0.536820  0.213500  1.0
  C  C362  1  0.629400  0.963180  0.286500  1.0
  C  C363  1  0.129400  0.786500  0.036820  1.0
  C  C364  1  0.129400  0.713500  0.463180  1.0
  C  C365  1  0.370600  0.463180  0.786500  1.0
  C  C366  1  0.370600  0.036820  0.713500  1.0
  C  C367  1  0.870600  0.213500  0.963180  1.0
  C  C368  1  0.870600  0.286500  0.536820  1.0
  C  C369  1  0.657800  0.578400  0.248400  1.0
  C  C370  1  0.657800  0.921600  0.251600  1.0
  C  C371  1  0.157800  0.751600  0.078400  1.0
  C  C372  1  0.157800  0.748400  0.421600  1.0
  C  C373  1  0.342200  0.421600  0.751600  1.0
  C  C374  1  0.342200  0.078400  0.748400  1.0
  C  C375  1  0.842200  0.248400  0.921600  1.0
  C  C376  1  0.842200  0.251600  0.578400  1.0
  C  C377  1  0.746100  0.582400  0.263300  1.0
  C  C378  1  0.746100  0.917600  0.236700  1.0
  C  C379  1  0.246100  0.736700  0.082400  1.0
  C  C380  1  0.246100  0.763300  0.417600  1.0
  C  C381  1  0.253900  0.417600  0.736700  1.0
  C  C382  1  0.253900  0.082400  0.763300  1.0
  C  C383  1  0.753900  0.263300  0.917600  1.0
  C  C384  1  0.753900  0.236700  0.582400  1.0
  C  C385  1  0.781500  0.506900  0.211000  1.0
  C  C386  1  0.781500  0.993100  0.289000  1.0
  C  C387  1  0.281500  0.789000  0.006900  1.0
  C  C388  1  0.281500  0.711000  0.493100  1.0
  C  C389  1  0.218500  0.493100  0.789000  1.0
  C  C390  1  0.218500  0.006900  0.711000  1.0
  C  C391  1  0.718500  0.211000  0.993100  1.0
  C  C392  1  0.718500  0.289000  0.506900  1.0
  C  C393  1  0.693700  0.499600  0.195100  1.0
  C  C394  1  0.693700  0.000400  0.304900  1.0
  C  C395  1  0.193700  0.804900  0.999600  1.0
  C  C396  1  0.193700  0.695100  0.500400  1.0
  C  C397  1  0.306300  0.500400  0.804900  1.0
  C  C398  1  0.306300  0.999600  0.695100  1.0
  C  C399  1  0.806300  0.195100  0.000400  1.0
  C  C400  1  0.806300  0.304900  0.499600  1.0
  C  C401  1  0.400000  0.609420  0.968730  1.0
  C  C402  1  0.400000  0.890580  0.531270  1.0
  C  C403  1  0.900000  0.031270  0.109420  1.0
  C  C404  1  0.900000  0.468730  0.390580  1.0
  C  C405  1  0.600000  0.390580  0.031270  1.0
  C  C406  1  0.600000  0.109420  0.468730  1.0
  C  C407  1  0.100000  0.968730  0.890580  1.0
  C  C408  1  0.100000  0.531270  0.609420  1.0
  C  C409  1  0.446000  0.575740  0.931930  1.0
  C  C410  1  0.446000  0.924260  0.568070  1.0
  C  C411  1  0.946000  0.068070  0.075740  1.0
  C  C412  1  0.946000  0.431930  0.424260  1.0
  C  C413  1  0.554000  0.424260  0.068070  1.0
  C  C414  1  0.554000  0.075740  0.431930  1.0
  C  C415  1  0.054000  0.931930  0.924260  1.0
  C  C416  1  0.054000  0.568070  0.575740  1.0
  C  C417  1  0.471000  0.597800  0.879190  1.0
  C  C418  1  0.471000  0.902200  0.620810  1.0
  C  C419  1  0.971000  0.120810  0.097800  1.0
  C  C420  1  0.971000  0.379190  0.402200  1.0
  C  C421  1  0.529000  0.402200  0.120810  1.0
  C  C422  1  0.529000  0.097800  0.379190  1.0
  C  C423  1  0.029000  0.879190  0.902200  1.0
  C  C424  1  0.029000  0.620810  0.597800  1.0
  C  C425  1  0.413100  0.682310  0.899020  1.0
  C  C426  1  0.413100  0.817690  0.600980  1.0
  C  C427  1  0.913100  0.100980  0.182310  1.0
  C  C428  1  0.913100  0.399020  0.317690  1.0
  C  C429  1  0.586900  0.317690  0.100980  1.0
  C  C430  1  0.586900  0.182310  0.399020  1.0
  C  C431  1  0.086900  0.899020  0.817690  1.0
  C  C432  1  0.086900  0.600980  0.682310  1.0
  C  C433  1  0.385000  0.664640  0.951900  1.0
  C  C434  1  0.385000  0.835360  0.548100  1.0
  C  C435  1  0.885000  0.048100  0.164640  1.0
  C  C436  1  0.885000  0.451900  0.335360  1.0
  C  C437  1  0.615000  0.335360  0.048100  1.0
  C  C438  1  0.615000  0.164640  0.451900  1.0
  C  C439  1  0.115000  0.951900  0.835360  1.0
  C  C440  1  0.115000  0.548100  0.664640  1.0
  C  C441  1  0.997700  0.567230  0.114380  1.0
  C  C442  1  0.997700  0.932770  0.385620  1.0
  C  C443  1  0.497700  0.885620  0.067230  1.0
  C  C444  1  0.497700  0.614380  0.432770  1.0
  C  C445  1  0.002300  0.432770  0.885620  1.0
  C  C446  1  0.002300  0.067230  0.614380  1.0
  C  C447  1  0.502300  0.114380  0.932770  1.0
  C  C448  1  0.502300  0.385620  0.567230  1.0
  C  C449  1  0.957200  0.615500  0.133100  1.0
  C  C450  1  0.957200  0.884500  0.366900  1.0
  C  C451  1  0.457200  0.866900  0.115500  1.0
  C  C452  1  0.457200  0.633100  0.384500  1.0
  C  C453  1  0.042800  0.384500  0.866900  1.0
  C  C454  1  0.042800  0.115500  0.633100  1.0
  C  C455  1  0.542800  0.133100  0.884500  1.0
  C  C456  1  0.542800  0.366900  0.615500  1.0
  C  C457  1  0.867400  0.625600  0.122100  1.0
  C  C458  1  0.867400  0.874400  0.377900  1.0
  C  C459  1  0.367400  0.877900  0.125600  1.0
  C  C460  1  0.367400  0.622100  0.374400  1.0
  C  C461  1  0.132600  0.374400  0.877900  1.0
  C  C462  1  0.132600  0.125600  0.622100  1.0
  C  C463  1  0.632600  0.122100  0.874400  1.0
  C  C464  1  0.632600  0.377900  0.625600  1.0
  C  C465  1  0.857700  0.541400  0.076100  1.0
  C  C466  1  0.857700  0.958600  0.423900  1.0
  C  C467  1  0.357700  0.923900  0.041400  1.0
  C  C468  1  0.357700  0.576100  0.458600  1.0
  C  C469  1  0.142300  0.458600  0.923900  1.0
  C  C470  1  0.142300  0.041400  0.576100  1.0
  C  C471  1  0.642300  0.076100  0.958600  1.0
  C  C472  1  0.642300  0.423900  0.541400  1.0
  C  C473  1  0.945700  0.529700  0.085300  1.0
  C  C474  1  0.945700  0.970300  0.414700  1.0
  C  C475  1  0.445700  0.914700  0.029700  1.0
  C  C476  1  0.445700  0.585300  0.470300  1.0
  C  C477  1  0.054300  0.470300  0.914700  1.0
  C  C478  1  0.054300  0.029700  0.585300  1.0
  C  C479  1  0.554300  0.085300  0.970300  1.0
  C  C480  1  0.554300  0.414700  0.529700  1.0
  C  C481  1  0.232300  0.441880  0.336950  1.0
  C  C482  1  0.232300  0.058120  0.163050  1.0
  C  C483  1  0.732300  0.663050  0.941880  1.0
  C  C484  1  0.732300  0.836950  0.558120  1.0
  C  C485  1  0.767700  0.558120  0.663050  1.0
  C  C486  1  0.767700  0.941880  0.836950  1.0
  C  C487  1  0.267700  0.336950  0.058120  1.0
  C  C488  1  0.267700  0.163050  0.441880  1.0
  C  C489  1  0.209200  0.384960  0.338850  1.0
  C  C490  1  0.209200  0.115040  0.161150  1.0
  C  C491  1  0.709200  0.661150  0.884960  1.0
  C  C492  1  0.709200  0.838850  0.615040  1.0
  C  C493  1  0.790800  0.615040  0.661150  1.0
  C  C494  1  0.790800  0.884960  0.838850  1.0
  C  C495  1  0.290800  0.338850  0.115040  1.0
  C  C496  1  0.290800  0.161150  0.384960  1.0
  C  C497  1  0.192300  0.359970  0.391210  1.0
  C  C498  1  0.192300  0.140030  0.108790  1.0
  C  C499  1  0.692300  0.608790  0.859970  1.0
  C  C500  1  0.692300  0.891210  0.640030  1.0
  C  C501  1  0.807700  0.640030  0.608790  1.0
  C  C502  1  0.807700  0.859970  0.891210  1.0
  C  C503  1  0.307700  0.391210  0.140030  1.0
  C  C504  1  0.307700  0.108790  0.359970  1.0
  C  C505  1  0.212100  0.443190  0.436590  1.0
  C  C506  1  0.212100  0.056810  0.063410  1.0
  C  C507  1  0.712100  0.563410  0.943190  1.0
  C  C508  1  0.712100  0.936590  0.556810  1.0
  C  C509  1  0.787900  0.556810  0.563410  1.0
  C  C510  1  0.787900  0.943190  0.936590  1.0
  C  C511  1  0.287900  0.436590  0.056810  1.0
  C  C512  1  0.287900  0.063410  0.443190  1.0
  C  C513  1  0.230800  0.471050  0.386370  1.0
  C  C514  1  0.230800  0.028950  0.113630  1.0
  C  C515  1  0.730800  0.613630  0.971050  1.0
  C  C516  1  0.730800  0.886370  0.528950  1.0
  C  C517  1  0.769200  0.528950  0.613630  1.0
  C  C518  1  0.769200  0.971050  0.886370  1.0
  C  C519  1  0.269200  0.386370  0.028950  1.0
  C  C520  1  0.269200  0.113630  0.471050  1.0
  N  N521  1  0.383500  0.504170  0.224720  1.0
  N  N522  1  0.383500  0.995830  0.275280  1.0
  N  N523  1  0.883500  0.775280  0.004170  1.0
  N  N524  1  0.883500  0.724720  0.495830  1.0
  N  N525  1  0.616500  0.495830  0.775280  1.0
  N  N526  1  0.616500  0.004170  0.724720  1.0
  N  N527  1  0.116500  0.224720  0.995830  1.0
  N  N528  1  0.116500  0.275280  0.504170  1.0
  N  N529  1  0.432000  0.552730  0.116880  1.0
  N  N530  1  0.432000  0.947270  0.383120  1.0
  N  N531  1  0.932000  0.883120  0.052730  1.0
  N  N532  1  0.932000  0.616880  0.447270  1.0
  N  N533  1  0.568000  0.447270  0.883120  1.0
  N  N534  1  0.568000  0.052730  0.616880  1.0
  N  N535  1  0.068000  0.116880  0.947270  1.0
  N  N536  1  0.068000  0.383120  0.552730  1.0
  N  N537  1  0.246400  0.566330  0.088680  1.0
  N  N538  1  0.246400  0.933670  0.411320  1.0
  N  N539  1  0.746400  0.911320  0.066330  1.0
  N  N540  1  0.746400  0.588680  0.433670  1.0
  N  N541  1  0.753600  0.433670  0.911320  1.0
  N  N542  1  0.753600  0.066330  0.588680  1.0
  N  N543  1  0.253600  0.088680  0.933670  1.0
  N  N544  1  0.253600  0.411320  0.566330  1.0
  N  N545  1  0.197570  0.516080  0.196450  1.0
  N  N546  1  0.197570  0.983920  0.303550  1.0
  N  N547  1  0.697570  0.803550  0.016080  1.0
  N  N548  1  0.697570  0.696450  0.483920  1.0
  N  N549  1  0.802430  0.483920  0.803550  1.0
  N  N550  1  0.802430  0.016080  0.696450  1.0
  N  N551  1  0.302430  0.196450  0.983920  1.0
  N  N552  1  0.302430  0.303550  0.516080  1.0
  N  N553  1  0.808400  0.548000  0.245400  1.0
  N  N554  1  0.808400  0.952000  0.254600  1.0
  N  N555  1  0.308400  0.754600  0.048000  1.0
  N  N556  1  0.308400  0.745400  0.452000  1.0
  N  N557  1  0.191600  0.452000  0.754600  1.0
  N  N558  1  0.191600  0.048000  0.745400  1.0
  N  N559  1  0.691600  0.245400  0.952000  1.0
  N  N560  1  0.691600  0.254600  0.548000  1.0
  N  N561  1  0.455500  0.649900  0.862300  1.0
  N  N562  1  0.455500  0.850100  0.637700  1.0
  N  N563  1  0.955500  0.137700  0.149900  1.0
  N  N564  1  0.955500  0.362300  0.350100  1.0
  N  N565  1  0.544500  0.350100  0.137700  1.0
  N  N566  1  0.544500  0.149900  0.362300  1.0
  N  N567  1  0.044500  0.862300  0.850100  1.0
  N  N568  1  0.044500  0.637700  0.649900  1.0
  N  N569  1  0.817700  0.589200  0.094630  1.0
  N  N570  1  0.817700  0.910800  0.405370  1.0
  N  N571  1  0.317700  0.905370  0.089200  1.0
  N  N572  1  0.317700  0.594630  0.410800  1.0
  N  N573  1  0.182300  0.410800  0.905370  1.0
  N  N574  1  0.182300  0.089200  0.594630  1.0
  N  N575  1  0.682300  0.094630  0.910800  1.0
  N  N576  1  0.682300  0.405370  0.589200  1.0
  N  N577  1  0.194530  0.388160  0.440040  1.0
  N  N578  1  0.194530  0.111840  0.059960  1.0
  N  N579  1  0.694530  0.559960  0.888160  1.0
  N  N580  1  0.694530  0.940040  0.611840  1.0
  N  N581  1  0.805470  0.611840  0.559960  1.0
  N  N582  1  0.805470  0.888160  0.940040  1.0
  N  N583  1  0.305470  0.440040  0.111840  1.0
  N  N584  1  0.305470  0.059960  0.388160  1.0
