# generated using pymatgen
data_H33Pd3C39N15O11
_symmetry_space_group_name_H-M   'P 1'
_cell_length_a   15.46140000
_cell_length_b   18.18309985
_cell_length_c   18.18309985
_cell_angle_alpha   87.90767360
_cell_angle_beta   69.56894482
_cell_angle_gamma   69.56894482
_symmetry_Int_Tables_number   1
_chemical_formula_structural   H33Pd3C39N15O11
_chemical_formula_sum   'H132 Pd12 C156 N60 O44'
_cell_volume   4467.75207675
_cell_formula_units_Z   4
loop_
 _symmetry_equiv_pos_site_id
 _symmetry_equiv_pos_as_xyz
  1  'x, y, z'
loop_
 _atom_site_type_symbol
 _atom_site_label
 _atom_site_symmetry_multiplicity
 _atom_site_fract_x
 _atom_site_fract_y
 _atom_site_fract_z
 _atom_site_occupancy
  C  C1  1  0.216600  0.713700  0.757300  1
  C  C2  1  0.283400  0.242700  0.286300  1
  C  C3  1  0.783400  0.286300  0.242700  1
  C  C4  1  0.716600  0.757300  0.713700  1
  C  C5  1  0.309200  0.770900  0.772700  1
  C  C6  1  0.190800  0.227300  0.229100  1
  C  C7  1  0.690800  0.229100  0.227300  1
  C  C8  1  0.809200  0.772700  0.770900  1
  C  C9  1  0.093500  0.632300  0.938900  1
  C  C10  1  0.406500  0.061100  0.367700  1
  C  C11  1  0.906500  0.367700  0.061100  1
  C  C12  1  0.593500  0.938900  0.632300  1
  C  C13  1  0.001700  0.961500  0.858700  1
  C  C14  1  0.498300  0.141300  0.038500  1
  C  C15  1  0.998300  0.038500  0.141300  1
  C  C16  1  0.501700  0.858700  0.961500  1
  C  C17  1  0.848000  0.779000  0.007400  1
  C  C18  1  0.652000  0.992600  0.221000  1
  C  C19  1  0.152000  0.221000  0.992600  1
  C  C20  1  0.348000  0.007400  0.779000  1
  C  C21  1  0.237800  0.841000  0.596600  1
  C  C22  1  0.262200  0.403400  0.159000  1
  C  C23  1  0.762200  0.159000  0.403400  1
  C  C24  1  0.737800  0.596600  0.841000  1
  C  C25  1  0.854900  0.094600  0.700000  1
  C  C26  1  0.645100  0.300000  0.905400  1
  C  C27  1  0.145100  0.905400  0.300000  1
  C  C28  1  0.354900  0.700000  0.094600  1
  C  C29  1  0.565400  0.597700  0.484500  1
  C  C30  1  0.934600  0.515500  0.402300  1
  C  C31  1  0.434600  0.402300  0.515500  1
  C  C32  1  0.065400  0.484500  0.597700  1
  C  C33  1  0.552800  0.548300  0.548500  1
  C  C34  1  0.947200  0.451500  0.451700  1
  C  C35  1  0.447200  0.451700  0.451500  1
  C  C36  1  0.052800  0.548500  0.548300  1
  C  C37  1  0.035400  0.129400  0.434000  1
  C  C38  1  0.464600  0.566000  0.870600  1
  C  C39  1  0.964600  0.870600  0.566000  1
  C  C40  1  0.535400  0.434000  0.129400  1
  C  C41  1  0.028600  0.892300  0.750900  1
  C  C42  1  0.471400  0.249100  0.107700  1
  C  C43  1  0.971400  0.107700  0.249100  1
  C  C44  1  0.528600  0.750900  0.892300  1
  C  C45  1  0.501400  0.718800  0.443400  1
  C  C46  1  0.998600  0.556600  0.281200  1
  C  C47  1  0.498600  0.281200  0.556600  1
  C  C48  1  0.001400  0.443400  0.718800  1
  C  C49  1  0.023400  0.095500  0.504300  1
  C  C50  1  0.476600  0.495700  0.904500  1
  C  C51  1  0.976600  0.904500  0.495700  1
  C  C52  1  0.523400  0.504300  0.095500  1
  C  C53  1  0.934000  0.122100  0.573100  1
  C  C54  1  0.566000  0.426900  0.877900  1
  C  C55  1  0.066000  0.877900  0.426900  1
  C  C56  1  0.434000  0.573100  0.122100  1
  C  C57  1  0.928800  0.708500  0.006500  1
  C  C58  1  0.571200  0.993500  0.291500  1
  C  C59  1  0.071200  0.291500  0.993500  1
  C  C60  1  0.428800  0.006500  0.708500  1
  C  C61  1  0.086500  0.574300  0.988100  1
  C  C62  1  0.413500  0.011900  0.425700  1
  C  C63  1  0.913500  0.425700  0.011900  1
  C  C64  1  0.586500  0.988100  0.574300  1
  C  C65  1  0.766100  0.156300  0.708300  1
  C  C66  1  0.733900  0.291700  0.843700  1
  C  C67  1  0.233900  0.843700  0.291700  1
  C  C68  1  0.266100  0.708300  0.156300  1
  C  C69  1  0.121600  0.098200  0.371000  1
  C  C70  1  0.378400  0.629000  0.901800  1
  C  C71  1  0.878400  0.901800  0.629000  1
  C  C72  1  0.621600  0.371000  0.098200  1
  C  C73  1  0.613800  0.470300  0.546100  1
  C  C74  1  0.886200  0.453900  0.529700  1
  C  C75  1  0.386200  0.529700  0.453900  1
  C  C76  1  0.113800  0.546100  0.470300  1
  C  C77  1  0.593100  0.428900  0.609900  1
  C  C78  1  0.906900  0.390100  0.571100  1
  C  C79  1  0.406900  0.571100  0.390100  1
  C  C80  1  0.093100  0.609900  0.428900  1
  C  C81  1  0.513700  0.463000  0.676000  1
  C  C82  1  0.986300  0.324000  0.537000  1
  C  C83  1  0.486300  0.537000  0.324000  1
  C  C84  1  0.013700  0.676000  0.463000  1
  C  C85  1  0.643900  0.573500  0.412100  1
  C  C86  1  0.856100  0.587900  0.426500  1
  C  C87  1  0.356100  0.426500  0.587900  1
  C  C88  1  0.143900  0.412100  0.573500  1
  C  C89  1  0.223600  0.792600  0.837600  1
  C  C90  1  0.276400  0.162400  0.207400  1
  C  C91  1  0.776400  0.207400  0.162400  1
  C  C92  1  0.723600  0.837600  0.792600  1
  C  C93  1  0.455000  0.540400  0.676200  1
  C  C94  1  0.045000  0.323800  0.459600  1
  C  C95  1  0.545000  0.459600  0.323800  1
  C  C96  1  0.955000  0.676200  0.540400  1
  C  C97  1  0.197100  0.032100  0.379500  1
  C  C98  1  0.302900  0.620500  0.967900  1
  C  C99  1  0.802900  0.967900  0.620500  1
  C  C100  1  0.697100  0.379500  0.032100  1
  C  C101  1  0.012200  0.005400  0.797800  1
  C  C102  1  0.487800  0.202200  0.994600  1
  C  C103  1  0.987800  0.994600  0.202200  1
  C  C104  1  0.512200  0.797800  0.005400  1
  C  C105  1  0.181300  0.002400  0.452400  1
  C  C106  1  0.318700  0.547600  0.997600  1
  C  C107  1  0.818700  0.997600  0.547600  1
  C  C108  1  0.681300  0.452400  0.002400  1
  C  C109  1  0.706500  0.913600  0.989200  1
  C  C110  1  0.793500  0.010800  0.086400  1
  C  C111  1  0.293500  0.086400  0.010800  1
  C  C112  1  0.206500  0.989200  0.913600  1
  C  C113  1  0.355000  0.871300  0.606300  1
  C  C114  1  0.145000  0.393700  0.128700  1
  C  C115  1  0.645000  0.128700  0.393700  1
  C  C116  1  0.855000  0.606300  0.871300  1
  C  C117  1  0.280400  0.938500  0.609300  1
  C  C118  1  0.219600  0.390700  0.061500  1
  C  C119  1  0.719600  0.061500  0.390700  1
  C  C120  1  0.780400  0.609300  0.938500  1
  C  C121  1  0.847400  0.184800  0.577000  1
  C  C122  1  0.652600  0.423000  0.815200  1
  C  C123  1  0.152600  0.815200  0.423000  1
  C  C124  1  0.347400  0.577000  0.184800  1
  C  C125  1  0.749900  0.802900  0.055300  1
  C  C126  1  0.750100  0.944700  0.197100  1
  C  C127  1  0.250100  0.197100  0.944700  1
  C  C128  1  0.249900  0.055300  0.802900  1
  C  C129  1  0.804800  0.890500  0.939700  1
  C  C130  1  0.695200  0.060300  0.109500  1
  C  C131  1  0.195200  0.109500  0.060300  1
  C  C132  1  0.304800  0.939700  0.890500  1
  C  C133  1  0.677900  0.870200  0.049200  1
  C  C134  1  0.822100  0.950800  0.129800  1
  C  C135  1  0.322100  0.129800  0.950800  1
  C  C136  1  0.177900  0.049200  0.870200  1
  C  C137  1  0.000500  0.583500  0.050100  1
  C  C138  1  0.499500  0.949900  0.416500  1
  C  C139  1  0.999500  0.416500  0.949900  1
  C  C140  1  0.500500  0.050100  0.583500  1
  C  C141  1  0.920600  0.650300  0.059100  1
  C  C142  1  0.579400  0.940900  0.349700  1
  C  C143  1  0.079400  0.349700  0.940900  1
  C  C144  1  0.420600  0.059100  0.650300  1
  C  C145  1  0.647300  0.625500  0.355700  1
  C  C146  1  0.852700  0.644300  0.374500  1
  C  C147  1  0.352700  0.374500  0.644300  1
  C  C148  1  0.147300  0.355700  0.625500  1
  C  C149  1  0.768800  0.199400  0.643400  1
  C  C150  1  0.731200  0.356600  0.800600  1
  C  C151  1  0.231200  0.800600  0.356600  1
  C  C152  1  0.268800  0.643400  0.199400  1
  C  C153  1  0.576600  0.698500  0.369700  1
  C  C154  1  0.923400  0.630300  0.301500  1
  C  C155  1  0.423400  0.301500  0.630300  1
  C  C156  1  0.076600  0.369700  0.698500  1
  H  H157  1  0.192900  0.682600  0.734000  1
  H  H158  1  0.307100  0.266000  0.317400  1
  H  H159  1  0.807100  0.317400  0.266000  1
  H  H160  1  0.692900  0.734000  0.682600  1
  H  H161  1  0.362400  0.788900  0.764300  1
  H  H162  1  0.137600  0.235700  0.211100  1
  H  H163  1  0.637600  0.211100  0.235700  1
  H  H164  1  0.862400  0.764300  0.788900  1
  H  H165  1  0.154300  0.625100  0.897100  1
  H  H166  1  0.345700  0.102900  0.374900  1
  H  H167  1  0.845700  0.374900  0.102900  1
  H  H168  1  0.654300  0.897100  0.625100  1
  H  H169  1  0.990400  0.976600  0.911600  1
  H  H170  1  0.509600  0.088400  0.023400  1
  H  H171  1  0.009600  0.023400  0.088400  1
  H  H172  1  0.490400  0.911600  0.976600  1
  H  H173  1  0.200400  0.810900  0.591500  1
  H  H174  1  0.299600  0.408500  0.189100  1
  H  H175  1  0.799600  0.189100  0.408500  1
  H  H176  1  0.700400  0.591500  0.810900  1
  H  H177  1  0.857600  0.062100  0.741900  1
  H  H178  1  0.642400  0.258100  0.937900  1
  H  H179  1  0.142400  0.937900  0.258100  1
  H  H180  1  0.357600  0.741900  0.062100  1
  H  H181  1  0.983600  0.174600  0.429400  1
  H  H182  1  0.516400  0.570600  0.825400  1
  H  H183  1  0.016400  0.825400  0.570600  1
  H  H184  1  0.483600  0.429400  0.174600  1
  H  H185  1  0.039200  0.850100  0.715700  1
  H  H186  1  0.460800  0.284300  0.149900  1
  H  H187  1  0.960800  0.149900  0.284300  1
  H  H188  1  0.539200  0.715700  0.850100  1
  H  H189  1  0.452000  0.770100  0.453900  1
  H  H190  1  0.048000  0.546100  0.229900  1
  H  H191  1  0.548000  0.229900  0.546100  1
  H  H192  1  0.952000  0.453900  0.770100  1
  H  H193  1  0.141900  0.526800  0.979200  1
  H  H194  1  0.358100  0.020800  0.473200  1
  H  H195  1  0.858100  0.473200  0.020800  1
  H  H196  1  0.641900  0.979200  0.526800  1
  H  H197  1  0.708600  0.167800  0.754600  1
  H  H198  1  0.791400  0.245400  0.832200  1
  H  H199  1  0.291400  0.832200  0.245400  1
  H  H200  1  0.208600  0.754600  0.167800  1
  H  H201  1  0.130300  0.120800  0.322200  1
  H  H202  1  0.369700  0.677800  0.879200  1
  H  H203  1  0.869700  0.879200  0.677800  1
  H  H204  1  0.630300  0.322200  0.120800  1
  H  H205  1  0.669900  0.445900  0.499900  1
  H  H206  1  0.830100  0.500100  0.554100  1
  H  H207  1  0.330100  0.554100  0.500100  1
  H  H208  1  0.169900  0.499900  0.445900  1
  H  H209  1  0.634700  0.375700  0.607900  1
  H  H210  1  0.865300  0.392100  0.624300  1
  H  H211  1  0.365300  0.624300  0.392100  1
  H  H212  1  0.134700  0.607900  0.375700  1
  H  H213  1  0.498800  0.434800  0.720800  1
  H  H214  1  0.001200  0.279200  0.565200  1
  H  H215  1  0.501200  0.565200  0.279200  1
  H  H216  1  0.998800  0.720800  0.434800  1
  H  H217  1  0.693400  0.522400  0.402200  1
  H  H218  1  0.806600  0.597800  0.477600  1
  H  H219  1  0.306600  0.477600  0.597800  1
  H  H220  1  0.193400  0.402200  0.522400  1
  H  H221  1  0.207700  0.827200  0.882200  1
  H  H222  1  0.292300  0.117800  0.172800  1
  H  H223  1  0.792300  0.172800  0.117800  1
  H  H224  1  0.707700  0.882200  0.827200  1
  H  H225  1  0.399300  0.565000  0.722400  1
  H  H226  1  0.100700  0.277600  0.435000  1
  H  H227  1  0.600700  0.435000  0.277600  1
  H  H228  1  0.899300  0.722400  0.565000  1
  H  H229  1  0.257400  0.008300  0.336500  1
  H  H230  1  0.242600  0.663500  0.991700  1
  H  H231  1  0.742600  0.991700  0.663500  1
  H  H232  1  0.757400  0.336500  0.008300  1
  H  H233  1  0.008200  0.058500  0.801100  1
  H  H234  1  0.491800  0.198900  0.941500  1
  H  H235  1  0.991800  0.941500  0.198900  1
  H  H236  1  0.508200  0.801100  0.058500  1
  H  H237  1  0.233100  0.959000  0.459400  1
  H  H238  1  0.266900  0.540600  0.041000  1
  H  H239  1  0.766900  0.041000  0.540600  1
  H  H240  1  0.733100  0.459400  0.959000  1
  H  H241  1  0.658900  0.959800  0.981200  1
  H  H242  1  0.841100  0.018800  0.040200  1
  H  H243  1  0.341100  0.040200  0.018800  1
  H  H244  1  0.158900  0.981200  0.959800  1
  H  H245  1  0.416100  0.867900  0.609900  1
  H  H246  1  0.083900  0.390100  0.132100  1
  H  H247  1  0.583900  0.132100  0.390100  1
  H  H248  1  0.916100  0.609900  0.867900  1
  H  H249  1  0.279900  0.990400  0.614400  1
  H  H250  1  0.220100  0.385600  0.009600  1
  H  H251  1  0.720100  0.009600  0.385600  1
  H  H252  1  0.779900  0.614400  0.990400  1
  H  H253  1  0.844900  0.215600  0.534000  1
  H  H254  1  0.655100  0.466000  0.784400  1
  H  H255  1  0.155100  0.784400  0.466000  1
  H  H256  1  0.344900  0.534000  0.215600  1
  H  H257  1  0.730800  0.770500  0.095300  1
  H  H258  1  0.769200  0.904700  0.229500  1
  H  H259  1  0.269200  0.229500  0.904700  1
  H  H260  1  0.230800  0.095300  0.770500  1
  H  H261  1  0.823800  0.921400  0.898000  1
  H  H262  1  0.676200  0.102000  0.078600  1
  H  H263  1  0.176200  0.078600  0.102000  1
  H  H264  1  0.323800  0.898000  0.921400  1
  H  H265  1  0.611500  0.885700  0.084900  1
  H  H266  1  0.888500  0.915100  0.114300  1
  H  H267  1  0.388500  0.114300  0.915100  1
  H  H268  1  0.111500  0.084900  0.885700  1
  H  H269  1  0.996800  0.544400  0.086000  1
  H  H270  1  0.503200  0.914000  0.455600  1
  H  H271  1  0.003200  0.455600  0.914000  1
  H  H272  1  0.496800  0.086000  0.544400  1
  H  H273  1  0.859600  0.657800  0.100800  1
  H  H274  1  0.640400  0.899200  0.342200  1
  H  H275  1  0.140400  0.342200  0.899200  1
  H  H276  1  0.359600  0.100800  0.657800  1
  H  H277  1  0.699900  0.610200  0.306000  1
  H  H278  1  0.800100  0.694000  0.389800  1
  H  H279  1  0.300100  0.389800  0.694000  1
  H  H280  1  0.199900  0.306000  0.610200  1
  H  H281  1  0.710500  0.242500  0.646500  1
  H  H282  1  0.789500  0.353500  0.757500  1
  H  H283  1  0.289500  0.757500  0.353500  1
  H  H284  1  0.210500  0.646500  0.242500  1
  H  H285  1  0.578500  0.734600  0.330600  1
  H  H286  1  0.921500  0.669400  0.265400  1
  H  H287  1  0.421500  0.265400  0.669400  1
  H  H288  1  0.078500  0.330600  0.734600  1
  N  N289  1  0.305800  0.720400  0.723400  1
  N  N290  1  0.194200  0.276600  0.279600  1
  N  N291  1  0.694200  0.279600  0.276600  1
  N  N292  1  0.805800  0.723400  0.720400  1
  N  N293  1  0.165800  0.755600  0.826800  1
  N  N294  1  0.334200  0.173200  0.244400  1
  N  N295  1  0.834200  0.244400  0.173200  1
  N  N296  1  0.665800  0.826800  0.755600  1
  N  N297  1  0.010900  0.888800  0.827800  1
  N  N298  1  0.489100  0.172200  0.111200  1
  N  N299  1  0.989100  0.111200  0.172200  1
  N  N300  1  0.510900  0.827800  0.888800  1
  N  N301  1  0.016600  0.698900  0.948700  1
  N  N302  1  0.483400  0.051300  0.301100  1
  N  N303  1  0.983400  0.301100  0.051300  1
  N  N304  1  0.516600  0.948700  0.698900  1
  N  N305  1  0.873100  0.826000  0.949600  1
  N  N306  1  0.626900  0.050400  0.174000  1
  N  N307  1  0.126900  0.174000  0.050400  1
  N  N308  1  0.373100  0.949600  0.826000  1
  N  N309  1  0.935700  0.079800  0.635600  1
  N  N310  1  0.564300  0.364400  0.920200  1
  N  N311  1  0.064300  0.920200  0.364400  1
  N  N312  1  0.435700  0.635600  0.079800  1
  N  N313  1  0.472400  0.581700  0.615100  1
  N  N314  1  0.027600  0.384900  0.418300  1
  N  N315  1  0.527600  0.418300  0.384900  1
  N  N316  1  0.972400  0.615100  0.581700  1
  N  N317  1  0.204500  0.918300  0.603500  1
  N  N318  1  0.295500  0.396500  0.081700  1
  N  N319  1  0.795500  0.081700  0.396500  1
  N  N320  1  0.704500  0.603500  0.918300  1
  N  N321  1  0.328800  0.808700  0.597500  1
  N  N322  1  0.171200  0.402500  0.191300  1
  N  N323  1  0.671200  0.191300  0.402500  1
  N  N324  1  0.828800  0.597500  0.808700  1
  N  N325  1  0.494700  0.671100  0.499500  1
  N  N326  1  0.005300  0.500500  0.328900  1
  N  N327  1  0.505300  0.328900  0.500500  1
  N  N328  1  0.994700  0.499500  0.671100  1
  N  N329  1  0.029500  0.963200  0.730200  1
  N  N330  1  0.470500  0.269800  0.036800  1
  N  N331  1  0.970500  0.036800  0.269800  1
  N  N332  1  0.529500  0.730200  0.963200  1
  N  N333  1  0.098300  0.031900  0.511300  1
  N  N334  1  0.401700  0.488700  0.968100  1
  N  N335  1  0.901700  0.968100  0.488700  1
  N  N336  1  0.598300  0.511300  0.031900  1
  N  N337  1  0.142300  0.670900  0.613100  1
  N  N338  1  0.357700  0.386900  0.329100  1
  N  N339  1  0.857700  0.329100  0.386900  1
  N  N340  1  0.642300  0.613100  0.670900  1
  N  N341  1  0.394700  0.950500  0.170700  1
  N  N342  1  0.105300  0.829300  0.049500  1
  N  N343  1  0.605300  0.049500  0.829300  1
  N  N344  1  0.894700  0.170700  0.950500  1
  N  N345  1  0.683100  0.580500  0.162700  1
  N  N346  1  0.816900  0.837300  0.419500  1
  N  N347  1  0.316900  0.419500  0.837300  1
  N  N348  1  0.183100  0.162700  0.580500  1
  O  O349  1  0.063000  0.724100  0.660900  1
  O  O350  1  0.437000  0.339100  0.275900  1
  O  O351  1  0.937000  0.275900  0.339100  1
  O  O352  1  0.563000  0.660900  0.724100  1
  O  O353  1  0.192200  0.686400  0.544400  1
  O  O354  1  0.307800  0.455600  0.313600  1
  O  O355  1  0.807800  0.313600  0.455600  1
  O  O356  1  0.692200  0.544400  0.686400  1
  O  O357  1  0.173800  0.600300  0.633900  1
  O  O358  1  0.326200  0.366100  0.399700  1
  O  O359  1  0.826200  0.399700  0.366100  1
  O  O360  1  0.673800  0.633900  0.600300  1
  O  O361  1  0.444900  0.983400  0.116200  1
  O  O362  1  0.055100  0.883800  0.016600  1
  O  O363  1  0.555100  0.016600  0.883800  1
  O  O364  1  0.944900  0.116200  0.983400  1
  O  O365  1  0.305200  0.970700  0.171100  1
  O  O366  1  0.194800  0.828900  0.029300  1
  O  O367  1  0.694800  0.029300  0.828900  1
  O  O368  1  0.805200  0.171100  0.970700  1
  O  O369  1  0.440500  0.908600  0.214400  1
  O  O370  1  0.059500  0.785600  0.091400  1
  O  O371  1  0.559500  0.091400  0.785600  1
  O  O372  1  0.940500  0.214400  0.908600  1
  O  O373  1  0.699500  0.506500  0.173500  1
  O  O374  1  0.800500  0.826500  0.493500  1
  O  O375  1  0.300500  0.493500  0.826500  1
  O  O376  1  0.199500  0.173500  0.506500  1
  O  O377  1  0.595500  0.627000  0.166600  1
  O  O378  1  0.904500  0.833400  0.373000  1
  O  O379  1  0.404500  0.373000  0.833400  1
  O  O380  1  0.095500  0.166600  0.627000  1
  O  O381  1  0.749600  0.610100  0.159300  1
  O  O382  1  0.750400  0.840700  0.389900  1
  O  O383  1  0.250400  0.389900  0.840700  1
  O  O384  1  0.249600  0.159300  0.610100  1
  O  O385  1  0.603500  0.785700  0.548100  1
  O  O386  1  0.896500  0.451900  0.214300  1
  O  O387  1  0.396500  0.214300  0.451900  1
  O  O388  1  0.103500  0.548100  0.785700  1
  O  O389  1  0.484000  0.757700  0.230300  1
  O  O390  1  0.016000  0.769700  0.242300  1
  O  O391  1  0.516000  0.242300  0.769700  1
  O  O392  1  0.984000  0.230300  0.757700  1
  Pd  Pd393  1  0.397510  0.695800  0.609920  1
  Pd  Pd394  1  0.102490  0.390080  0.304200  1
  Pd  Pd395  1  0.602490  0.304200  0.390080  1
  Pd  Pd396  1  0.897510  0.609920  0.695800  1
  Pd  Pd397  1  0.018670  0.791300  0.884920  1
  Pd  Pd398  1  0.481330  0.115080  0.208700  1
  Pd  Pd399  1  0.981330  0.208700  0.115080  1
  Pd  Pd400  1  0.518670  0.884920  0.791300  1
  Pd  Pd401  1  0.067940  0.994920  0.620860  1
  Pd  Pd402  1  0.432060  0.379140  0.005080  1
  Pd  Pd403  1  0.932060  0.005080  0.379140  1
  Pd  Pd404  1  0.567940  0.620860  0.994920  1
