# generated using pymatgen
data_Ag2B3H56C71(N2F)9
_symmetry_space_group_name_H-M   'P 1'
_cell_length_a   11.23600000
_cell_length_b   17.95694863
_cell_length_c   38.28989963
_cell_angle_alpha   84.44070332
_cell_angle_beta   81.56294647
_cell_angle_gamma   71.76836460
_symmetry_Int_Tables_number   1
_chemical_formula_structural   Ag2B3H56C71(N2F)9
_chemical_formula_sum   'Ag8 B12 H224 C284 N72 F36'
_cell_volume   7247.60653714
_cell_formula_units_Z   4
loop_
 _symmetry_equiv_pos_site_id
 _symmetry_equiv_pos_as_xyz
  1  'x, y, z'
loop_
 _atom_site_type_symbol
 _atom_site_label
 _atom_site_symmetry_multiplicity
 _atom_site_fract_x
 _atom_site_fract_y
 _atom_site_fract_z
 _atom_site_occupancy
  Ag  Ag1  1  0.966810  0.385070  0.378770  1.0
  Ag  Ag2  1  0.730650  0.114930  0.121230  1.0
  Ag  Ag3  1  0.033190  0.614930  0.621230  1.0
  Ag  Ag4  1  0.269350  0.885070  0.878770  1.0
  Ag  Ag5  1  0.338670  0.449300  0.131240  1.0
  Ag  Ag6  1  0.919210  0.050700  0.368760  1.0
  Ag  Ag7  1  0.661330  0.550700  0.868760  1.0
  Ag  Ag8  1  0.080790  0.949300  0.631240  1.0
  B  B9  1  0.460200  0.211300  0.315700  1
  B  B10  1  0.987200  0.288700  0.184300  1
  B  B11  1  0.539800  0.788700  0.684300  1
  B  B12  1  0.012800  0.711300  0.815700  1
  B  B13  1  0.382300  0.240000  0.945000  1
  B  B14  1  0.567300  0.260000  0.555000  1
  B  B15  1  0.617700  0.760000  0.055000  1
  B  B16  1  0.432700  0.740000  0.445000  1
  B  B17  1  0.471600  0.250400  0.317400  1
  B  B18  1  0.039400  0.249600  0.182600  1
  B  B19  1  0.528400  0.749600  0.682600  1
  B  B20  1  0.960600  0.750400  0.817400  1
  C  C21  1  0.727600  0.099500  0.992900  1
  C  C22  1  0.820000  0.400500  0.507100  1
  C  C23  1  0.272400  0.900500  0.007100  1
  C  C24  1  0.180000  0.599500  0.492900  1
  C  C25  1  0.824500  0.069000  0.014000  1
  C  C26  1  0.907500  0.431000  0.486000  1
  C  C27  1  0.175500  0.931000  0.986000  1
  C  C28  1  0.092500  0.569000  0.514000  1
  C  C29  1  0.896700  0.115200  0.020600  1
  C  C30  1  0.032500  0.384800  0.479400  1
  C  C31  1  0.103300  0.884800  0.979400  1
  C  C32  1  0.967500  0.615200  0.520600  1
  C  C33  1  0.871900  0.191700  0.006300  1
  C  C34  1  0.069900  0.308300  0.493700  1
  C  C35  1  0.128100  0.808300  0.993700  1
  C  C36  1  0.930100  0.691700  0.506300  1
  C  C37  1  0.774900  0.222300  0.985300  1
  C  C38  1  0.982500  0.277700  0.514700  1
  C  C39  1  0.225100  0.777700  0.014700  1
  C  C40  1  0.017500  0.722300  0.485300  1
  C  C41  1  0.702900  0.176000  0.978600  1
  C  C42  1  0.857500  0.324000  0.521400  1
  C  C43  1  0.297100  0.824000  0.021400  1
  C  C44  1  0.142500  0.676000  0.478600  1
  C  C45  1  0.647600  0.041200  0.986800  1
  C  C46  1  0.675600  0.458800  0.513200  1
  C  C47  1  0.352400  0.958800  0.013200  1
  C  C48  1  0.324400  0.541200  0.486800  1
  C  C49  1  0.545500  0.436500  0.980100  1
  C  C50  1  0.962100  0.063500  0.519900  1
  C  C51  1  0.454500  0.563500  0.019900  1
  C  C52  1  0.037900  0.936500  0.480100  1
  C  C53  1  0.424500  0.455700  0.995300  1
  C  C54  1  0.875500  0.044300  0.504700  1
  C  C55  1  0.575500  0.544300  0.004700  1
  C  C56  1  0.124500  0.955700  0.495300  1
  C  C57  1  0.375700  0.519600  0.016600  1
  C  C58  1  0.911900  0.980400  0.483400  1
  C  C59  1  0.624300  0.480400  0.983400  1
  C  C60  1  0.088100  0.019600  0.516600  1
  C  C61  1  0.263200  0.531900  0.031700  1
  C  C62  1  0.826800  0.968100  0.468300  1
  C  C63  1  0.736800  0.468100  0.968300  1
  C  C64  1  0.173200  0.031900  0.531700  1
  C  C65  1  0.096540  0.507640  0.395680  1.0
  C  C66  1  0.999860  0.992360  0.104320  1.0
  C  C67  1  0.903460  0.492360  0.604320  1.0
  C  C68  1  0.000140  0.007640  0.895680  1.0
  C  C69  1  0.188930  0.544280  0.395460  1.0
  C  C70  1  0.128670  0.955720  0.104540  1.0
  C  C71  1  0.811070  0.455720  0.604540  1.0
  C  C72  1  0.871330  0.044280  0.895460  1.0
  C  C73  1  0.312900  0.507000  0.381800  1.0
  C  C74  1  0.201700  0.993000  0.118200  1.0
  C  C75  1  0.687100  0.493000  0.618200  1.0
  C  C76  1  0.798300  0.007000  0.881800  1.0
  C  C77  1  0.344600  0.433200  0.368400  1.0
  C  C78  1  0.146200  0.066800  0.131600  1.0
  C  C79  1  0.655400  0.566800  0.631600  1.0
  C  C80  1  0.853800  0.933200  0.868400  1.0
  C  C81  1  0.252200  0.396630  0.368570  1.0
  C  C82  1  0.017400  0.103370  0.131430  1.0
  C  C83  1  0.747800  0.603370  0.631430  1.0
  C  C84  1  0.982600  0.896630  0.868570  1.0
  C  C85  1  0.974700  0.541590  0.409010  1.0
  C  C86  1  0.925300  0.958410  0.090990  1.0
  C  C87  1  0.025300  0.458410  0.590990  1.0
  C  C88  1  0.074700  0.041590  0.909010  1.0
  C  C89  1  0.918110  0.607690  0.429890  1.0
  C  C90  1  0.955690  0.892310  0.070110  1.0
  C  C91  1  0.081890  0.392310  0.570110  1.0
  C  C92  1  0.044310  0.107690  0.929890  1.0
  C  C93  1  0.786750  0.617020  0.437080  1.0
  C  C94  1  0.840850  0.882980  0.062920  1.0
  C  C95  1  0.213250  0.382980  0.562920  1.0
  C  C96  1  0.159150  0.117020  0.937080  1.0
  C  C97  1  0.651100  0.543100  0.417100  1.0
  C  C98  1  0.611300  0.956900  0.082900  1.0
  C  C99  1  0.348900  0.456900  0.582900  1.0
  C  C100  1  0.388700  0.043100  0.917100  1.0
  C  C101  1  0.080300  0.579800  0.122600  1.0
  C  C102  1  0.782700  0.920200  0.377400  1.0
  C  C103  1  0.919700  0.420200  0.877400  1.0
  C  C104  1  0.217300  0.079800  0.622600  1.0
  C  C105  1  0.950800  0.615700  0.124300  1.0
  C  C106  1  0.690800  0.884300  0.375700  1.0
  C  C107  1  0.049200  0.384300  0.875700  1.0
  C  C108  1  0.309200  0.115700  0.624300  1.0
  C  C109  1  0.868500  0.570800  0.131600  1.0
  C  C110  1  0.570900  0.929200  0.368400  1.0
  C  C111  1  0.131500  0.429200  0.868400  1.0
  C  C112  1  0.429100  0.070800  0.631600  1.0
  C  C113  1  0.915800  0.489800  0.137200  1.0
  C  C114  1  0.542800  0.010200  0.362800  1.0
  C  C115  1  0.084200  0.510200  0.862800  1.0
  C  C116  1  0.457200  0.989800  0.637200  1.0
  C  C117  1  0.045300  0.453900  0.135500  1.0
  C  C118  1  0.634700  0.046100  0.364500  1.0
  C  C119  1  0.954700  0.546100  0.864500  1.0
  C  C120  1  0.365300  0.953900  0.635500  1.0
  C  C121  1  0.160600  0.622700  0.114700  1.0
  C  C122  1  0.898000  0.877300  0.385300  1.0
  C  C123  1  0.839400  0.377300  0.885300  1.0
  C  C124  1  0.102000  0.122700  0.614700  1.0
  C  C125  1  0.142700  0.703800  0.106200  1.0
  C  C126  1  0.952700  0.796200  0.393800  1.0
  C  C127  1  0.857300  0.296200  0.893800  1.0
  C  C128  1  0.047300  0.203800  0.606200  1.0
  C  C129  1  0.262600  0.716600  0.102200  1.0
  C  C130  1  0.081400  0.783400  0.397800  1.0
  C  C131  1  0.737400  0.283400  0.897800  1.0
  C  C132  1  0.918600  0.216600  0.602200  1.0
  C  C133  1  0.484300  0.625400  0.111000  1.0
  C  C134  1  0.220700  0.874600  0.389000  1.0
  C  C135  1  0.515700  0.374600  0.889000  1.0
  C  C136  1  0.779300  0.125400  0.611000  1.0
  C  C137  1  0.624740  0.551790  0.379130  1.0
  C  C138  1  0.555660  0.948210  0.120870  1.0
  C  C139  1  0.375260  0.448210  0.620870  1.0
  C  C140  1  0.444340  0.051790  0.879130  1.0
  C  C141  1  0.630080  0.489250  0.359590  1.0
  C  C142  1  0.478920  0.010750  0.140410  1.0
  C  C143  1  0.369920  0.510750  0.640410  1.0
  C  C144  1  0.521080  0.989250  0.859590  1.0
  C  C145  1  0.611540  0.501990  0.324130  1.0
  C  C146  1  0.437660  0.998010  0.175870  1.0
  C  C147  1  0.388460  0.498010  0.675870  1.0
  C  C148  1  0.562340  0.001990  0.824130  1.0
  C  C149  1  0.587660  0.577260  0.308220  1.0
  C  C150  1  0.473140  0.922740  0.191780  1.0
  C  C151  1  0.412340  0.422740  0.691780  1.0
  C  C152  1  0.526860  0.077260  0.808220  1.0
  C  C153  1  0.582320  0.639810  0.327750  1.0
  C  C154  1  0.549880  0.860190  0.172250  1.0
  C  C155  1  0.417680  0.360190  0.672250  1.0
  C  C156  1  0.450120  0.139810  0.827750  1.0
  C  C157  1  0.600860  0.627070  0.363210  1.0
  C  C158  1  0.591140  0.872930  0.136790  1.0
  C  C159  1  0.399140  0.372930  0.636790  1.0
  C  C160  1  0.408860  0.127070  0.863210  1.0
  C  C161  1  0.508920  0.615030  0.147730  1.0
  C  C162  1  0.271680  0.884970  0.352270  1.0
  C  C163  1  0.491080  0.384970  0.852270  1.0
  C  C164  1  0.728320  0.115030  0.647730  1.0
  C  C165  1  0.566060  0.541530  0.163150  1.0
  C  C166  1  0.270740  0.958470  0.336850  1.0
  C  C167  1  0.433940  0.458470  0.836850  1.0
  C  C168  1  0.729260  0.041530  0.663150  1.0
  C  C169  1  0.584060  0.533860  0.198620  1.0
  C  C170  1  0.316540  0.966140  0.301380  1.0
  C  C171  1  0.415940  0.466140  0.801380  1.0
  C  C172  1  0.683460  0.033860  0.698620  1.0
  C  C173  1  0.545010  0.599710  0.218670  1.0
  C  C174  1  0.363390  0.900290  0.281330  1.0
  C  C175  1  0.454990  0.400290  0.781330  1.0
  C  C176  1  0.636610  0.099710  0.718670  1.0
  C  C177  1  0.487970  0.673210  0.203250  1.0
  C  C178  1  0.364430  0.826790  0.296750  1.0
  C  C179  1  0.512030  0.326790  0.796750  1.0
  C  C180  1  0.635570  0.173210  0.703250  1.0
  C  C181  1  0.469870  0.680880  0.167780  1.0
  C  C182  1  0.318530  0.819120  0.332220  1.0
  C  C183  1  0.530130  0.319120  0.832220  1.0
  C  C184  1  0.681470  0.180880  0.667780  1.0
  C  C185  1  0.786080  0.282450  0.373990  1.0
  C  C186  1  0.442520  0.217550  0.126010  1.0
  C  C187  1  0.213920  0.717550  0.626010  1.0
  C  C188  1  0.557480  0.782450  0.873990  1.0
  C  C189  1  0.701010  0.239870  0.383510  1.0
  C  C190  1  0.324390  0.260130  0.116490  1.0
  C  C191  1  0.298990  0.760130  0.616490  1.0
  C  C192  1  0.675610  0.739870  0.883510  1.0
  C  C193  1  0.670900  0.219490  0.418910  1.0
  C  C194  1  0.309300  0.280510  0.081090  1.0
  C  C195  1  0.329100  0.780510  0.581090  1.0
  C  C196  1  0.690700  0.719490  0.918910  1.0
  C  C197  1  0.725970  0.241680  0.444780  1.0
  C  C198  1  0.412430  0.258320  0.055220  1.0
  C  C199  1  0.274030  0.758320  0.555220  1.0
  C  C200  1  0.587570  0.741680  0.944780  1.0
  C  C201  1  0.810950  0.284240  0.435260  1.0
  C  C202  1  0.530450  0.215760  0.064740  1.0
  C  C203  1  0.189050  0.715760  0.564740  1.0
  C  C204  1  0.469550  0.784240  0.935260  1.0
  C  C205  1  0.818700  0.304130  0.339270  1.0
  C  C206  1  0.462100  0.195870  0.160730  1.0
  C  C207  1  0.181300  0.695870  0.660730  1.0
  C  C208  1  0.537900  0.804130  0.839270  1.0
  C  C209  1  0.778900  0.292090  0.307310  1.0
  C  C210  1  0.378300  0.207910  0.192690  1.0
  C  C211  1  0.221100  0.707910  0.692690  1.0
  C  C212  1  0.621700  0.792090  0.807310  1.0
  C  C213  1  0.841800  0.328010  0.278990  1.0
  C  C214  1  0.448800  0.171990  0.221010  1.0
  C  C215  1  0.158200  0.671990  0.721010  1.0
  C  C216  1  0.551200  0.828010  0.778990  1.0
  C  C217  1  0.005000  0.400700  0.276500  1.0
  C  C218  1  0.682200  0.099300  0.223500  1.0
  C  C219  1  0.995000  0.599300  0.723500  1.0
  C  C220  1  0.317800  0.900700  0.776500  1.0
  C  C221  1  0.949200  0.487600  0.270800  1.0
  C  C222  1  0.707600  0.012400  0.229200  1.0
  C  C223  1  0.050800  0.512400  0.729200  1.0
  C  C224  1  0.292400  0.987600  0.770800  1.0
  C  C225  1  0.910100  0.520000  0.238400  1.0
  C  C226  1  0.668500  0.980000  0.261600  1.0
  C  C227  1  0.089900  0.480000  0.761600  1.0
  C  C228  1  0.331500  0.020000  0.738400  1.0
  C  C229  1  0.863300  0.601000  0.232800  1.0
  C  C230  1  0.697100  0.899000  0.267200  1.0
  C  C231  1  0.136700  0.399000  0.767200  1.0
  C  C232  1  0.302900  0.101000  0.732800  1.0
  C  C233  1  0.855600  0.649700  0.259700  1.0
  C  C234  1  0.765000  0.850300  0.240300  1.0
  C  C235  1  0.144400  0.350300  0.740300  1.0
  C  C236  1  0.235000  0.149700  0.759700  1.0
  C  C237  1  0.894800  0.617300  0.292100  1.0
  C  C238  1  0.804200  0.882700  0.207900  1.0
  C  C239  1  0.105200  0.382700  0.707900  1.0
  C  C240  1  0.195800  0.117300  0.792100  1.0
  C  C241  1  0.941600  0.536300  0.297700  1.0
  C  C242  1  0.775600  0.963700  0.202300  1.0
  C  C243  1  0.058400  0.463700  0.702300  1.0
  C  C244  1  0.224400  0.036300  0.797700  1.0
  C  C245  1  0.622890  0.344950  0.133870  1.0
  C  C246  1  0.101710  0.155050  0.366130  1.0
  C  C247  1  0.377110  0.655050  0.866130  1.0
  C  C248  1  0.898290  0.844950  0.633870  1.0
  C  C249  1  0.749900  0.307010  0.123590  1.0
  C  C250  1  0.180500  0.192990  0.376410  1.0
  C  C251  1  0.250100  0.692990  0.876410  1.0
  C  C252  1  0.819500  0.807010  0.623590  1.0
  C  C253  1  0.798800  0.308880  0.088120  1.0
  C  C254  1  0.195800  0.191120  0.411880  1.0
  C  C255  1  0.201200  0.691120  0.911880  1.0
  C  C256  1  0.804200  0.808880  0.588120  1.0
  C  C257  1  0.720700  0.348680  0.062920  1.0
  C  C258  1  0.132300  0.151320  0.437080  1.0
  C  C259  1  0.279300  0.651320  0.937080  1.0
  C  C260  1  0.867700  0.848680  0.562920  1.0
  C  C261  1  0.593700  0.386600  0.073200  1.0
  C  C262  1  0.053500  0.113400  0.426800  1.0
  C  C263  1  0.406300  0.613400  0.926800  1.0
  C  C264  1  0.946500  0.886600  0.573200  1.0
  C  C265  1  0.574100  0.343760  0.168040  1.0
  C  C266  1  0.085900  0.156240  0.331960  1.0
  C  C267  1  0.425900  0.656240  0.831960  1.0
  C  C268  1  0.914100  0.843760  0.668040  1.0
  C  C269  1  0.631200  0.314670  0.199330  1.0
  C  C270  1  0.145200  0.185330  0.300670  1.0
  C  C271  1  0.368800  0.685330  0.800670  1.0
  C  C272  1  0.854800  0.814670  0.699330  1.0
  C  C273  1  0.536200  0.334530  0.228670  1.0
  C  C274  1  0.099400  0.165470  0.271330  1.0
  C  C275  1  0.463800  0.665470  0.771330  1.0
  C  C276  1  0.900600  0.834530  0.728670  1.0
  C  C277  1  0.300100  0.401000  0.232000  1.0
  C  C278  1  0.933100  0.099000  0.268000  1.0
  C  C279  1  0.699900  0.599000  0.768000  1.0
  C  C280  1  0.066900  0.901000  0.732000  1.0
  C  C281  1  0.267500  0.487880  0.239920  1.0
  C  C282  1  0.995300  0.012120  0.260080  1.0
  C  C283  1  0.732500  0.512120  0.760080  1.0
  C  C284  1  0.004700  0.987880  0.739920  1.0
  C  C285  1  0.219100  0.544990  0.214210  1.0
  C  C286  1  0.978300  0.955010  0.285790  1.0
  C  C287  1  0.780900  0.455010  0.785790  1.0
  C  C288  1  0.021700  0.044990  0.714210  1.0
  C  C289  1  0.186200  0.624010  0.220990  1.0
  C  C290  1  0.031200  0.875990  0.279010  1.0
  C  C291  1  0.813800  0.375990  0.779010  1.0
  C  C292  1  0.968800  0.124010  0.720990  1.0
  C  C293  1  0.201700  0.645700  0.253500  1.0
  C  C294  1  0.100900  0.854300  0.246500  1.0
  C  C295  1  0.798300  0.354300  0.746500  1.0
  C  C296  1  0.899100  0.145700  0.753500  1.0
  C  C297  1  0.250100  0.588600  0.279200  1.0
  C  C298  1  0.117900  0.911400  0.220800  1.0
  C  C299  1  0.749900  0.411400  0.720800  1.0
  C  C300  1  0.882100  0.088600  0.779200  1.0
  C  C301  1  0.283000  0.509580  0.272420  1.0
  C  C302  1  0.065000  0.990420  0.227580  1.0
  C  C303  1  0.717000  0.490420  0.727580  1.0
  C  C304  1  0.935000  0.009580  0.772420  1.0
  F  F305  1  0.435400  0.141800  0.310600  1
  F  F306  1  0.887800  0.358200  0.189400  1
  F  F307  1  0.564600  0.858200  0.689400  1
  F  F308  1  0.112200  0.641800  0.810600  1
  F  F309  1  0.454410  0.220090  0.351290  1
  F  F310  1  0.025790  0.279910  0.148710  1
  F  F311  1  0.545590  0.779910  0.648710  1
  F  F312  1  0.974210  0.720090  0.851290  1
  F  F313  1  0.575450  0.201140  0.297960  1
  F  F314  1  0.074550  0.298860  0.202040  1
  F  F315  1  0.424550  0.798860  0.702040  1
  F  F316  1  0.925450  0.701140  0.797960  1
  F  F317  1  0.366440  0.271200  0.301120  1
  F  F318  1  0.938760  0.228800  0.198880  1
  F  F319  1  0.633560  0.728800  0.698880  1
  F  F320  1  0.061240  0.771200  0.801120  1
  F  F321  1  0.485500  0.207400  0.922400  1
  F  F322  1  0.615300  0.292600  0.577600  1
  F  F323  1  0.514500  0.792600  0.077600  1
  F  F324  1  0.384700  0.707400  0.422400  1
  F  F325  1  0.362300  0.183400  0.969000  1
  F  F326  1  0.514700  0.316600  0.531000  1
  F  F327  1  0.637700  0.816600  0.031000  1
  F  F328  1  0.485300  0.683400  0.469000  1
  F  F329  1  0.404200  0.296100  0.963500  1
  F  F330  1  0.663800  0.203900  0.536500  1
  F  F331  1  0.595800  0.703900  0.036500  1
  F  F332  1  0.336200  0.796100  0.463500  1
  F  F333  1  0.278900  0.275500  0.927700  1
  F  F334  1  0.482100  0.224500  0.572300  1
  F  F335  1  0.721100  0.724500  0.072300  1
  F  F336  1  0.517900  0.775500  0.427700  1
  F  F337  1  0.491300  0.322700  0.317300  1
  F  F338  1  0.131300  0.177300  0.182700  1
  F  F339  1  0.508700  0.677300  0.682700  1
  F  F340  1  0.868700  0.822700  0.817300  1
  H  H341  1  0.841500  0.016600  0.023800  1
  H  H342  1  0.881900  0.483400  0.476200  1
  H  H343  1  0.158500  0.983400  0.976200  1
  H  H344  1  0.118100  0.516600  0.523800  1
  H  H345  1  0.962900  0.094400  0.035000  1
  H  H346  1  0.092300  0.405600  0.465000  1
  H  H347  1  0.037100  0.905600  0.965000  1
  H  H348  1  0.907700  0.594400  0.535000  1
  H  H349  1  0.921100  0.223300  0.010900  1
  H  H350  1  0.155300  0.276700  0.489100  1
  H  H351  1  0.078900  0.776700  0.989100  1
  H  H352  1  0.844700  0.723300  0.510900  1
  H  H353  1  0.758000  0.274500  0.975500  1
  H  H354  1  0.008000  0.225500  0.524500  1
  H  H355  1  0.242000  0.725500  0.024500  1
  H  H356  1  0.992000  0.774500  0.475500  1
  H  H357  1  0.636700  0.196800  0.964200  1
  H  H358  1  0.797700  0.303200  0.535800  1
  H  H359  1  0.363300  0.803200  0.035800  1
  H  H360  1  0.202300  0.696800  0.464200  1
  H  H361  1  0.692600  0.007100  0.967500  1
  H  H362  1  0.667200  0.492900  0.532500  1
  H  H363  1  0.307400  0.992900  0.032500  1
  H  H364  1  0.332800  0.507100  0.467500  1
  H  H365  1  0.564100  0.072500  0.980700  1
  H  H366  1  0.617300  0.427500  0.519300  1
  H  H367  1  0.435900  0.927500  0.019300  1
  H  H368  1  0.382700  0.572500  0.480700  1
  H  H369  1  0.638000  0.008700  0.008500  1
  H  H370  1  0.655200  0.491300  0.491500  1
  H  H371  1  0.362000  0.991300  0.991500  1
  H  H372  1  0.344800  0.508700  0.508500  1
  H  H373  1  0.167200  0.594700  0.404700  1.0
  H  H374  1  0.166600  0.905300  0.095300  1.0
  H  H375  1  0.832800  0.405300  0.595300  1.0
  H  H376  1  0.833400  0.094700  0.904700  1.0
  H  H377  1  0.376000  0.532100  0.381700  1.0
  H  H378  1  0.289800  0.967900  0.118300  1.0
  H  H379  1  0.624000  0.467900  0.618300  1.0
  H  H380  1  0.710200  0.032100  0.881700  1.0
  H  H381  1  0.429300  0.407800  0.359000  1.0
  H  H382  1  0.196100  0.092200  0.141000  1.0
  H  H383  1  0.570700  0.592200  0.641000  1.0
  H  H384  1  0.803900  0.907800  0.859000  1.0
  H  H385  1  0.273800  0.346200  0.359400  1.0
  H  H386  1  0.979400  0.153800  0.140600  1.0
  H  H387  1  0.726200  0.653800  0.640600  1.0
  H  H388  1  0.020600  0.846200  0.859400  1.0
  H  H389  1  0.960500  0.640100  0.437700  1.0
  H  H390  1  0.038300  0.859900  0.062300  1.0
  H  H391  1  0.039500  0.359900  0.562300  1.0
  H  H392  1  0.961700  0.140100  0.937700  1.0
  H  H393  1  0.725900  0.656700  0.450500  1.0
  H  H394  1  0.833100  0.843300  0.049500  1.0
  H  H395  1  0.274100  0.343300  0.549500  1.0
  H  H396  1  0.166900  0.156700  0.950500  1.0
  H  H397  1  0.580800  0.580300  0.431300  1.0
  H  H398  1  0.592400  0.919700  0.068700  1.0
  H  H399  1  0.419200  0.419700  0.568700  1.0
  H  H400  1  0.407600  0.080300  0.931300  1.0
  H  H401  1  0.654900  0.489300  0.426700  1.0
  H  H402  1  0.570900  0.010700  0.073300  1.0
  H  H403  1  0.345100  0.510700  0.573300  1.0
  H  H404  1  0.429100  0.989300  0.926700  1.0
  H  H405  1  0.918500  0.671100  0.120500  1.0
  H  H406  1  0.710100  0.828900  0.379500  1.0
  H  H407  1  0.081500  0.328900  0.879500  1.0
  H  H408  1  0.289900  0.171100  0.620500  1.0
  H  H409  1  0.780100  0.595300  0.132700  1.0
  H  H410  1  0.508100  0.904700  0.367300  1.0
  H  H411  1  0.219900  0.404700  0.867300  1.0
  H  H412  1  0.491900  0.095300  0.632700  1.0
  H  H413  1  0.859600  0.459000  0.142200  1.0
  H  H414  1  0.460800  0.041000  0.357800  1.0
  H  H415  1  0.140400  0.541000  0.857800  1.0
  H  H416  1  0.539200  0.959000  0.642200  1.0
  H  H417  1  0.077700  0.398500  0.139300  1.0
  H  H418  1  0.615500  0.101500  0.360700  1.0
  H  H419  1  0.922300  0.601500  0.860700  1.0
  H  H420  1  0.384500  0.898500  0.639300  1.0
  H  H421  1  0.064200  0.742900  0.103500  1.0
  H  H422  1  0.910600  0.757100  0.396500  1.0
  H  H423  1  0.935800  0.257100  0.896500  1.0
  H  H424  1  0.089400  0.242900  0.603500  1.0
  H  H425  1  0.278300  0.765700  0.096500  1.0
  H  H426  1  0.140500  0.734300  0.403500  1.0
  H  H427  1  0.721700  0.234300  0.903500  1.0
  H  H428  1  0.859500  0.265700  0.596500  1.0
  H  H429  1  0.515600  0.668100  0.099100  1.0
  H  H430  1  0.282800  0.831900  0.400900  1.0
  H  H431  1  0.484400  0.331900  0.900900  1.0
  H  H432  1  0.717200  0.168100  0.599100  1.0
  H  H433  1  0.530900  0.576600  0.098800  1.0
  H  H434  1  0.206300  0.923400  0.401200  1.0
  H  H435  1  0.469100  0.423400  0.901200  1.0
  H  H436  1  0.793700  0.076600  0.598800  1.0
  H  H437  1  0.646500  0.437700  0.370500  1.0
  H  H438  1  0.454700  0.062300  0.129500  1.0
  H  H439  1  0.353500  0.562300  0.629500  1.0
  H  H440  1  0.545300  0.937700  0.870500  1.0
  H  H441  1  0.615200  0.459200  0.310800  1.0
  H  H442  1  0.385200  0.040800  0.189200  1.0
  H  H443  1  0.384800  0.540800  0.689200  1.0
  H  H444  1  0.614800  0.959200  0.810800  1.0
  H  H445  1  0.565900  0.691300  0.316900  1.0
  H  H446  1  0.574100  0.808700  0.183100  1.0
  H  H447  1  0.434100  0.308700  0.683100  1.0
  H  H448  1  0.425900  0.191300  0.816900  1.0
  H  H449  1  0.597200  0.669800  0.376600  1.0
  H  H450  1  0.643600  0.830200  0.123400  1.0
  H  H451  1  0.402800  0.330200  0.623400  1.0
  H  H452  1  0.356400  0.169800  0.876600  1.0
  H  H453  1  0.592700  0.496500  0.149500  1.0
  H  H454  1  0.238700  0.003500  0.350500  1.0
  H  H455  1  0.407300  0.503500  0.850500  1.0
  H  H456  1  0.761300  0.996500  0.649500  1.0
  H  H457  1  0.623100  0.483600  0.209200  1.0
  H  H458  1  0.315900  0.016400  0.290800  1.0
  H  H459  1  0.376900  0.516400  0.790800  1.0
  H  H460  1  0.684100  0.983600  0.709200  1.0
  H  H461  1  0.461300  0.718200  0.217000  1.0
  H  H462  1  0.396500  0.781800  0.283000  1.0
  H  H463  1  0.538700  0.281800  0.783000  1.0
  H  H464  1  0.603500  0.218200  0.717000  1.0
  H  H465  1  0.430900  0.731200  0.157200  1.0
  H  H466  1  0.319300  0.768800  0.342800  1.0
  H  H467  1  0.569100  0.268800  0.842800  1.0
  H  H468  1  0.680700  0.231200  0.657200  1.0
  H  H469  1  0.663400  0.224800  0.365800  1.0
  H  H470  1  0.254000  0.275200  0.134200  1.0
  H  H471  1  0.336600  0.775200  0.634200  1.0
  H  H472  1  0.746000  0.724800  0.865800  1.0
  H  H473  1  0.612800  0.190400  0.425400  1.0
  H  H474  1  0.228600  0.309600  0.074600  1.0
  H  H475  1  0.387200  0.809600  0.574600  1.0
  H  H476  1  0.771400  0.690400  0.925400  1.0
  H  H477  1  0.705300  0.227800  0.469000  1.0
  H  H478  1  0.402100  0.272200  0.031000  1.0
  H  H479  1  0.294700  0.772200  0.531000  1.0
  H  H480  1  0.597900  0.727800  0.969000  1.0
  H  H481  1  0.848600  0.299500  0.452900  1.0
  H  H482  1  0.601000  0.200500  0.047100  1.0
  H  H483  1  0.151400  0.700500  0.547100  1.0
  H  H484  1  0.399000  0.799500  0.952900  1.0
  H  H485  1  0.720600  0.264800  0.305200  1.0
  H  H486  1  0.290600  0.235200  0.194800  1.0
  H  H487  1  0.279400  0.735200  0.694800  1.0
  H  H488  1  0.709400  0.764800  0.805200  1.0
  H  H489  1  0.832800  0.328900  0.254700  1.0
  H  H490  1  0.416400  0.171100  0.245300  1.0
  H  H491  1  0.167200  0.671100  0.745300  1.0
  H  H492  1  0.583600  0.828900  0.754700  1.0
  H  H493  1  0.040100  0.378200  0.253200  1.0
  H  H494  1  0.671500  0.121800  0.246800  1.0
  H  H495  1  0.959900  0.621800  0.746800  1.0
  H  H496  1  0.328500  0.878200  0.753200  1.0
  H  H497  1  0.076000  0.390300  0.290700  1.0
  H  H498  1  0.757000  0.109700  0.209300  1.0
  H  H499  1  0.924000  0.609700  0.709300  1.0
  H  H500  1  0.243000  0.890300  0.790700  1.0
  H  H501  1  0.915300  0.486800  0.220000  1.0
  H  H502  1  0.622100  0.013200  0.280000  1.0
  H  H503  1  0.084700  0.513200  0.780000  1.0
  H  H504  1  0.377900  0.986800  0.720000  1.0
  H  H505  1  0.836600  0.623100  0.210700  1.0
  H  H506  1  0.670400  0.876900  0.289300  1.0
  H  H507  1  0.163400  0.376900  0.789300  1.0
  H  H508  1  0.329600  0.123100  0.710700  1.0
  H  H509  1  0.889600  0.650500  0.310500  1.0
  H  H510  1  0.850600  0.849500  0.189500  1.0
  H  H511  1  0.110400  0.349500  0.689500  1.0
  H  H512  1  0.149400  0.150500  0.810500  1.0
  H  H513  1  0.968300  0.514200  0.319800  1.0
  H  H514  1  0.802300  0.985800  0.180200  1.0
  H  H515  1  0.031700  0.485800  0.680200  1.0
  H  H516  1  0.197700  0.014200  0.819800  1.0
  H  H517  1  0.803200  0.280000  0.140800  1.0
  H  H518  1  0.224000  0.220000  0.359200  1.0
  H  H519  1  0.196800  0.720000  0.859200  1.0
  H  H520  1  0.776000  0.780000  0.640800  1.0
  H  H521  1  0.885500  0.283100  0.081100  1.0
  H  H522  1  0.249700  0.216900  0.418900  1.0
  H  H523  1  0.114500  0.716900  0.918900  1.0
  H  H524  1  0.750300  0.783100  0.581100  1.0
  H  H525  1  0.754100  0.349900  0.038700  1.0
  H  H526  1  0.142700  0.150100  0.461300  1.0
  H  H527  1  0.245900  0.650100  0.961300  1.0
  H  H528  1  0.857300  0.849900  0.538700  1.0
  H  H529  1  0.540400  0.413600  0.056000  1.0
  H  H530  1  0.010000  0.086400  0.444000  1.0
  H  H531  1  0.459600  0.586400  0.944000  1.0
  H  H532  1  0.990000  0.913600  0.556000  1.0
  H  H533  1  0.717700  0.286800  0.200400  1.0
  H  H534  1  0.204900  0.213200  0.299600  1.0
  H  H535  1  0.282300  0.713200  0.799600  1.0
  H  H536  1  0.795100  0.786800  0.700400  1.0
  H  H537  1  0.548000  0.322300  0.252900  1.0
  H  H538  1  0.123200  0.177700  0.247100  1.0
  H  H539  1  0.452000  0.677700  0.747100  1.0
  H  H540  1  0.876800  0.822300  0.752900  1.0
  H  H541  1  0.292500  0.369000  0.254400  1.0
  H  H542  1  0.915900  0.131000  0.245600  1.0
  H  H543  1  0.707500  0.631000  0.745600  1.0
  H  H544  1  0.084100  0.869000  0.754400  1.0
  H  H545  1  0.240700  0.394400  0.216800  1.0
  H  H546  1  0.851900  0.105600  0.283200  1.0
  H  H547  1  0.759300  0.605600  0.783200  1.0
  H  H548  1  0.148100  0.894400  0.716800  1.0
  H  H549  1  0.208600  0.530000  0.192000  1.0
  H  H550  1  0.930600  0.970000  0.308000  1.0
  H  H551  1  0.791400  0.470000  0.808000  1.0
  H  H552  1  0.069400  0.030000  0.692000  1.0
  H  H553  1  0.153100  0.663200  0.203400  1.0
  H  H554  1  0.019700  0.836800  0.296600  1.0
  H  H555  1  0.846900  0.336800  0.796600  1.0
  H  H556  1  0.980300  0.163200  0.703400  1.0
  H  H557  1  0.260600  0.603600  0.301400  1.0
  H  H558  1  0.165600  0.896400  0.198600  1.0
  H  H559  1  0.739400  0.396400  0.698600  1.0
  H  H560  1  0.834400  0.103600  0.801400  1.0
  H  H561  1  0.316100  0.470400  0.290000  1.0
  H  H562  1  0.076500  0.029600  0.210000  1.0
  H  H563  1  0.683900  0.529600  0.710000  1.0
  H  H564  1  0.923500  0.970400  0.790000  1.0
  N  N565  1  0.581220  0.556830  0.250530  1
  N  N566  1  0.388580  0.943170  0.249470  1
  N  N567  1  0.418780  0.443170  0.749470  1
  N  N568  1  0.611420  0.056830  0.750530  1
  N  N569  1  0.557710  0.620380  0.278400  1
  N  N570  1  0.456490  0.879620  0.221600  1
  N  N571  1  0.442290  0.379620  0.721600  1
  N  N572  1  0.543510  0.120380  0.778400  1
  N  N573  1  0.128270  0.433830  0.382230  1.0
  N  N574  1  0.944330  0.066170  0.117770  1.0
  N  N575  1  0.871730  0.566170  0.617770  1.0
  N  N576  1  0.055670  0.933830  0.882230  1.0
  N  N577  1  0.762250  0.556650  0.420650  1.0
  N  N578  1  0.739550  0.943350  0.079350  1.0
  N  N579  1  0.237750  0.443350  0.579350  1.0
  N  N580  1  0.260450  0.056650  0.920650  1.0
  N  N581  1  0.878440  0.510010  0.403310  1.0
  N  N582  1  0.791760  0.989990  0.096690  1.0
  N  N583  1  0.121560  0.489990  0.596690  1.0
  N  N584  1  0.208240  0.010010  0.903310  1.0
  N  N585  1  0.127600  0.498780  0.128220  1.0
  N  N586  1  0.754600  0.001220  0.371780  1.0
  N  N587  1  0.872400  0.501220  0.871780  1.0
  N  N588  1  0.245400  0.998780  0.628220  1.0
  N  N589  1  0.354600  0.643300  0.108300  1.0
  N  N590  1  0.106200  0.856700  0.391700  1.0
  N  N591  1  0.645400  0.356700  0.891700  1.0
  N  N592  1  0.893800  0.143300  0.608300  1.0
  N  N593  1  0.291650  0.585300  0.116000  1.0
  N  N594  1  0.992950  0.914700  0.384000  1.0
  N  N595  1  0.708350  0.414700  0.884000  1.0
  N  N596  1  0.007050  0.085300  0.616000  1.0
  N  N597  1  0.542790  0.624660  0.255960  1.0
  N  N598  1  0.423410  0.875340  0.244040  1.0
  N  N599  1  0.457210  0.375340  0.744040  1.0
  N  N600  1  0.576590  0.124660  0.755960  1.0
  N  N601  1  0.580300  0.556380  0.268340  1.0
  N  N602  1  0.405020  0.943620  0.231660  1.0
  N  N603  1  0.419700  0.443620  0.731660  1.0
  N  N604  1  0.594980  0.056380  0.768340  1.0
  N  N605  1  0.841050  0.304640  0.399860  1.0
  N  N606  1  0.545550  0.195360  0.100140  1.0
  N  N607  1  0.158950  0.695360  0.600140  1.0
  N  N608  1  0.454450  0.804640  0.899860  1.0
  N  N609  1  0.920200  0.362550  0.293450  1.0
  N  N610  1  0.576200  0.137450  0.206550  1.0
  N  N611  1  0.079800  0.637450  0.706550  1.0
  N  N612  1  0.423800  0.862550  0.793450  1.0
  N  N613  1  0.905990  0.347720  0.330700  1.0
  N  N614  1  0.584410  0.152280  0.169300  1.0
  N  N615  1  0.094010  0.652280  0.669300  1.0
  N  N616  1  0.415590  0.847720  0.830700  1.0
  N  N617  1  0.806800  0.741300  0.263700  1.0
  N  N618  1  0.811800  0.758700  0.236300  1.0
  N  N619  1  0.193200  0.258700  0.736300  1.0
  N  N620  1  0.188200  0.241300  0.763700  1.0
  N  N621  1  0.544830  0.384660  0.108680  1.0
  N  N622  1  0.038170  0.115340  0.391320  1.0
  N  N623  1  0.455170  0.615340  0.891320  1.0
  N  N624  1  0.961830  0.884660  0.608680  1.0
  N  N625  1  0.420300  0.376090  0.215510  1.0
  N  N626  1  0.011900  0.123910  0.284490  1.0
  N  N627  1  0.579700  0.623910  0.784490  1.0
  N  N628  1  0.988100  0.876090  0.715510  1.0
  N  N629  1  0.443800  0.381760  0.178040  1.0
  N  N630  1  0.003600  0.118240  0.321960  1.0
  N  N631  1  0.556200  0.618240  0.821960  1.0
  N  N632  1  0.996400  0.881760  0.678040  1.0
  N  N633  1  0.162900  0.726700  0.262500  1.0
  N  N634  1  0.152100  0.773300  0.237500  1.0
  N  N635  1  0.837100  0.273300  0.737500  1.0
  N  N636  1  0.847900  0.226700  0.762500  1.0
