# generated using pymatgen
data_Ag2H44C56N12(ClO5)3
_symmetry_space_group_name_H-M   'P 1'
_cell_length_a   14.43680000
_cell_length_b   15.64630000
_cell_length_c   24.02920000
_cell_angle_alpha   90.00000000
_cell_angle_beta   90.00000000
_cell_angle_gamma   105.09000000
_symmetry_Int_Tables_number   1
_chemical_formula_structural   Ag2H44C56N12(ClO5)3
_chemical_formula_sum   'Ag8 H176 C224 N48 Cl12 O60'
_cell_volume   5240.61574338
_cell_formula_units_Z   4
loop_
 _symmetry_equiv_pos_site_id
 _symmetry_equiv_pos_as_xyz
  1  'x, y, z'
loop_
 _atom_site_type_symbol
 _atom_site_label
 _atom_site_symmetry_multiplicity
 _atom_site_fract_x
 _atom_site_fract_y
 _atom_site_fract_z
 _atom_site_occupancy
  Ag  Ag1  1  0.614774  0.030324  0.354388  1
  Ag  Ag2  1  0.885226  0.969676  0.854388  1
  Ag  Ag3  1  0.385226  0.969676  0.645612  1
  Ag  Ag4  1  0.114774  0.030324  0.145612  1
  Ag  Ag5  1  0.783030  0.509550  0.464135  1
  Ag  Ag6  1  0.716970  0.490450  0.964135  1
  Ag  Ag7  1  0.216970  0.490450  0.535865  1
  Ag  Ag8  1  0.283030  0.509550  0.035865  1
  H  H9  1  0.463600  0.953700  0.250900  1
  H  H10  1  0.036400  0.046300  0.750900  1
  H  H11  1  0.536400  0.046300  0.749100  1
  H  H12  1  0.963600  0.953700  0.249100  1
  H  H13  1  0.307400  0.942000  0.222300  1
  H  H14  1  0.192600  0.058000  0.722300  1
  H  H15  1  0.692600  0.058000  0.777700  1
  H  H16  1  0.807400  0.942000  0.277700  1
  H  H17  1  0.207100  0.999700  0.278100  1
  H  H18  1  0.292900  0.000300  0.778100  1
  H  H19  1  0.792900  0.000300  0.721900  1
  H  H20  1  0.707100  0.999700  0.221900  1
  H  H21  1  0.265400  0.067600  0.362600  1
  H  H22  1  0.234600  0.932400  0.862600  1
  H  H23  1  0.734600  0.932400  0.637400  1
  H  H24  1  0.765400  0.067600  0.137400  1
  H  H25  1  0.337500  0.142100  0.447600  1
  H  H26  1  0.162500  0.857900  0.947600  1
  H  H27  1  0.662500  0.857900  0.552400  1
  H  H28  1  0.837500  0.142100  0.052400  1
  H  H29  1  0.457300  0.173000  0.526000  1
  H  H30  1  0.042700  0.827000  0.026000  1
  H  H31  1  0.542700  0.827000  0.474000  1
  H  H32  1  0.957300  0.173000  0.974000  1
  H  H33  1  0.632600  0.049100  0.506300  1
  H  H34  1  0.867400  0.950900  0.006300  1
  H  H35  1  0.367400  0.950900  0.493700  1
  H  H36  1  0.132600  0.049100  0.993700  1
  H  H37  1  0.612300  0.122200  0.547600  1
  H  H38  1  0.887700  0.877800  0.047600  1
  H  H39  1  0.387700  0.877800  0.452400  1
  H  H40  1  0.112300  0.122200  0.952400  1
  H  H41  1  0.733400  0.695500  0.431600  1
  H  H42  1  0.766600  0.304500  0.931600  1
  H  H43  1  0.266600  0.304500  0.568400  1
  H  H44  1  0.233400  0.695500  0.068400  1
  H  H45  1  0.758700  0.800200  0.361700  1
  H  H46  1  0.741300  0.199800  0.861700  1
  H  H47  1  0.241300  0.199800  0.638300  1
  H  H48  1  0.258700  0.800200  0.138300  1
  H  H49  1  0.866700  0.793800  0.290100  1
  H  H50  1  0.633300  0.206200  0.790100  1
  H  H51  1  0.133300  0.206200  0.709900  1
  H  H52  1  0.366700  0.793800  0.209900  1
  H  H53  1  0.941600  0.678200  0.289600  1
  H  H54  1  0.558400  0.321800  0.789600  1
  H  H55  1  0.058400  0.321800  0.710400  1
  H  H56  1  0.441600  0.678200  0.210400  1
  H  H57  1  0.977400  0.533400  0.280200  1
  H  H58  1  0.522600  0.466600  0.780200  1
  H  H59  1  0.022600  0.466600  0.719800  1
  H  H60  1  0.477400  0.533400  0.219800  1
  H  H61  1  0.022000  0.402100  0.319900  1
  H  H62  1  0.478000  0.597900  0.819900  1
  H  H63  1  0.978000  0.597900  0.680100  1
  H  H64  1  0.522000  0.402100  0.180100  1
  H  H65  1  0.998300  0.399800  0.466600  1
  H  H66  1  0.501700  0.600200  0.966600  1
  H  H67  1  0.001700  0.600200  0.533400  1
  H  H68  1  0.498300  0.399800  0.033400  1
  H  H69  1  0.015700  0.334900  0.418700  1
  H  H70  1  0.484300  0.665100  0.918700  1
  H  H71  1  0.984300  0.665100  0.581300  1
  H  H72  1  0.515700  0.334900  0.081300  1
  H  H73  1  0.648000  0.230500  0.426600  1
  H  H74  1  0.852000  0.769500  0.926600  1
  H  H75  1  0.352000  0.769500  0.573400  1
  H  H76  1  0.148000  0.230500  0.073400  1
  H  H77  1  0.787200  0.333700  0.396300  1
  H  H78  1  0.712800  0.666300  0.896300  1
  H  H79  1  0.212800  0.666300  0.603700  1
  H  H80  1  0.287200  0.333700  0.103700  1
  H  H81  1  0.030200  0.281000  0.507800  1
  H  H82  1  0.469800  0.719000  0.007800  1
  H  H83  1  0.969800  0.719000  0.492200  1
  H  H84  1  0.530200  0.281000  0.992200  1
  H  H85  1  0.036800  0.185600  0.579600  1
  H  H86  1  0.463200  0.814400  0.079600  1
  H  H87  1  0.963200  0.814400  0.420400  1
  H  H88  1  0.536800  0.185600  0.920400  1
  H  H89  1  0.896600  0.086000  0.612400  1
  H  H90  1  0.603400  0.914000  0.112400  1
  H  H91  1  0.103400  0.914000  0.387600  1
  H  H92  1  0.396600  0.086000  0.887600  1
  H  H93  1  0.750900  0.079000  0.570100  1
  H  H94  1  0.749100  0.921000  0.070100  1
  H  H95  1  0.249100  0.921000  0.429900  1
  H  H96  1  0.250900  0.079000  0.929900  1
  H  H97  1  0.716000  0.917900  0.439900  1
  H  H98  1  0.784000  0.082100  0.939900  1
  H  H99  1  0.284000  0.082100  0.560100  1
  H  H100  1  0.216000  0.917900  0.060100  1
  H  H101  1  0.862200  0.919500  0.479900  1
  H  H102  1  0.637800  0.080500  0.979900  1
  H  H103  1  0.137800  0.080500  0.520100  1
  H  H104  1  0.362200  0.919500  0.020100  1
  H  H105  1  0.999700  0.026500  0.450800  1
  H  H106  1  0.500300  0.973500  0.950800  1
  H  H107  1  0.000300  0.973500  0.549200  1
  H  H108  1  0.499700  0.026500  0.049200  1
  H  H109  1  0.984800  0.129400  0.383300  1
  H  H110  1  0.515200  0.870600  0.883300  1
  H  H111  1  0.015200  0.870600  0.616700  1
  H  H112  1  0.484800  0.129400  0.116700  1
  H  H113  1  0.965500  0.216300  0.302300  1
  H  H114  1  0.534500  0.783700  0.802300  1
  H  H115  1  0.034500  0.783700  0.697700  1
  H  H116  1  0.465500  0.216300  0.197700  1
  H  H117  1  0.872700  0.283400  0.234600  1
  H  H118  1  0.627300  0.716600  0.734600  1
  H  H119  1  0.127300  0.716600  0.765400  1
  H  H120  1  0.372700  0.283400  0.265400  1
  H  H121  1  0.617900  0.166200  0.240900  1
  H  H122  1  0.882100  0.833800  0.740900  1
  H  H123  1  0.382100  0.833800  0.759100  1
  H  H124  1  0.117900  0.166200  0.259100  1
  H  H125  1  0.686700  0.246000  0.207100  1
  H  H126  1  0.813300  0.754000  0.707100  1
  H  H127  1  0.313300  0.754000  0.792900  1
  H  H128  1  0.186700  0.246000  0.292900  1
  H  H129  1  0.899000  0.440300  0.563500  1
  H  H130  1  0.601000  0.559700  0.063500  1
  H  H131  1  0.101000  0.559700  0.436500  1
  H  H132  1  0.399000  0.440300  0.936500  1
  H  H133  1  0.876500  0.336400  0.633500  1
  H  H134  1  0.623500  0.663600  0.133500  1
  H  H135  1  0.123500  0.663600  0.366500  1
  H  H136  1  0.376500  0.336400  0.866500  1
  H  H137  1  0.720100  0.256600  0.655800  1
  H  H138  1  0.779900  0.743400  0.155800  1
  H  H139  1  0.279900  0.743400  0.344200  1
  H  H140  1  0.220100  0.256600  0.844200  1
  H  H141  1  0.591800  0.283000  0.605300  1
  H  H142  1  0.908200  0.717000  0.105300  1
  H  H143  1  0.408200  0.717000  0.394700  1
  H  H144  1  0.091800  0.283000  0.894700  1
  H  H145  1  0.463200  0.335000  0.559300  1
  H  H146  1  0.036800  0.665000  0.059300  1
  H  H147  1  0.536800  0.665000  0.440700  1
  H  H148  1  0.963200  0.335000  0.940700  1
  H  H149  1  0.391200  0.380500  0.472800  1
  H  H150  1  0.108800  0.619500  0.972800  1
  H  H151  1  0.608800  0.619500  0.527200  1
  H  H152  1  0.891200  0.380500  0.027200  1
  H  H153  1  0.568300  0.521000  0.387100  1
  H  H154  1  0.931700  0.479000  0.887100  1
  H  H155  1  0.431700  0.479000  0.612900  1
  H  H156  1  0.068300  0.521000  0.112900  1
  H  H157  1  0.460600  0.460500  0.380800  1
  H  H158  1  0.039400  0.539500  0.880800  1
  H  H159  1  0.539400  0.539500  0.619200  1
  H  H160  1  0.960600  0.460500  0.119200  1
  H  H161  1  0.544200  0.192700  0.325100  1
  H  H162  1  0.955800  0.807300  0.825100  1
  H  H163  1  0.455800  0.807300  0.674900  1
  H  H164  1  0.044200  0.192700  0.174900  1
  H  H165  1  0.488800  0.287200  0.383800  1
  H  H166  1  0.011200  0.712800  0.883800  1
  H  H167  1  0.511200  0.712800  0.616200  1
  H  H168  1  0.988800  0.287200  0.116200  1
  H  H169  1  0.626100  0.568600  0.314200  1
  H  H170  1  0.873900  0.431400  0.814200  1
  H  H171  1  0.373900  0.431400  0.685800  1
  H  H172  1  0.126100  0.568600  0.185800  1
  H  H173  1  0.724600  0.624200  0.240200  1
  H  H174  1  0.775400  0.375800  0.740200  1
  H  H175  1  0.275400  0.375800  0.759800  1
  H  H176  1  0.224600  0.624200  0.259800  1
  H  H177  1  0.789700  0.530300  0.185500  1
  H  H178  1  0.710300  0.469700  0.685500  1
  H  H179  1  0.210300  0.469700  0.814500  1
  H  H180  1  0.289700  0.530300  0.314500  1
  H  H181  1  0.751000  0.381100  0.202300  1
  H  H182  1  0.749000  0.618900  0.702300  1
  H  H183  1  0.249000  0.618900  0.797700  1
  H  H184  1  0.251000  0.381100  0.297700  1
  C  C185  1  0.422600  0.976200  0.274400  1
  C  C186  1  0.077400  0.023800  0.774400  1
  C  C187  1  0.577400  0.023800  0.725600  1
  C  C188  1  0.922600  0.976200  0.225600  1
  C  C189  1  0.329700  0.969600  0.256770  1
  C  C190  1  0.170300  0.030400  0.756770  1
  C  C191  1  0.670300  0.030400  0.743230  1
  C  C192  1  0.829700  0.969600  0.243230  1
  C  C193  1  0.271000  0.003300  0.289520  1
  C  C194  1  0.229000  0.996700  0.789520  1
  C  C195  1  0.729000  0.996700  0.710480  1
  C  C196  1  0.771000  0.003300  0.210480  1
  C  C197  1  0.304900  0.042600  0.339500  1
  C  C198  1  0.195100  0.957400  0.839500  1
  C  C199  1  0.695100  0.957400  0.660500  1
  C  C200  1  0.804900  0.042600  0.160500  1
  C  C201  1  0.398400  0.044900  0.355300  1
  C  C202  1  0.101600  0.955100  0.855300  1
  C  C203  1  0.601600  0.955100  0.644700  1
  C  C204  1  0.898400  0.044900  0.144700  1
  C  C205  1  0.436400  0.081440  0.409680  1
  C  C206  1  0.063600  0.918560  0.909680  1
  C  C207  1  0.563600  0.918560  0.590320  1
  C  C208  1  0.936400  0.081440  0.090320  1
  C  C209  1  0.396700  0.126400  0.449590  1
  C  C210  1  0.103300  0.873600  0.949590  1
  C  C211  1  0.603300  0.873600  0.550410  1
  C  C212  1  0.896700  0.126400  0.050410  1
  C  C213  1  0.462300  0.142900  0.492290  1
  C  C214  1  0.037700  0.857100  0.992290  1
  C  C215  1  0.537700  0.857100  0.507710  1
  C  C216  1  0.962300  0.142900  0.007710  1
  C  C217  1  0.621800  0.109000  0.508070  1
  C  C218  1  0.878200  0.891000  0.008070  1
  C  C219  1  0.378200  0.891000  0.491930  1
  C  C220  1  0.121800  0.109000  0.991930  1
  C  C221  1  0.775200  0.691100  0.401870  1
  C  C222  1  0.724800  0.308900  0.901870  1
  C  C223  1  0.224800  0.308900  0.598130  1
  C  C224  1  0.275200  0.691100  0.098130  1
  C  C225  1  0.790800  0.754400  0.360880  1
  C  C226  1  0.709200  0.245600  0.860880  1
  C  C227  1  0.209200  0.245600  0.639120  1
  C  C228  1  0.290800  0.754400  0.139120  1
  C  C229  1  0.853700  0.750200  0.318560  1
  C  C230  1  0.646300  0.249800  0.818560  1
  C  C231  1  0.146300  0.249800  0.681440  1
  C  C232  1  0.353700  0.750200  0.181440  1
  C  C233  1  0.897400  0.682000  0.318150  1
  C  C234  1  0.602600  0.318000  0.818150  1
  C  C235  1  0.102600  0.318000  0.681850  1
  C  C236  1  0.397400  0.682000  0.181850  1
  C  C237  1  0.876200  0.618500  0.359950  1
  C  C238  1  0.623800  0.381500  0.859950  1
  C  C239  1  0.123800  0.381500  0.640050  1
  C  C240  1  0.376200  0.618500  0.140050  1
  C  C241  1  0.917800  0.542400  0.359430  1
  C  C242  1  0.582200  0.457600  0.859430  1
  C  C243  1  0.082200  0.457600  0.640570  1
  C  C244  1  0.417800  0.542400  0.140570  1
  C  C245  1  0.964800  0.510200  0.316750  1
  C  C246  1  0.535200  0.489800  0.816750  1
  C  C247  1  0.035200  0.489800  0.683250  1
  C  C248  1  0.464800  0.510200  0.183250  1
  C  C249  1  0.988700  0.438700  0.338480  1
  C  C250  1  0.511300  0.561300  0.838480  1
  C  C251  1  0.011300  0.561300  0.661520  1
  C  C252  1  0.488700  0.438700  0.161520  1
  C  C253  1  0.969600  0.366500  0.433050  1
  C  C254  1  0.530400  0.633500  0.933050  1
  C  C255  1  0.030400  0.633500  0.566950  1
  C  C256  1  0.469600  0.366500  0.066950  1
  C  C257  1  0.710200  0.175120  0.486750  1
  C  C258  1  0.789800  0.824880  0.986750  1
  C  C259  1  0.289800  0.824880  0.513250  1
  C  C260  1  0.210200  0.175120  0.013250  1
  C  C261  1  0.707500  0.232490  0.444150  1
  C  C262  1  0.792500  0.767510  0.944150  1
  C  C263  1  0.292500  0.767510  0.555850  1
  C  C264  1  0.207500  0.232490  0.055850  1
  C  C265  1  0.791200  0.294400  0.425780  1
  C  C266  1  0.708800  0.705600  0.925780  1
  C  C267  1  0.208800  0.705600  0.574220  1
  C  C268  1  0.291200  0.294400  0.074220  1
  C  C269  1  0.878200  0.298900  0.449800  1
  C  C270  1  0.621800  0.701100  0.949800  1
  C  C271  1  0.121800  0.701100  0.550200  1
  C  C272  1  0.378200  0.298900  0.050200  1
  C  C273  1  0.884800  0.239600  0.493630  1
  C  C274  1  0.615200  0.760400  0.993630  1
  C  C275  1  0.115200  0.760400  0.506370  1
  C  C276  1  0.384800  0.239600  0.006370  1
  C  C277  1  0.799700  0.177430  0.512590  1
  C  C278  1  0.700300  0.822570  0.012590  1
  C  C279  1  0.200300  0.822570  0.487410  1
  C  C280  1  0.299700  0.177430  0.987410  1
  C  C281  1  0.972900  0.240400  0.520060  1
  C  C282  1  0.527100  0.759600  0.020060  1
  C  C283  1  0.027100  0.759600  0.479940  1
  C  C284  1  0.472900  0.240400  0.979940  1
  C  C285  1  0.976800  0.184100  0.562760  1
  C  C286  1  0.523200  0.815900  0.062760  1
  C  C287  1  0.023200  0.815900  0.437240  1
  C  C288  1  0.476800  0.184100  0.937240  1
  C  C289  1  0.893400  0.124200  0.582080  1
  C  C290  1  0.606600  0.875800  0.082080  1
  C  C291  1  0.106600  0.875800  0.417920  1
  C  C292  1  0.393400  0.124200  0.917920  1
  C  C293  1  0.807000  0.120600  0.557160  1
  C  C294  1  0.693000  0.879400  0.057160  1
  C  C295  1  0.193000  0.879400  0.442840  1
  C  C296  1  0.307000  0.120600  0.942840  1
  C  C297  1  0.771600  0.961300  0.428050  1
  C  C298  1  0.728400  0.038700  0.928050  1
  C  C299  1  0.228400  0.038700  0.571950  1
  C  C300  1  0.271600  0.961300  0.071950  1
  C  C301  1  0.858200  0.961700  0.452180  1
  C  C302  1  0.641800  0.038300  0.952180  1
  C  C303  1  0.141800  0.038300  0.547820  1
  C  C304  1  0.358200  0.961700  0.047820  1
  C  C305  1  0.938900  0.024700  0.435140  1
  C  C306  1  0.561100  0.975300  0.935140  1
  C  C307  1  0.061100  0.975300  0.564860  1
  C  C308  1  0.438900  0.024700  0.064860  1
  C  C309  1  0.930200  0.085000  0.395220  1
  C  C310  1  0.569800  0.915000  0.895220  1
  C  C311  1  0.069800  0.915000  0.604780  1
  C  C312  1  0.430200  0.085000  0.104780  1
  C  C313  1  0.840700  0.080300  0.372520  1
  C  C314  1  0.659300  0.919700  0.872520  1
  C  C315  1  0.159300  0.919700  0.627480  1
  C  C316  1  0.340700  0.080300  0.127480  1
  C  C317  1  0.828600  0.142130  0.328980  1
  C  C318  1  0.671400  0.857870  0.828980  1
  C  C319  1  0.171400  0.857870  0.671020  1
  C  C320  1  0.328600  0.142130  0.171020  1
  C  C321  1  0.897800  0.203000  0.298440  1
  C  C322  1  0.602200  0.797000  0.798440  1
  C  C323  1  0.102200  0.797000  0.701560  1
  C  C324  1  0.397800  0.203000  0.201560  1
  C  C325  1  0.846700  0.239500  0.261670  1
  C  C326  1  0.653300  0.760500  0.761670  1
  C  C327  1  0.153300  0.760500  0.738330  1
  C  C328  1  0.346700  0.239500  0.238330  1
  C  C329  1  0.669300  0.221800  0.244890  1
  C  C330  1  0.830700  0.778200  0.744890  1
  C  C331  1  0.330700  0.778200  0.755110  1
  C  C332  1  0.169300  0.221800  0.255110  1
  C  C333  1  0.835400  0.407500  0.571990  1
  C  C334  1  0.664600  0.592500  0.071990  1
  C  C335  1  0.164600  0.592500  0.428010  1
  C  C336  1  0.335400  0.407500  0.928010  1
  C  C337  1  0.823000  0.346200  0.613920  1
  C  C338  1  0.677000  0.653800  0.113920  1
  C  C339  1  0.177000  0.653800  0.386080  1
  C  C340  1  0.323000  0.346200  0.886080  1
  C  C341  1  0.731400  0.299200  0.626760  1
  C  C342  1  0.768600  0.700800  0.126760  1
  C  C343  1  0.268600  0.700800  0.373240  1
  C  C344  1  0.231400  0.299200  0.873240  1
  C  C345  1  0.655800  0.314600  0.596850  1
  C  C346  1  0.844200  0.685400  0.096850  1
  C  C347  1  0.344200  0.685400  0.403150  1
  C  C348  1  0.155800  0.314600  0.903150  1
  C  C349  1  0.673900  0.376800  0.554200  1
  C  C350  1  0.826100  0.623200  0.054200  1
  C  C351  1  0.326100  0.623200  0.445800  1
  C  C352  1  0.173900  0.376800  0.945800  1
  C  C353  1  0.596000  0.390100  0.518970  1
  C  C354  1  0.904000  0.609900  0.018970  1
  C  C355  1  0.404000  0.609900  0.481030  1
  C  C356  1  0.096000  0.390100  0.981030  1
  C  C357  1  0.496400  0.363900  0.527600  1
  C  C358  1  0.003600  0.636100  0.027600  1
  C  C359  1  0.503600  0.636100  0.472400  1
  C  C360  1  0.996400  0.363900  0.972400  1
  C  C361  1  0.457600  0.389000  0.480380  1
  C  C362  1  0.042400  0.611000  0.980380  1
  C  C363  1  0.542400  0.611000  0.519620  1
  C  C364  1  0.957600  0.389000  0.019620  1
  C  C365  1  0.527200  0.459700  0.389980  1
  C  C366  1  0.972800  0.540300  0.889980  1
  C  C367  1  0.472800  0.540300  0.610020  1
  C  C368  1  0.027200  0.459700  0.110020  1
  C  C369  1  0.631500  0.287300  0.278260  1
  C  C370  1  0.868500  0.712700  0.778260  1
  C  C371  1  0.368500  0.712700  0.721740  1
  C  C372  1  0.131500  0.287300  0.221740  1
  C  C373  1  0.566600  0.254900  0.319960  1
  C  C374  1  0.933400  0.745100  0.819960  1
  C  C375  1  0.433400  0.745100  0.680040  1
  C  C376  1  0.066600  0.254900  0.180040  1
  C  C377  1  0.532800  0.311600  0.354960  1
  C  C378  1  0.967200  0.688400  0.854960  1
  C  C379  1  0.467200  0.688400  0.645040  1
  C  C380  1  0.032800  0.311600  0.145040  1
  C  C381  1  0.561700  0.400800  0.348530  1
  C  C382  1  0.938300  0.599200  0.848530  1
  C  C383  1  0.438300  0.599200  0.651470  1
  C  C384  1  0.061700  0.400800  0.151470  1
  C  C385  1  0.623800  0.437700  0.303740  1
  C  C386  1  0.876200  0.562300  0.803740  1
  C  C387  1  0.376200  0.562300  0.696260  1
  C  C388  1  0.123800  0.437700  0.196260  1
  C  C389  1  0.661000  0.380000  0.268780  1
  C  C390  1  0.839000  0.620000  0.768780  1
  C  C391  1  0.339000  0.620000  0.731220  1
  C  C392  1  0.161000  0.380000  0.231220  1
  C  C393  1  0.650100  0.529400  0.291580  1
  C  C394  1  0.849900  0.470600  0.791580  1
  C  C395  1  0.349900  0.470600  0.708420  1
  C  C396  1  0.150100  0.529400  0.208420  1
  C  C397  1  0.709200  0.562600  0.248150  1
  C  C398  1  0.790800  0.437400  0.748150  1
  C  C399  1  0.290800  0.437400  0.751850  1
  C  C400  1  0.209200  0.562600  0.251850  1
  C  C401  1  0.747300  0.506400  0.215170  1
  C  C402  1  0.752700  0.493600  0.715170  1
  C  C403  1  0.252700  0.493600  0.784830  1
  C  C404  1  0.247300  0.506400  0.284830  1
  C  C405  1  0.724200  0.418200  0.225120  1
  C  C406  1  0.775800  0.581800  0.725120  1
  C  C407  1  0.275800  0.581800  0.774880  1
  C  C408  1  0.224200  0.418200  0.274880  1
  N  N409  1  0.457180  0.012660  0.322900  1
  N  N410  1  0.042820  0.987340  0.822900  1
  N  N411  1  0.542820  0.987340  0.677100  1
  N  N412  1  0.957180  0.012660  0.177100  1
  N  N413  1  0.534890  0.108410  0.477420  1
  N  N414  1  0.965110  0.891590  0.977420  1
  N  N415  1  0.465110  0.891590  0.522580  1
  N  N416  1  0.034890  0.108410  0.022580  1
  N  N417  1  0.520390  0.069960  0.427020  1
  N  N418  1  0.979610  0.930040  0.927020  1
  N  N419  1  0.479610  0.930040  0.572980  1
  N  N420  1  0.020390  0.069960  0.072980  1
  N  N421  1  0.816170  0.623510  0.402010  1
  N  N422  1  0.683830  0.376490  0.902010  1
  N  N423  1  0.183830  0.376490  0.597990  1
  N  N424  1  0.316170  0.623510  0.097990  1
  N  N425  1  0.956350  0.429110  0.391180  1
  N  N426  1  0.543650  0.570890  0.891180  1
  N  N427  1  0.043650  0.570890  0.608820  1
  N  N428  1  0.456350  0.429110  0.108820  1
  N  N429  1  0.913690  0.493380  0.405150  1
  N  N430  1  0.586310  0.506620  0.905150  1
  N  N431  1  0.086310  0.506620  0.594850  1
  N  N432  1  0.413690  0.493380  0.094850  1
  N  N433  1  0.761780  0.018940  0.388700  1
  N  N434  1  0.738220  0.981060  0.888700  1
  N  N435  1  0.238220  0.981060  0.611300  1
  N  N436  1  0.261780  0.018940  0.111300  1
  N  N437  1  0.753140  0.202120  0.270700  1
  N  N438  1  0.746860  0.797880  0.770700  1
  N  N439  1  0.246860  0.797880  0.729300  1
  N  N440  1  0.253140  0.202120  0.229300  1
  N  N441  1  0.740060  0.141650  0.311870  1
  N  N442  1  0.759940  0.858350  0.811870  1
  N  N443  1  0.259940  0.858350  0.688130  1
  N  N444  1  0.240060  0.141650  0.188130  1
  N  N445  1  0.763910  0.424400  0.542200  1
  N  N446  1  0.736090  0.575600  0.042200  1
  N  N447  1  0.236090  0.575600  0.457800  1
  N  N448  1  0.263910  0.424400  0.957800  1
  N  N449  1  0.530630  0.427730  0.446590  1
  N  N450  1  0.969370  0.572270  0.946590  1
  N  N451  1  0.469370  0.572270  0.553410  1
  N  N452  1  0.030630  0.427730  0.053410  1
  N  N453  1  0.616540  0.428720  0.469160  1
  N  N454  1  0.883460  0.571280  0.969160  1
  N  N455  1  0.383460  0.571280  0.530840  1
  N  N456  1  0.116540  0.428720  0.030840  1
  Cl  Cl457  1  0.202400  0.261740  0.414230  1
  Cl  Cl458  1  0.297600  0.738260  0.914230  1
  Cl  Cl459  1  0.797600  0.738260  0.585770  1
  Cl  Cl460  1  0.702400  0.261740  0.085770  1
  Cl  Cl461  1  0.557910  0.795360  0.313540  1
  Cl  Cl462  1  0.942090  0.204640  0.813540  1
  Cl  Cl463  1  0.442090  0.204640  0.686460  1
  Cl  Cl464  1  0.057910  0.795360  0.186460  1
  Cl  Cl465  1  0.206100  0.270600  0.417040  1
  Cl  Cl466  1  0.293900  0.729400  0.917040  1
  Cl  Cl467  1  0.793900  0.729400  0.582960  1
  Cl  Cl468  1  0.706100  0.270600  0.082960  1
  O  O469  1  0.292000  0.287100  0.384700  1
  O  O470  1  0.208000  0.712900  0.884700  1
  O  O471  1  0.708000  0.712900  0.615300  1
  O  O472  1  0.792000  0.287100  0.115300  1
  O  O473  1  0.179400  0.168500  0.426700  1
  O  O474  1  0.320600  0.831500  0.926700  1
  O  O475  1  0.820600  0.831500  0.573300  1
  O  O476  1  0.679400  0.168500  0.073300  1
  O  O477  1  0.209700  0.311300  0.465110  1
  O  O478  1  0.290300  0.688700  0.965110  1
  O  O479  1  0.790300  0.688700  0.534890  1
  O  O480  1  0.709700  0.311300  0.034890  1
  O  O481  1  0.127400  0.279500  0.380130  1
  O  O482  1  0.372600  0.720500  0.880130  1
  O  O483  1  0.872600  0.720500  0.619870  1
  O  O484  1  0.627400  0.279500  0.119870  1
  O  O485  1  0.459680  0.792100  0.300960  1
  O  O486  1  0.040320  0.207900  0.800960  1
  O  O487  1  0.540320  0.207900  0.699040  1
  O  O488  1  0.959680  0.792100  0.199040  1
  O  O489  1  0.617700  0.879000  0.292000  1
  O  O490  1  0.882300  0.121000  0.792000  1
  O  O491  1  0.382300  0.121000  0.708000  1
  O  O492  1  0.117700  0.879000  0.208000  1
  O  O493  1  0.585100  0.724200  0.286700  1
  O  O494  1  0.914900  0.275800  0.786700  1
  O  O495  1  0.414900  0.275800  0.713300  1
  O  O496  1  0.085100  0.724200  0.213300  1
  O  O497  1  0.571800  0.793300  0.372300  1
  O  O498  1  0.928200  0.206700  0.872300  1
  O  O499  1  0.428200  0.206700  0.627700  1
  O  O500  1  0.071800  0.793300  0.127700  1
  O  O501  1  0.286400  0.274500  0.380900  1
  O  O502  1  0.213600  0.725500  0.880900  1
  O  O503  1  0.713600  0.725500  0.619100  1
  O  O504  1  0.786400  0.274500  0.119100  1
  O  O505  1  0.199200  0.201200  0.457400  1
  O  O506  1  0.300800  0.798800  0.957400  1
  O  O507  1  0.800800  0.798800  0.542600  1
  O  O508  1  0.699200  0.201200  0.042600  1
  O  O509  1  0.119200  0.253100  0.384800  1
  O  O510  1  0.380800  0.746900  0.884800  1
  O  O511  1  0.880800  0.746900  0.615200  1
  O  O512  1  0.619200  0.253100  0.115200  1
  O  O513  1  0.219200  0.354000  0.445500  1
  O  O514  1  0.280800  0.646000  0.945500  1
  O  O515  1  0.780800  0.646000  0.554500  1
  O  O516  1  0.719200  0.354000  0.054500  1
  O  O517  1  0.620600  0.846100  0.273600  1
  O  O518  1  0.879400  0.153900  0.773600  1
  O  O519  1  0.379400  0.153900  0.726400  1
  O  O520  1  0.120600  0.846100  0.226400  1
  O  O521  1  0.567500  0.705430  0.314500  1
  O  O522  1  0.932500  0.294570  0.814500  1
  O  O523  1  0.432500  0.294570  0.685500  1
  O  O524  1  0.067500  0.705430  0.185500  1
  O  O525  1  0.580300  0.832600  0.368430  1
  O  O526  1  0.919700  0.167400  0.868430  1
  O  O527  1  0.419700  0.167400  0.631570  1
  O  O528  1  0.080300  0.832600  0.131570  1
