# generated using pymatgen
data_AgH18C22SN6ClO8
_symmetry_space_group_name_H-M   'P 1'
_cell_length_a   11.57040000
_cell_length_b   18.52230000
_cell_length_c   21.62580000
_cell_angle_alpha   90.00000000
_cell_angle_beta   90.00000000
_cell_angle_gamma   90.00000000
_symmetry_Int_Tables_number   1
_chemical_formula_structural   AgH18C22SN6ClO8
_chemical_formula_sum   'Ag8 H144 C176 S8 N48 Cl8 O64'
_cell_volume   4634.63427911
_cell_formula_units_Z   8
loop_
 _symmetry_equiv_pos_site_id
 _symmetry_equiv_pos_as_xyz
  1  'x, y, z'
loop_
 _atom_site_type_symbol
 _atom_site_label
 _atom_site_symmetry_multiplicity
 _atom_site_fract_x
 _atom_site_fract_y
 _atom_site_fract_z
 _atom_site_occupancy
  Ag  Ag1  1  0.734730  0.361289  0.191519  1
  Ag  Ag2  1  0.265270  0.638711  0.691519  1
  Ag  Ag3  1  0.734730  0.138711  0.691519  1
  Ag  Ag4  1  0.265270  0.861289  0.191519  1
  Ag  Ag5  1  0.736780  0.826644  0.190720  1
  Ag  Ag6  1  0.263220  0.173356  0.690720  1
  Ag  Ag7  1  0.736780  0.673356  0.690720  1
  Ag  Ag8  1  0.263220  0.326644  0.190720  1
  H  H9  1  0.790900  0.282200  0.319400  1
  H  H10  1  0.209100  0.717800  0.819400  1
  H  H11  1  0.790900  0.217800  0.819400  1
  H  H12  1  0.209100  0.782200  0.319400  1
  H  H13  1  0.904300  0.298600  0.406200  1
  H  H14  1  0.095700  0.701400  0.906200  1
  H  H15  1  0.904300  0.201400  0.906200  1
  H  H16  1  0.095700  0.798600  0.406200  1
  H  H17  1  0.057000  0.382700  0.402900  1
  H  H18  1  0.943000  0.617300  0.902900  1
  H  H19  1  0.057000  0.117300  0.902900  1
  H  H20  1  0.943000  0.882700  0.402900  1
  H  H21  1  0.087700  0.448200  0.311500  1
  H  H22  1  0.912300  0.551800  0.811500  1
  H  H23  1  0.087700  0.051800  0.811500  1
  H  H24  1  0.912300  0.948200  0.311500  1
  H  H25  1  0.130400  0.500500  0.215100  1
  H  H26  1  0.869600  0.499500  0.715100  1
  H  H27  1  0.130400  0.999500  0.715100  1
  H  H28  1  0.869600  0.000500  0.215100  1
  H  H29  1  0.082400  0.549200  0.109600  1
  H  H30  1  0.917600  0.450800  0.609600  1
  H  H31  1  0.082400  0.950800  0.609600  1
  H  H32  1  0.917600  0.049200  0.109600  1
  H  H33  1  0.817400  0.457300  0.051600  1
  H  H34  1  0.182600  0.542700  0.551600  1
  H  H35  1  0.817400  0.042700  0.551600  1
  H  H36  1  0.182600  0.957300  0.051600  1
  H  H37  1  0.926700  0.498500  0.023200  1
  H  H38  1  0.073300  0.501500  0.523200  1
  H  H39  1  0.926700  0.001500  0.523200  1
  H  H40  1  0.073300  0.998500  0.023200  1
  H  H41  1  0.729800  0.912300  0.326700  1
  H  H42  1  0.270200  0.087700  0.826700  1
  H  H43  1  0.729800  0.587700  0.826700  1
  H  H44  1  0.270200  0.412300  0.326700  1
  H  H45  1  0.643600  0.902200  0.424200  1
  H  H46  1  0.356400  0.097800  0.924200  1
  H  H47  1  0.643600  0.597800  0.924200  1
  H  H48  1  0.356400  0.402200  0.424200  1
  H  H49  1  0.489100  0.820100  0.436800  1
  H  H50  1  0.510900  0.179900  0.936800  1
  H  H51  1  0.489100  0.679900  0.936800  1
  H  H52  1  0.510900  0.320100  0.436800  1
  H  H53  1  0.425800  0.753900  0.352000  1
  H  H54  1  0.574200  0.246100  0.852000  1
  H  H55  1  0.425800  0.746100  0.852000  1
  H  H56  1  0.574200  0.253900  0.352000  1
  H  H57  1  0.352300  0.696700  0.259500  1
  H  H58  1  0.647700  0.303300  0.759500  1
  H  H59  1  0.352300  0.803300  0.759500  1
  H  H60  1  0.647700  0.196700  0.259500  1
  H  H61  1  0.360300  0.653200  0.149000  1
  H  H62  1  0.639700  0.346800  0.649000  1
  H  H63  1  0.360300  0.846800  0.649000  1
  H  H64  1  0.639700  0.153200  0.149000  1
  H  H65  1  0.563100  0.756000  0.063200  1
  H  H66  1  0.436900  0.244000  0.563200  1
  H  H67  1  0.563100  0.744000  0.563200  1
  H  H68  1  0.436900  0.256000  0.063200  1
  H  H69  1  0.487800  0.684400  0.055000  1
  H  H70  1  0.512200  0.315600  0.555000  1
  H  H71  1  0.487800  0.815600  0.555000  1
  H  H72  1  0.512200  0.184400  0.055000  1
  H  H73  1  0.911400  0.638300  0.013300  1
  H  H74  1  0.088600  0.361700  0.513300  1
  H  H75  1  0.911400  0.861700  0.513300  1
  H  H76  1  0.088600  0.138300  0.013300  1
  H  H77  1  0.763600  0.733600  0.023200  1
  H  H78  1  0.236400  0.266400  0.523200  1
  H  H79  1  0.763600  0.766400  0.523200  1
  H  H80  1  0.236400  0.233600  0.023200  1
  H  H81  1  0.718000  0.288800  0.055600  1
  H  H82  1  0.282000  0.711200  0.555600  1
  H  H83  1  0.718000  0.211200  0.555600  1
  H  H84  1  0.282000  0.788800  0.055600  1
  H  H85  1  0.636200  0.311500  0.960800  1
  H  H86  1  0.363800  0.688500  0.460800  1
  H  H87  1  0.636200  0.188500  0.460800  1
  H  H88  1  0.363800  0.811500  0.960800  1
  H  H89  1  0.493100  0.400100  0.952600  1
  H  H90  1  0.506900  0.599900  0.452600  1
  H  H91  1  0.493100  0.099900  0.452600  1
  H  H92  1  0.506900  0.900100  0.952600  1
  H  H93  1  0.429300  0.459400  0.041900  1
  H  H94  1  0.570700  0.540600  0.541900  1
  H  H95  1  0.429300  0.040600  0.541900  1
  H  H96  1  0.570700  0.959400  0.041900  1
  H  H97  1  0.347200  0.499100  0.143400  1
  H  H98  1  0.652800  0.500900  0.643400  1
  H  H99  1  0.347200  0.000900  0.643400  1
  H  H100  1  0.652800  0.999100  0.143400  1
  H  H101  1  0.373700  0.541700  0.252400  1
  H  H102  1  0.626300  0.458300  0.752400  1
  H  H103  1  0.373700  0.958300  0.752400  1
  H  H104  1  0.626300  0.041700  0.252400  1
  H  H105  1  0.593600  0.443400  0.329200  1
  H  H106  1  0.406400  0.556600  0.829200  1
  H  H107  1  0.593600  0.056600  0.829200  1
  H  H108  1  0.406400  0.943400  0.329200  1
  H  H109  1  0.520400  0.515500  0.339100  1
  H  H110  1  0.479600  0.484500  0.839100  1
  H  H111  1  0.520400  0.984500  0.839100  1
  H  H112  1  0.479600  0.015500  0.339100  1
  H  H113  1  0.757900  0.922000  0.063100  1
  H  H114  1  0.242100  0.078000  0.563100  1
  H  H115  1  0.757900  0.578000  0.563100  1
  H  H116  1  0.242100  0.422000  0.063100  1
  H  H117  1  0.852800  0.922000  0.968300  1
  H  H118  1  0.147200  0.078000  0.468300  1
  H  H119  1  0.852800  0.578000  0.468300  1
  H  H120  1  0.147200  0.422000  0.968300  1
  H  H121  1  0.013300  0.845200  0.955700  1
  H  H122  1  0.986700  0.154800  0.455700  1
  H  H123  1  0.013300  0.654800  0.455700  1
  H  H124  1  0.986700  0.345200  0.955700  1
  H  H125  1  0.069400  0.769900  0.036700  1
  H  H126  1  0.930600  0.230100  0.536700  1
  H  H127  1  0.069400  0.730100  0.536700  1
  H  H128  1  0.930600  0.269900  0.036700  1
  H  H129  1  0.125700  0.699000  0.125200  1
  H  H130  1  0.874300  0.301000  0.625200  1
  H  H131  1  0.125700  0.801000  0.625200  1
  H  H132  1  0.874300  0.199000  0.125200  1
  H  H133  1  0.104900  0.645500  0.232900  1
  H  H134  1  0.895100  0.354500  0.732900  1
  H  H135  1  0.104900  0.854500  0.732900  1
  H  H136  1  0.895100  0.145500  0.232900  1
  H  H137  1  0.859900  0.737800  0.311000  1
  H  H138  1  0.140100  0.262200  0.811000  1
  H  H139  1  0.859900  0.762200  0.811000  1
  H  H140  1  0.140100  0.237800  0.311000  1
  H  H141  1  0.972800  0.693800  0.330500  1
  H  H142  1  0.027200  0.306200  0.830500  1
  H  H143  1  0.972800  0.806200  0.830500  1
  H  H144  1  0.027200  0.193800  0.330500  1
  H  H145  1  0.794700  0.467900  0.358800  1
  H  H146  1  0.205300  0.532100  0.858800  1
  H  H147  1  0.794700  0.032100  0.858800  1
  H  H148  1  0.205300  0.967900  0.358800  1
  H  H149  1  0.947700  0.560200  0.353300  1
  H  H150  1  0.052300  0.439800  0.853300  1
  H  H151  1  0.947700  0.939800  0.853300  1
  H  H152  1  0.052300  0.060200  0.353300  1
  C  C153  1  0.851900  0.316500  0.317900  1
  C  C154  1  0.148100  0.683500  0.817900  1
  C  C155  1  0.851900  0.183500  0.817900  1
  C  C156  1  0.148100  0.816500  0.317900  1
  C  C157  1  0.919100  0.325700  0.369800  1
  C  C158  1  0.080900  0.674300  0.869800  1
  C  C159  1  0.919100  0.174300  0.869800  1
  C  C160  1  0.080900  0.825700  0.369800  1
  C  C161  1  0.008900  0.375300  0.367900  1
  C  C162  1  0.991100  0.624700  0.867900  1
  C  C163  1  0.008900  0.124700  0.867900  1
  C  C164  1  0.991100  0.875300  0.367900  1
  C  C165  1  0.026900  0.413800  0.313900  1
  C  C166  1  0.973100  0.586200  0.813900  1
  C  C167  1  0.026900  0.086200  0.813900  1
  C  C168  1  0.973100  0.913800  0.313900  1
  C  C169  1  0.955700  0.402000  0.262910  1
  C  C170  1  0.044300  0.598000  0.762910  1
  C  C171  1  0.955700  0.098000  0.762910  1
  C  C172  1  0.044300  0.902000  0.262910  1
  C  C173  1  0.972600  0.444000  0.205720  1
  C  C174  1  0.027400  0.556000  0.705720  1
  C  C175  1  0.972600  0.056000  0.705720  1
  C  C176  1  0.027400  0.944000  0.205720  1
  C  C177  1  0.064300  0.489800  0.190800  1
  C  C178  1  0.935700  0.510200  0.690800  1
  C  C179  1  0.064300  0.010200  0.690800  1
  C  C180  1  0.935700  0.989800  0.190800  1
  C  C181  1  0.038000  0.515900  0.133100  1
  C  C182  1  0.962000  0.484100  0.633100  1
  C  C183  1  0.038000  0.984100  0.633100  1
  C  C184  1  0.962000  0.015900  0.133100  1
  C  C185  1  0.871700  0.497800  0.058300  1
  C  C186  1  0.128300  0.502200  0.558300  1
  C  C187  1  0.871700  0.002200  0.558300  1
  C  C188  1  0.128300  0.997800  0.058300  1
  C  C189  1  0.668100  0.879100  0.332100  1
  C  C190  1  0.331900  0.120900  0.832100  1
  C  C191  1  0.668100  0.620900  0.832100  1
  C  C192  1  0.331900  0.379100  0.332100  1
  C  C193  1  0.616900  0.873800  0.390500  1
  C  C194  1  0.383100  0.126200  0.890500  1
  C  C195  1  0.616900  0.626200  0.890500  1
  C  C196  1  0.383100  0.373800  0.390500  1
  C  C197  1  0.525500  0.825700  0.397700  1
  C  C198  1  0.474500  0.174300  0.897700  1
  C  C199  1  0.525500  0.674300  0.897700  1
  C  C200  1  0.474500  0.325700  0.397700  1
  C  C201  1  0.488900  0.786400  0.347800  1
  C  C202  1  0.511100  0.213600  0.847800  1
  C  C203  1  0.488900  0.713600  0.847800  1
  C  C204  1  0.511100  0.286400  0.347800  1
  C  C205  1  0.543900  0.794000  0.290700  1
  C  C206  1  0.456100  0.206000  0.790700  1
  C  C207  1  0.543900  0.706000  0.790700  1
  C  C208  1  0.456100  0.294000  0.290700  1
  C  C209  1  0.505300  0.753200  0.236500  1
  C  C210  1  0.494700  0.246800  0.736500  1
  C  C211  1  0.505300  0.746800  0.736500  1
  C  C212  1  0.494700  0.253200  0.236500  1
  C  C213  1  0.409000  0.708200  0.229300  1
  C  C214  1  0.591000  0.291800  0.729300  1
  C  C215  1  0.409000  0.791800  0.729300  1
  C  C216  1  0.591000  0.208200  0.229300  1
  C  C217  1  0.414000  0.684200  0.168900  1
  C  C218  1  0.586000  0.315800  0.668900  1
  C  C219  1  0.414000  0.815800  0.668900  1
  C  C220  1  0.586000  0.184200  0.168900  1
  C  C221  1  0.550200  0.706800  0.079800  1
  C  C222  1  0.449800  0.293200  0.579800  1
  C  C223  1  0.550200  0.793200  0.579800  1
  C  C224  1  0.449800  0.206800  0.079800  1
  C  C225  1  0.805300  0.566900  0.058700  1
  C  C226  1  0.194700  0.433100  0.558700  1
  C  C227  1  0.805300  0.933100  0.558700  1
  C  C228  1  0.194700  0.066900  0.058700  1
  C  C229  1  0.839000  0.631300  0.033060  1
  C  C230  1  0.161000  0.368700  0.533060  1
  C  C231  1  0.839000  0.868700  0.533060  1
  C  C232  1  0.161000  0.131300  0.033060  1
  C  C233  1  0.754400  0.686200  0.039200  1
  C  C234  1  0.245600  0.313800  0.539200  1
  C  C235  1  0.754400  0.813800  0.539200  1
  C  C236  1  0.245600  0.186200  0.039200  1
  C  C237  1  0.658300  0.663800  0.070440  1
  C  C238  1  0.341700  0.336200  0.570440  1
  C  C239  1  0.658300  0.836200  0.570440  1
  C  C240  1  0.341700  0.163800  0.070440  1
  C  C241  1  0.657900  0.323600  0.053000  1
  C  C242  1  0.342100  0.676400  0.553000  1
  C  C243  1  0.657900  0.176400  0.553000  1
  C  C244  1  0.342100  0.823600  0.053000  1
  C  C245  1  0.610800  0.337200  0.996300  1
  C  C246  1  0.389200  0.662800  0.496300  1
  C  C247  1  0.610800  0.162800  0.496300  1
  C  C248  1  0.389200  0.837200  0.996300  1
  C  C249  1  0.525800  0.388800  0.991700  1
  C  C250  1  0.474200  0.611200  0.491700  1
  C  C251  1  0.525800  0.111200  0.491700  1
  C  C252  1  0.474200  0.888800  0.991700  1
  C  C253  1  0.488300  0.423800  0.044200  1
  C  C254  1  0.511700  0.576200  0.544200  1
  C  C255  1  0.488300  0.076200  0.544200  1
  C  C256  1  0.511700  0.923800  0.044200  1
  C  C257  1  0.539000  0.406100  0.101100  1
  C  C258  1  0.461000  0.593900  0.601100  1
  C  C259  1  0.539000  0.093900  0.601100  1
  C  C260  1  0.461000  0.906100  0.101100  1
  C  C261  1  0.504900  0.443700  0.158200  1
  C  C262  1  0.495100  0.556300  0.658200  1
  C  C263  1  0.504900  0.056300  0.658200  1
  C  C264  1  0.495100  0.943700  0.158200  1
  C  C265  1  0.409100  0.487700  0.170500  1
  C  C266  1  0.590900  0.512300  0.670500  1
  C  C267  1  0.409100  0.012300  0.670500  1
  C  C268  1  0.590900  0.987700  0.170500  1
  C  C269  1  0.424000  0.510800  0.229900  1
  C  C270  1  0.576000  0.489200  0.729900  1
  C  C271  1  0.424000  0.989200  0.729900  1
  C  C272  1  0.576000  0.010800  0.229900  1
  C  C273  1  0.577000  0.491600  0.311600  1
  C  C274  1  0.423000  0.508400  0.811600  1
  C  C275  1  0.577000  0.008400  0.811600  1
  C  C276  1  0.423000  0.991600  0.311600  1
  C  C277  1  0.821000  0.889800  0.057300  1
  C  C278  1  0.179000  0.110200  0.557300  1
  C  C279  1  0.821000  0.610200  0.557300  1
  C  C280  1  0.179000  0.389800  0.057300  1
  C  C281  1  0.877600  0.891100  0.000800  1
  C  C282  1  0.122400  0.108900  0.500800  1
  C  C283  1  0.877600  0.608900  0.500800  1
  C  C284  1  0.122400  0.391100  0.000800  1
  C  C285  1  0.971700  0.845600  0.993600  1
  C  C286  1  0.028300  0.154400  0.493600  1
  C  C287  1  0.971700  0.654400  0.493600  1
  C  C288  1  0.028300  0.345600  0.993600  1
  C  C289  1  0.004800  0.801000  0.041200  1
  C  C290  1  0.995200  0.199000  0.541200  1
  C  C291  1  0.004800  0.699000  0.541200  1
  C  C292  1  0.995200  0.301000  0.041200  1
  C  C293  1  0.942000  0.802100  0.096600  1
  C  C294  1  0.058000  0.197900  0.596600  1
  C  C295  1  0.942000  0.697900  0.596600  1
  C  C296  1  0.058000  0.302100  0.096600  1
  C  C297  1  0.973000  0.755700  0.149200  1
  C  C298  1  0.027000  0.244300  0.649200  1
  C  C299  1  0.973000  0.744300  0.649200  1
  C  C300  1  0.027000  0.255700  0.149200  1
  C  C301  1  0.067000  0.708700  0.154800  1
  C  C302  1  0.933000  0.291300  0.654800  1
  C  C303  1  0.067000  0.791300  0.654800  1
  C  C304  1  0.933000  0.208700  0.154800  1
  C  C305  1  0.054700  0.679400  0.213700  1
  C  C306  1  0.945300  0.320600  0.713700  1
  C  C307  1  0.054700  0.820600  0.713700  1
  C  C308  1  0.945300  0.179400  0.213700  1
  C  C309  1  0.908700  0.695700  0.300200  1
  C  C310  1  0.091300  0.304300  0.800200  1
  C  C311  1  0.908700  0.804300  0.800200  1
  C  C312  1  0.091300  0.195700  0.300200  1
  C  C313  1  0.685300  0.534300  0.312300  1
  C  C314  1  0.314700  0.465700  0.812300  1
  C  C315  1  0.685300  0.965700  0.812300  1
  C  C316  1  0.314700  0.034300  0.312300  1
  C  C317  1  0.784600  0.513600  0.339500  1
  C  C318  1  0.215400  0.486400  0.839500  1
  C  C319  1  0.784600  0.986400  0.839500  1
  C  C320  1  0.215400  0.013600  0.339500  1
  C  C321  1  0.872500  0.566800  0.336600  1
  C  C322  1  0.127500  0.433200  0.836600  1
  C  C323  1  0.872500  0.933200  0.836600  1
  C  C324  1  0.127500  0.066800  0.336600  1
  C  C325  1  0.837800  0.629000  0.307200  1
  C  C326  1  0.162200  0.371000  0.807200  1
  C  C327  1  0.837800  0.871000  0.807200  1
  C  C328  1  0.162200  0.129000  0.307200  1
  S  S329  1  0.670550  0.575030  0.091900  1
  S  S330  1  0.329450  0.424970  0.591900  1
  S  S331  1  0.670550  0.924970  0.591900  1
  S  S332  1  0.329450  0.075030  0.091900  1
  S  S333  1  0.696250  0.619300  0.281350  1
  S  S334  1  0.303750  0.380700  0.781350  1
  S  S335  1  0.696250  0.880700  0.781350  1
  S  S336  1  0.303750  0.119300  0.281350  1
  N  N337  1  0.868100  0.353540  0.265230  1
  N  N338  1  0.131900  0.646460  0.765230  1
  N  N339  1  0.868100  0.146460  0.765230  1
  N  N340  1  0.131900  0.853540  0.265230  1
  N  N341  1  0.936100  0.485200  0.115940  1
  N  N342  1  0.063900  0.514800  0.615940  1
  N  N343  1  0.936100  0.014800  0.615940  1
  N  N344  1  0.063900  0.985200  0.115940  1
  N  N345  1  0.894500  0.441020  0.159840  1
  N  N346  1  0.105500  0.558980  0.659840  1
  N  N347  1  0.894500  0.058980  0.659840  1
  N  N348  1  0.105500  0.941020  0.159840  1
  N  N349  1  0.634900  0.839700  0.283380  1
  N  N350  1  0.365100  0.160300  0.783380  1
  N  N351  1  0.634900  0.660300  0.783380  1
  N  N352  1  0.365100  0.339700  0.283380  1
  N  N353  1  0.510200  0.713300  0.143590  1
  N  N354  1  0.489800  0.286700  0.643590  1
  N  N355  1  0.510200  0.786700  0.643590  1
  N  N356  1  0.489800  0.213300  0.143590  1
  N  N357  1  0.567400  0.756540  0.184200  1
  N  N358  1  0.432600  0.243460  0.684200  1
  N  N359  1  0.567400  0.743460  0.684200  1
  N  N360  1  0.432600  0.256540  0.184200  1
  N  N361  1  0.624300  0.356380  0.105120  1
  N  N362  1  0.375700  0.643620  0.605120  1
  N  N363  1  0.624300  0.143620  0.605120  1
  N  N364  1  0.375700  0.856380  0.105120  1
  N  N365  1  0.523100  0.481610  0.250830  1
  N  N366  1  0.476900  0.518390  0.750830  1
  N  N367  1  0.523100  0.018390  0.750830  1
  N  N368  1  0.476900  0.981610  0.250830  1
  N  N369  1  0.574100  0.440100  0.207520  1
  N  N370  1  0.425900  0.559900  0.707520  1
  N  N371  1  0.574100  0.059900  0.707520  1
  N  N372  1  0.425900  0.940100  0.207520  1
  N  N373  1  0.849400  0.846300  0.104360  1
  N  N374  1  0.150600  0.153700  0.604360  1
  N  N375  1  0.849400  0.653700  0.604360  1
  N  N376  1  0.150600  0.346300  0.104360  1
  N  N377  1  0.958300  0.708000  0.238380  1
  N  N378  1  0.041700  0.292000  0.738380  1
  N  N379  1  0.958300  0.792000  0.738380  1
  N  N380  1  0.041700  0.208000  0.238380  1
  N  N381  1  0.907200  0.755490  0.200000  1
  N  N382  1  0.092800  0.244510  0.700000  1
  N  N383  1  0.907200  0.744510  0.700000  1
  N  N384  1  0.092800  0.255490  0.200000  1
  Cl  Cl385  1  0.231540  0.590200  0.366100  1
  Cl  Cl386  1  0.768460  0.409800  0.866100  1
  Cl  Cl387  1  0.231540  0.909800  0.866100  1
  Cl  Cl388  1  0.768460  0.090200  0.366100  1
  Cl  Cl389  1  0.246290  0.602000  0.005600  1
  Cl  Cl390  1  0.753710  0.398000  0.505600  1
  Cl  Cl391  1  0.246290  0.898000  0.505600  1
  Cl  Cl392  1  0.753710  0.102000  0.005600  1
  O  O393  1  0.184800  0.558800  0.310400  1
  O  O394  1  0.815200  0.441200  0.810400  1
  O  O395  1  0.184800  0.941200  0.810400  1
  O  O396  1  0.815200  0.058800  0.310400  1
  O  O397  1  0.169800  0.654200  0.383400  1
  O  O398  1  0.830200  0.345800  0.883400  1
  O  O399  1  0.169800  0.845800  0.883400  1
  O  O400  1  0.830200  0.154200  0.383400  1
  O  O401  1  0.354500  0.609000  0.358400  1
  O  O402  1  0.645500  0.391000  0.858400  1
  O  O403  1  0.354500  0.891000  0.858400  1
  O  O404  1  0.645500  0.109000  0.358400  1
  O  O405  1  0.221500  0.537900  0.414100  1
  O  O406  1  0.778500  0.462100  0.914100  1
  O  O407  1  0.221500  0.962100  0.914100  1
  O  O408  1  0.778500  0.037900  0.414100  1
  O  O409  1  0.322100  0.575800  0.960400  1
  O  O410  1  0.677900  0.424200  0.460400  1
  O  O411  1  0.322100  0.924200  0.460400  1
  O  O412  1  0.677900  0.075800  0.960400  1
  O  O413  1  0.281000  0.672600  0.989000  1
  O  O414  1  0.719000  0.327400  0.489000  1
  O  O415  1  0.281000  0.827400  0.489000  1
  O  O416  1  0.719000  0.172600  0.989000  1
  O  O417  1  0.136000  0.570600  0.987400  1
  O  O418  1  0.864000  0.429400  0.487400  1
  O  O419  1  0.136000  0.929400  0.487400  1
  O  O420  1  0.864000  0.070600  0.987400  1
  O  O421  1  0.290900  0.574900  0.062900  1
  O  O422  1  0.709100  0.425100  0.562900  1
  O  O423  1  0.290900  0.925100  0.562900  1
  O  O424  1  0.709100  0.074900  0.062900  1
  O  O425  1  0.192400  0.571100  0.304200  1
  O  O426  1  0.807600  0.428900  0.804200  1
  O  O427  1  0.192400  0.928900  0.804200  1
  O  O428  1  0.807600  0.071100  0.304200  1
  O  O429  1  0.190100  0.663000  0.377100  1
  O  O430  1  0.809900  0.337000  0.877100  1
  O  O431  1  0.190100  0.837000  0.877100  1
  O  O432  1  0.809900  0.163000  0.377100  1
  O  O433  1  0.353900  0.585900  0.366500  1
  O  O434  1  0.646100  0.414100  0.866500  1
  O  O435  1  0.353900  0.914100  0.866500  1
  O  O436  1  0.646100  0.085900  0.366500  1
  O  O437  1  0.184700  0.540200  0.409800  1
  O  O438  1  0.815300  0.459800  0.909800  1
  O  O439  1  0.184700  0.959800  0.909800  1
  O  O440  1  0.815300  0.040200  0.409800  1
  O  O441  1  0.316700  0.552900  0.969800  1
  O  O442  1  0.683300  0.447100  0.469800  1
  O  O443  1  0.316700  0.947100  0.469800  1
  O  O444  1  0.683300  0.052900  0.969800  1
  O  O445  1  0.248100  0.680500  0.001000  1
  O  O446  1  0.751900  0.319500  0.501000  1
  O  O447  1  0.248100  0.819500  0.501000  1
  O  O448  1  0.751900  0.180500  0.001000  1
  O  O449  1  0.122100  0.594000  0.000100  1
  O  O450  1  0.877900  0.406000  0.500100  1
  O  O451  1  0.122100  0.906000  0.500100  1
  O  O452  1  0.877900  0.094000  0.000100  1
  O  O453  1  0.267200  0.593100  0.072200  1
  O  O454  1  0.732800  0.406900  0.572200  1
  O  O455  1  0.267200  0.906900  0.572200  1
  O  O456  1  0.732800  0.093100  0.072200  1
