# generated using pymatgen
data_NaVH16(CO)12
_symmetry_space_group_name_H-M   'P 1'
_cell_length_a   18.04520000
_cell_length_b   18.04520000
_cell_length_c   31.00000000
_cell_angle_alpha   90.00000000
_cell_angle_beta   90.00000000
_cell_angle_gamma   120.00000000
_symmetry_Int_Tables_number   1
_chemical_formula_structural   NaVH16(CO)12
_chemical_formula_sum   'Na12 V12 H192 C144 O144'
_cell_volume   8742.09909732
_cell_formula_units_Z   12
loop_
 _symmetry_equiv_pos_site_id
 _symmetry_equiv_pos_as_xyz
  1  'x, y, z'
loop_
 _atom_site_type_symbol
 _atom_site_label
 _atom_site_symmetry_multiplicity
 _atom_site_fract_x
 _atom_site_fract_y
 _atom_site_fract_z
 _atom_site_occupancy
  Na  Na1  1  0.680920  0.888600  0.751010  1.0
  Na  Na2  1  0.207680  0.319080  0.751010  1.0
  Na  Na3  1  0.111400  0.792320  0.751010  1.0
  Na  Na4  1  0.319080  0.111400  0.751010  1.0
  Na  Na5  1  0.792320  0.680920  0.751010  1.0
  Na  Na6  1  0.888600  0.207680  0.751010  1.0
  Na  Na7  1  0.792320  0.111400  0.248990  1.0
  Na  Na8  1  0.888600  0.680920  0.248990  1.0
  Na  Na9  1  0.319080  0.207680  0.248990  1.0
  Na  Na10  1  0.207680  0.888600  0.248990  1.0
  Na  Na11  1  0.111400  0.319080  0.248990  1.0
  Na  Na12  1  0.680920  0.792320  0.248990  1.0
  V  V13  1  0.683540  0.071170  0.751120  1.0
  V  V14  1  0.387630  0.316460  0.751120  1.0
  V  V15  1  0.928830  0.612370  0.751120  1.0
  V  V16  1  0.316460  0.928830  0.751120  1.0
  V  V17  1  0.612370  0.683540  0.751120  1.0
  V  V18  1  0.071170  0.387630  0.751120  1.0
  V  V19  1  0.612370  0.928830  0.248880  1.0
  V  V20  1  0.071170  0.683540  0.248880  1.0
  V  V21  1  0.316460  0.387630  0.248880  1.0
  V  V22  1  0.387630  0.071170  0.248880  1.0
  V  V23  1  0.928830  0.316460  0.248880  1.0
  V  V24  1  0.683540  0.612370  0.248880  1.0
  H  H25  1  0.649800  0.920000  0.540600  1.0
  H  H26  1  0.270200  0.350200  0.540600  1.0
  H  H27  1  0.080000  0.729800  0.540600  1.0
  H  H28  1  0.350200  0.080000  0.540600  1.0
  H  H29  1  0.729800  0.649800  0.540600  1.0
  H  H30  1  0.920000  0.270200  0.540600  1.0
  H  H31  1  0.729800  0.080000  0.459400  1.0
  H  H32  1  0.920000  0.649800  0.459400  1.0
  H  H33  1  0.350200  0.270200  0.459400  1.0
  H  H34  1  0.270200  0.920000  0.459400  1.0
  H  H35  1  0.080000  0.350200  0.459400  1.0
  H  H36  1  0.649800  0.729800  0.459400  1.0
  H  H37  1  0.750300  0.128500  0.945900  1.0
  H  H38  1  0.378200  0.249700  0.945900  1.0
  H  H39  1  0.871500  0.621800  0.945900  1.0
  H  H40  1  0.249700  0.871500  0.945900  1.0
  H  H41  1  0.621800  0.750300  0.945900  1.0
  H  H42  1  0.128500  0.378200  0.945900  1.0
  H  H43  1  0.621800  0.871500  0.054100  1.0
  H  H44  1  0.128500  0.750300  0.054100  1.0
  H  H45  1  0.249700  0.378200  0.054100  1.0
  H  H46  1  0.378200  0.128500  0.054100  1.0
  H  H47  1  0.871500  0.249700  0.054100  1.0
  H  H48  1  0.750300  0.621800  0.054100  1.0
  H  H49  1  0.818600  0.215300  0.625500  1.0
  H  H50  1  0.396700  0.181400  0.625500  1.0
  H  H51  1  0.784700  0.603300  0.625500  1.0
  H  H52  1  0.181400  0.784700  0.625500  1.0
  H  H53  1  0.603300  0.818600  0.625500  1.0
  H  H54  1  0.215300  0.396700  0.625500  1.0
  H  H55  1  0.603300  0.784700  0.374500  1.0
  H  H56  1  0.215300  0.818600  0.374500  1.0
  H  H57  1  0.181400  0.396700  0.374500  1.0
  H  H58  1  0.396700  0.215300  0.374500  1.0
  H  H59  1  0.784700  0.181400  0.374500  1.0
  H  H60  1  0.818600  0.603300  0.374500  1.0
  H  H61  1  0.692100  0.106700  0.656700  1.0
  H  H62  1  0.414600  0.307900  0.656700  1.0
  H  H63  1  0.893300  0.585400  0.656700  1.0
  H  H64  1  0.307900  0.893300  0.656700  1.0
  H  H65  1  0.585400  0.692100  0.656700  1.0
  H  H66  1  0.106700  0.414600  0.656700  1.0
  H  H67  1  0.585400  0.893300  0.343300  1.0
  H  H68  1  0.106700  0.692100  0.343300  1.0
  H  H69  1  0.307900  0.414600  0.343300  1.0
  H  H70  1  0.414600  0.106700  0.343300  1.0
  H  H71  1  0.893300  0.307900  0.343300  1.0
  H  H72  1  0.692100  0.585400  0.343300  1.0
  H  H73  1  0.788400  0.031200  0.688400  1.0
  H  H74  1  0.242800  0.211600  0.688400  1.0
  H  H75  1  0.968800  0.757200  0.688400  1.0
  H  H76  1  0.211600  0.968800  0.688400  1.0
  H  H77  1  0.757200  0.788400  0.688400  1.0
  H  H78  1  0.031200  0.242800  0.688400  1.0
  H  H79  1  0.757200  0.968800  0.311600  1.0
  H  H80  1  0.031200  0.788400  0.311600  1.0
  H  H81  1  0.211600  0.242800  0.311600  1.0
  H  H82  1  0.242800  0.031200  0.311600  1.0
  H  H83  1  0.968800  0.211600  0.311600  1.0
  H  H84  1  0.788400  0.757200  0.311600  1.0
  H  H85  1  0.655000  0.953300  0.625400  1.0
  H  H86  1  0.298300  0.345000  0.625400  1.0
  H  H87  1  0.046700  0.701700  0.625400  1.0
  H  H88  1  0.345000  0.046700  0.625400  1.0
  H  H89  1  0.701700  0.655000  0.625400  1.0
  H  H90  1  0.953300  0.298300  0.625400  1.0
  H  H91  1  0.701700  0.046700  0.374600  1.0
  H  H92  1  0.953300  0.655000  0.374600  1.0
  H  H93  1  0.345000  0.298300  0.374600  1.0
  H  H94  1  0.298300  0.953300  0.374600  1.0
  H  H95  1  0.046700  0.345000  0.374600  1.0
  H  H96  1  0.655000  0.701700  0.374600  1.0
  H  H97  1  0.838000  0.033100  0.610200  1.0
  H  H98  1  0.195100  0.162000  0.610200  1.0
  H  H99  1  0.966900  0.804900  0.610200  1.0
  H  H100  1  0.162000  0.966900  0.610200  1.0
  H  H101  1  0.804900  0.838000  0.610200  1.0
  H  H102  1  0.033100  0.195100  0.610200  1.0
  H  H103  1  0.804900  0.966900  0.389800  1.0
  H  H104  1  0.033100  0.838000  0.389800  1.0
  H  H105  1  0.162000  0.195100  0.389800  1.0
  H  H106  1  0.195100  0.033100  0.389800  1.0
  H  H107  1  0.966900  0.162000  0.389800  1.0
  H  H108  1  0.838000  0.804900  0.389800  1.0
  H  H109  1  0.810000  0.021800  0.535900  1.0
  H  H110  1  0.211800  0.190000  0.535900  1.0
  H  H111  1  0.978200  0.788200  0.535900  1.0
  H  H112  1  0.190000  0.978200  0.535900  1.0
  H  H113  1  0.788200  0.810000  0.535900  1.0
  H  H114  1  0.021800  0.211800  0.535900  1.0
  H  H115  1  0.788200  0.978200  0.464100  1.0
  H  H116  1  0.021800  0.810000  0.464100  1.0
  H  H117  1  0.190000  0.211800  0.464100  1.0
  H  H118  1  0.211800  0.021800  0.464100  1.0
  H  H119  1  0.978200  0.190000  0.464100  1.0
  H  H120  1  0.810000  0.788200  0.464100  1.0
  H  H121  1  0.760500  0.928500  0.556900  1.0
  H  H122  1  0.168000  0.239500  0.556900  1.0
  H  H123  1  0.071500  0.832000  0.556900  1.0
  H  H124  1  0.239500  0.071500  0.556900  1.0
  H  H125  1  0.832000  0.760500  0.556900  1.0
  H  H126  1  0.928500  0.168000  0.556900  1.0
  H  H127  1  0.832000  0.071500  0.443100  1.0
  H  H128  1  0.928500  0.760500  0.443100  1.0
  H  H129  1  0.239500  0.168000  0.443100  1.0
  H  H130  1  0.168000  0.928500  0.443100  1.0
  H  H131  1  0.071500  0.239500  0.443100  1.0
  H  H132  1  0.760500  0.832000  0.443100  1.0
  H  H133  1  0.622200  0.913700  0.876800  1.0
  H  H134  1  0.291500  0.377800  0.876800  1.0
  H  H135  1  0.086300  0.708500  0.876800  1.0
  H  H136  1  0.377800  0.086300  0.876800  1.0
  H  H137  1  0.708500  0.622200  0.876800  1.0
  H  H138  1  0.913700  0.291500  0.876800  1.0
  H  H139  1  0.708500  0.086300  0.123200  1.0
  H  H140  1  0.913700  0.622200  0.123200  1.0
  H  H141  1  0.377800  0.291500  0.123200  1.0
  H  H142  1  0.291500  0.913700  0.123200  1.0
  H  H143  1  0.086300  0.377800  0.123200  1.0
  H  H144  1  0.622200  0.708500  0.123200  1.0
  H  H145  1  0.653900  0.043900  0.844900  1.0
  H  H146  1  0.390000  0.346100  0.844900  1.0
  H  H147  1  0.956100  0.610000  0.844900  1.0
  H  H148  1  0.346100  0.956100  0.844900  1.0
  H  H149  1  0.610000  0.653900  0.844900  1.0
  H  H150  1  0.043900  0.390000  0.844900  1.0
  H  H151  1  0.610000  0.956100  0.155100  1.0
  H  H152  1  0.043900  0.653900  0.155100  1.0
  H  H153  1  0.346100  0.390000  0.155100  1.0
  H  H154  1  0.390000  0.043900  0.155100  1.0
  H  H155  1  0.956100  0.346100  0.155100  1.0
  H  H156  1  0.653900  0.610000  0.155100  1.0
  H  H157  1  0.809800  0.061300  0.814400  1.0
  H  H158  1  0.251500  0.190200  0.814400  1.0
  H  H159  1  0.938700  0.748500  0.814400  1.0
  H  H160  1  0.190200  0.938700  0.814400  1.0
  H  H161  1  0.748500  0.809800  0.814400  1.0
  H  H162  1  0.061300  0.251500  0.814400  1.0
  H  H163  1  0.748500  0.938700  0.185600  1.0
  H  H164  1  0.061300  0.809800  0.185600  1.0
  H  H165  1  0.190200  0.251500  0.185600  1.0
  H  H166  1  0.251500  0.061300  0.185600  1.0
  H  H167  1  0.938700  0.190200  0.185600  1.0
  H  H168  1  0.809800  0.748500  0.185600  1.0
  H  H169  1  0.799400  0.172100  0.877500  1.0
  H  H170  1  0.372700  0.200600  0.877500  1.0
  H  H171  1  0.827900  0.627300  0.877500  1.0
  H  H172  1  0.200600  0.827900  0.877500  1.0
  H  H173  1  0.627300  0.799400  0.877500  1.0
  H  H174  1  0.172100  0.372700  0.877500  1.0
  H  H175  1  0.627300  0.827900  0.122500  1.0
  H  H176  1  0.172100  0.799400  0.122500  1.0
  H  H177  1  0.200600  0.372700  0.122500  1.0
  H  H178  1  0.372700  0.172100  0.122500  1.0
  H  H179  1  0.827900  0.200600  0.122500  1.0
  H  H180  1  0.799400  0.627300  0.122500  1.0
  H  H181  1  0.843700  0.041900  0.892000  1.0
  H  H182  1  0.198200  0.156300  0.892000  1.0
  H  H183  1  0.958100  0.801800  0.892000  1.0
  H  H184  1  0.156300  0.958100  0.892000  1.0
  H  H185  1  0.801800  0.843700  0.892000  1.0
  H  H186  1  0.041900  0.198200  0.892000  1.0
  H  H187  1  0.801800  0.958100  0.108000  1.0
  H  H188  1  0.041900  0.843700  0.108000  1.0
  H  H189  1  0.156300  0.198200  0.108000  1.0
  H  H190  1  0.198200  0.041900  0.108000  1.0
  H  H191  1  0.958100  0.156300  0.108000  1.0
  H  H192  1  0.843700  0.801800  0.108000  1.0
  H  H193  1  0.832200  0.062700  0.967000  1.0
  H  H194  1  0.230500  0.167800  0.967000  1.0
  H  H195  1  0.937300  0.769500  0.967000  1.0
  H  H196  1  0.167800  0.937300  0.967000  1.0
  H  H197  1  0.769500  0.832200  0.967000  1.0
  H  H198  1  0.062700  0.230500  0.967000  1.0
  H  H199  1  0.769500  0.937300  0.033000  1.0
  H  H200  1  0.062700  0.832200  0.033000  1.0
  H  H201  1  0.167800  0.230500  0.033000  1.0
  H  H202  1  0.230500  0.062700  0.033000  1.0
  H  H203  1  0.937300  0.167800  0.033000  1.0
  H  H204  1  0.832200  0.769500  0.033000  1.0
  H  H205  1  0.902800  0.151500  0.946100  1.0
  H  H206  1  0.248700  0.097200  0.946100  1.0
  H  H207  1  0.848500  0.751300  0.946100  1.0
  H  H208  1  0.097200  0.848500  0.946100  1.0
  H  H209  1  0.751300  0.902800  0.946100  1.0
  H  H210  1  0.151500  0.248700  0.946100  1.0
  H  H211  1  0.751300  0.848500  0.053900  1.0
  H  H212  1  0.151500  0.902800  0.053900  1.0
  H  H213  1  0.097200  0.248700  0.053900  1.0
  H  H214  1  0.248700  0.151500  0.053900  1.0
  H  H215  1  0.848500  0.097200  0.053900  1.0
  H  H216  1  0.902800  0.751300  0.053900  1.0
  C  C217  1  0.815700  0.159900  0.632880  1.0
  C  C218  1  0.344200  0.184300  0.632880  1.0
  C  C219  1  0.840100  0.655800  0.632880  1.0
  C  C220  1  0.184300  0.840100  0.632880  1.0
  C  C221  1  0.655800  0.815700  0.632880  1.0
  C  C222  1  0.159900  0.344200  0.632880  1.0
  C  C223  1  0.655800  0.840100  0.367120  1.0
  C  C224  1  0.159900  0.815700  0.367120  1.0
  C  C225  1  0.184300  0.344200  0.367120  1.0
  C  C226  1  0.344200  0.159900  0.367120  1.0
  C  C227  1  0.840100  0.184300  0.367120  1.0
  C  C228  1  0.815700  0.655800  0.367120  1.0
  C  C229  1  0.747300  0.113100  0.667430  1.0
  C  C230  1  0.365800  0.252700  0.667430  1.0
  C  C231  1  0.886900  0.634200  0.667430  1.0
  C  C232  1  0.252700  0.886900  0.667430  1.0
  C  C233  1  0.634200  0.747300  0.667430  1.0
  C  C234  1  0.113100  0.365800  0.667430  1.0
  C  C235  1  0.634200  0.886900  0.332570  1.0
  C  C236  1  0.113100  0.747300  0.332570  1.0
  C  C237  1  0.252700  0.365800  0.332570  1.0
  C  C238  1  0.365800  0.113100  0.332570  1.0
  C  C239  1  0.886900  0.252700  0.332570  1.0
  C  C240  1  0.747300  0.634200  0.332570  1.0
  C  C241  1  0.733700  0.023900  0.676380  1.0
  C  C242  1  0.290200  0.266300  0.676380  1.0
  C  C243  1  0.976100  0.709800  0.676380  1.0
  C  C244  1  0.266300  0.976100  0.676380  1.0
  C  C245  1  0.709800  0.733700  0.676380  1.0
  C  C246  1  0.023900  0.290200  0.676380  1.0
  C  C247  1  0.709800  0.976100  0.323620  1.0
  C  C248  1  0.023900  0.733700  0.323620  1.0
  C  C249  1  0.266300  0.290200  0.323620  1.0
  C  C250  1  0.290200  0.023900  0.323620  1.0
  C  C251  1  0.976100  0.266300  0.323620  1.0
  C  C252  1  0.733700  0.709800  0.323620  1.0
  C  C253  1  0.714000  0.971100  0.635810  1.0
  C  C254  1  0.257100  0.286000  0.635810  1.0
  C  C255  1  0.028900  0.742900  0.635810  1.0
  C  C256  1  0.286000  0.028900  0.635810  1.0
  C  C257  1  0.742900  0.714000  0.635810  1.0
  C  C258  1  0.971100  0.257100  0.635810  1.0
  C  C259  1  0.742900  0.028900  0.364190  1.0
  C  C260  1  0.971100  0.714000  0.364190  1.0
  C  C261  1  0.286000  0.257100  0.364190  1.0
  C  C262  1  0.257100  0.971100  0.364190  1.0
  C  C263  1  0.028900  0.286000  0.364190  1.0
  C  C264  1  0.714000  0.742900  0.364190  1.0
  C  C265  1  0.781200  0.024300  0.600680  1.0
  C  C266  1  0.243100  0.218800  0.600680  1.0
  C  C267  1  0.975700  0.756900  0.600680  1.0
  C  C268  1  0.218800  0.975700  0.600680  1.0
  C  C269  1  0.756900  0.781200  0.600680  1.0
  C  C270  1  0.024300  0.243100  0.600680  1.0
  C  C271  1  0.756900  0.975700  0.399320  1.0
  C  C272  1  0.024300  0.781200  0.399320  1.0
  C  C273  1  0.218800  0.243100  0.399320  1.0
  C  C274  1  0.243100  0.024300  0.399320  1.0
  C  C275  1  0.975700  0.218800  0.399320  1.0
  C  C276  1  0.781200  0.756900  0.399320  1.0
  C  C277  1  0.762400  0.984200  0.555400  1.0
  C  C278  1  0.221800  0.237600  0.555400  1.0
  C  C279  1  0.015800  0.778200  0.555400  1.0
  C  C280  1  0.237600  0.015800  0.555400  1.0
  C  C281  1  0.778200  0.762400  0.555400  1.0
  C  C282  1  0.984200  0.221800  0.555400  1.0
  C  C283  1  0.778200  0.015800  0.444600  1.0
  C  C284  1  0.984200  0.762400  0.444600  1.0
  C  C285  1  0.237600  0.221800  0.444600  1.0
  C  C286  1  0.221800  0.984200  0.444600  1.0
  C  C287  1  0.015800  0.237600  0.444600  1.0
  C  C288  1  0.762400  0.778200  0.444600  1.0
  C  C289  1  0.683400  0.955700  0.870080  1.0
  C  C290  1  0.272300  0.316600  0.870080  1.0
  C  C291  1  0.044300  0.727700  0.870080  1.0
  C  C292  1  0.316600  0.044300  0.870080  1.0
  C  C293  1  0.727700  0.683400  0.870080  1.0
  C  C294  1  0.955700  0.272300  0.870080  1.0
  C  C295  1  0.727700  0.044300  0.129920  1.0
  C  C296  1  0.955700  0.683400  0.129920  1.0
  C  C297  1  0.316600  0.272300  0.129920  1.0
  C  C298  1  0.272300  0.955700  0.129920  1.0
  C  C299  1  0.044300  0.316600  0.129920  1.0
  C  C300  1  0.683400  0.727700  0.129920  1.0
  C  C301  1  0.687000  0.016700  0.834230  1.0
  C  C302  1  0.329700  0.313000  0.834230  1.0
  C  C303  1  0.983300  0.670300  0.834230  1.0
  C  C304  1  0.313000  0.983300  0.834230  1.0
  C  C305  1  0.670300  0.687000  0.834230  1.0
  C  C306  1  0.016700  0.329700  0.834230  1.0
  C  C307  1  0.670300  0.983300  0.165770  1.0
  C  C308  1  0.016700  0.687000  0.165770  1.0
  C  C309  1  0.313000  0.329700  0.165770  1.0
  C  C310  1  0.329700  0.016700  0.165770  1.0
  C  C311  1  0.983300  0.313000  0.165770  1.0
  C  C312  1  0.687000  0.670300  0.165770  1.0
  C  C313  1  0.777100  0.087800  0.826500  1.0
  C  C314  1  0.310700  0.222900  0.826500  1.0
  C  C315  1  0.912200  0.689300  0.826500  1.0
  C  C316  1  0.222900  0.912200  0.826500  1.0
  C  C317  1  0.689300  0.777100  0.826500  1.0
  C  C318  1  0.087800  0.310700  0.826500  1.0
  C  C319  1  0.689300  0.912200  0.173500  1.0
  C  C320  1  0.087800  0.777100  0.173500  1.0
  C  C321  1  0.222900  0.310700  0.173500  1.0
  C  C322  1  0.310700  0.087800  0.173500  1.0
  C  C323  1  0.912200  0.222900  0.173500  1.0
  C  C324  1  0.777100  0.689300  0.173500  1.0
  C  C325  1  0.823000  0.135500  0.867150  1.0
  C  C326  1  0.312500  0.177000  0.867150  1.0
  C  C327  1  0.864500  0.687500  0.867150  1.0
  C  C328  1  0.177000  0.864500  0.867150  1.0
  C  C329  1  0.687500  0.823000  0.867150  1.0
  C  C330  1  0.135500  0.312500  0.867150  1.0
  C  C331  1  0.687500  0.864500  0.132850  1.0
  C  C332  1  0.135500  0.823000  0.132850  1.0
  C  C333  1  0.177000  0.312500  0.132850  1.0
  C  C334  1  0.312500  0.135500  0.132850  1.0
  C  C335  1  0.864500  0.177000  0.132850  1.0
  C  C336  1  0.823000  0.687500  0.132850  1.0
  C  C337  1  0.811000  0.070600  0.900970  1.0
  C  C338  1  0.259600  0.189000  0.900970  1.0
  C  C339  1  0.929400  0.740400  0.900970  1.0
  C  C340  1  0.189000  0.929400  0.900970  1.0
  C  C341  1  0.740400  0.811000  0.900970  1.0
  C  C342  1  0.070600  0.259600  0.900970  1.0
  C  C343  1  0.740400  0.929400  0.099030  1.0
  C  C344  1  0.070600  0.811000  0.099030  1.0
  C  C345  1  0.189000  0.259600  0.099030  1.0
  C  C346  1  0.259600  0.070600  0.099030  1.0
  C  C347  1  0.929400  0.189000  0.099030  1.0
  C  C348  1  0.811000  0.740400  0.099030  1.0
  C  C349  1  0.841000  0.108700  0.946690  1.0
  C  C350  1  0.267700  0.159000  0.946690  1.0
  C  C351  1  0.891300  0.732300  0.946690  1.0
  C  C352  1  0.159000  0.891300  0.946690  1.0
  C  C353  1  0.732300  0.841000  0.946690  1.0
  C  C354  1  0.108700  0.267700  0.946690  1.0
  C  C355  1  0.732300  0.891300  0.053310  1.0
  C  C356  1  0.108700  0.841000  0.053310  1.0
  C  C357  1  0.159000  0.267700  0.053310  1.0
  C  C358  1  0.267700  0.108700  0.053310  1.0
  C  C359  1  0.891300  0.159000  0.053310  1.0
  C  C360  1  0.841000  0.732300  0.053310  1.0
  O  O361  1  0.602840  0.088350  0.750650  1.0
  O  O362  1  0.485510  0.397160  0.750650  1.0
  O  O363  1  0.911650  0.514490  0.750650  1.0
  O  O364  1  0.397160  0.911650  0.750650  1.0
  O  O365  1  0.514490  0.602840  0.750650  1.0
  O  O366  1  0.088350  0.485510  0.750650  1.0
  O  O367  1  0.514490  0.911650  0.249350  1.0
  O  O368  1  0.088350  0.602840  0.249350  1.0
  O  O369  1  0.397160  0.485510  0.249350  1.0
  O  O370  1  0.485510  0.088350  0.249350  1.0
  O  O371  1  0.911650  0.397160  0.249350  1.0
  O  O372  1  0.602840  0.514490  0.249350  1.0
  O  O373  1  0.764930  0.153400  0.708350  1.0
  O  O374  1  0.388470  0.235070  0.708350  1.0
  O  O375  1  0.846600  0.611530  0.708350  1.0
  O  O376  1  0.235070  0.846600  0.708350  1.0
  O  O377  1  0.611530  0.764930  0.708350  1.0
  O  O378  1  0.153400  0.388470  0.708350  1.0
  O  O379  1  0.611530  0.846600  0.291650  1.0
  O  O380  1  0.153400  0.764930  0.291650  1.0
  O  O381  1  0.235070  0.388470  0.291650  1.0
  O  O382  1  0.388470  0.153400  0.291650  1.0
  O  O383  1  0.846600  0.235070  0.291650  1.0
  O  O384  1  0.764930  0.611530  0.291650  1.0
  O  O385  1  0.672260  0.987070  0.708230  1.0
  O  O386  1  0.314810  0.327740  0.708230  1.0
  O  O387  1  0.012930  0.685190  0.708230  1.0
  O  O388  1  0.327740  0.012930  0.708230  1.0
  O  O389  1  0.685190  0.672260  0.708230  1.0
  O  O390  1  0.987070  0.314810  0.708230  1.0
  O  O391  1  0.685190  0.012930  0.291770  1.0
  O  O392  1  0.987070  0.672260  0.291770  1.0
  O  O393  1  0.327740  0.314810  0.291770  1.0
  O  O394  1  0.314810  0.987070  0.291770  1.0
  O  O395  1  0.012930  0.327740  0.291770  1.0
  O  O396  1  0.672260  0.685190  0.291770  1.0
  O  O397  1  0.651840  0.979260  0.794580  1.0
  O  O398  1  0.327420  0.348160  0.794580  1.0
  O  O399  1  0.020740  0.672580  0.794580  1.0
  O  O400  1  0.348160  0.020740  0.794580  1.0
  O  O401  1  0.672580  0.651840  0.794580  1.0
  O  O402  1  0.979260  0.327420  0.794580  1.0
  O  O403  1  0.672580  0.020740  0.205420  1.0
  O  O404  1  0.979260  0.651840  0.205420  1.0
  O  O405  1  0.348160  0.327420  0.205420  1.0
  O  O406  1  0.327420  0.979260  0.205420  1.0
  O  O407  1  0.020740  0.348160  0.205420  1.0
  O  O408  1  0.651840  0.672580  0.205420  1.0
  O  O409  1  0.771350  0.139240  0.793490  1.0
  O  O410  1  0.367890  0.228650  0.793490  1.0
  O  O411  1  0.860760  0.632110  0.793490  1.0
  O  O412  1  0.228650  0.860760  0.793490  1.0
  O  O413  1  0.632110  0.771350  0.793490  1.0
  O  O414  1  0.139240  0.367890  0.793490  1.0
  O  O415  1  0.632110  0.860760  0.206510  1.0
  O  O416  1  0.139240  0.771350  0.206510  1.0
  O  O417  1  0.228650  0.367890  0.206510  1.0
  O  O418  1  0.367890  0.139240  0.206510  1.0
  O  O419  1  0.860760  0.228650  0.206510  1.0
  O  O420  1  0.771350  0.632110  0.206510  1.0
  O  O421  1  0.830000  0.942200  0.752800  1.0
  O  O422  1  0.112200  0.170000  0.752800  1.0
  O  O423  1  0.057800  0.887800  0.752800  1.0
  O  O424  1  0.170000  0.057800  0.752800  1.0
  O  O425  1  0.887800  0.830000  0.752800  1.0
  O  O426  1  0.942200  0.112200  0.752800  1.0
  O  O427  1  0.887800  0.057800  0.247200  1.0
  O  O428  1  0.942200  0.830000  0.247200  1.0
  O  O429  1  0.170000  0.112200  0.247200  1.0
  O  O430  1  0.112200  0.942200  0.247200  1.0
  O  O431  1  0.057800  0.170000  0.247200  1.0
  O  O432  1  0.830000  0.887800  0.247200  1.0
  O  O433  1  0.687500  0.971700  0.538130  1.0
  O  O434  1  0.284200  0.312500  0.538130  1.0
  O  O435  1  0.028300  0.715800  0.538130  1.0
  O  O436  1  0.312500  0.028300  0.538130  1.0
  O  O437  1  0.715800  0.687500  0.538130  1.0
  O  O438  1  0.971700  0.284200  0.538130  1.0
  O  O439  1  0.715800  0.028300  0.461870  1.0
  O  O440  1  0.971700  0.687500  0.461870  1.0
  O  O441  1  0.312500  0.284200  0.461870  1.0
  O  O442  1  0.284200  0.971700  0.461870  1.0
  O  O443  1  0.028300  0.312500  0.461870  1.0
  O  O444  1  0.687500  0.715800  0.461870  1.0
  O  O445  1  0.788140  0.105240  0.596070  1.0
  O  O446  1  0.317100  0.211860  0.596070  1.0
  O  O447  1  0.894760  0.682900  0.596070  1.0
  O  O448  1  0.211860  0.894760  0.596070  1.0
  O  O449  1  0.682900  0.788140  0.596070  1.0
  O  O450  1  0.105240  0.317100  0.596070  1.0
  O  O451  1  0.682900  0.894760  0.403930  1.0
  O  O452  1  0.105240  0.788140  0.403930  1.0
  O  O453  1  0.211860  0.317100  0.403930  1.0
  O  O454  1  0.317100  0.105240  0.403930  1.0
  O  O455  1  0.894760  0.211860  0.403930  1.0
  O  O456  1  0.788140  0.682900  0.403930  1.0
  O  O457  1  0.896280  0.176010  0.647570  1.0
  O  O458  1  0.279730  0.103720  0.647570  1.0
  O  O459  1  0.823990  0.720270  0.647570  1.0
  O  O460  1  0.103720  0.823990  0.647570  1.0
  O  O461  1  0.720270  0.896280  0.647570  1.0
  O  O462  1  0.176010  0.279730  0.647570  1.0
  O  O463  1  0.720270  0.823990  0.352430  1.0
  O  O464  1  0.176010  0.896280  0.352430  1.0
  O  O465  1  0.103720  0.279730  0.352430  1.0
  O  O466  1  0.279730  0.176010  0.352430  1.0
  O  O467  1  0.823990  0.103720  0.352430  1.0
  O  O468  1  0.896280  0.720270  0.352430  1.0
  O  O469  1  0.795300  0.147000  0.960480  1.0
  O  O470  1  0.351700  0.204700  0.960480  1.0
  O  O471  1  0.853000  0.648300  0.960480  1.0
  O  O472  1  0.204700  0.853000  0.960480  1.0
  O  O473  1  0.648300  0.795300  0.960480  1.0
  O  O474  1  0.147000  0.351700  0.960480  1.0
  O  O475  1  0.648300  0.853000  0.039520  1.0
  O  O476  1  0.147000  0.795300  0.039520  1.0
  O  O477  1  0.204700  0.351700  0.039520  1.0
  O  O478  1  0.351700  0.147000  0.039520  1.0
  O  O479  1  0.853000  0.204700  0.039520  1.0
  O  O480  1  0.795300  0.648300  0.039520  1.0
  O  O481  1  0.721950  0.005800  0.906480  1.0
  O  O482  1  0.283850  0.278050  0.906480  1.0
  O  O483  1  0.994200  0.716150  0.906480  1.0
  O  O484  1  0.278050  0.994200  0.906480  1.0
  O  O485  1  0.716150  0.721950  0.906480  1.0
  O  O486  1  0.005800  0.283850  0.906480  1.0
  O  O487  1  0.716150  0.994200  0.093520  1.0
  O  O488  1  0.005800  0.721950  0.093520  1.0
  O  O489  1  0.278050  0.283850  0.093520  1.0
  O  O490  1  0.283850  0.005800  0.093520  1.0
  O  O491  1  0.994200  0.278050  0.093520  1.0
  O  O492  1  0.721950  0.716150  0.093520  1.0
  O  O493  1  0.911340  0.187310  0.856310  1.0
  O  O494  1  0.275970  0.088660  0.856310  1.0
  O  O495  1  0.812690  0.724030  0.856310  1.0
  O  O496  1  0.088660  0.812690  0.856310  1.0
  O  O497  1  0.724030  0.911340  0.856310  1.0
  O  O498  1  0.187310  0.275970  0.856310  1.0
  O  O499  1  0.724030  0.812690  0.143690  1.0
  O  O500  1  0.187310  0.911340  0.143690  1.0
  O  O501  1  0.088660  0.275970  0.143690  1.0
  O  O502  1  0.275970  0.187310  0.143690  1.0
  O  O503  1  0.812690  0.088660  0.143690  1.0
  O  O504  1  0.911340  0.724030  0.143690  1.0
