# generated using pymatgen
data_NaVH16(CO)12
_symmetry_space_group_name_H-M   'P 1'
_cell_length_a   14.71860000
_cell_length_b   22.00214451
_cell_length_c   22.00214451
_cell_angle_alpha   118.80848785
_cell_angle_beta   90.00000000
_cell_angle_gamma   90.00000000
_symmetry_Int_Tables_number   1
_chemical_formula_structural   NaVH16(CO)12
_chemical_formula_sum   'Na8 V8 H128 C96 O96'
_cell_volume   6243.34414938
_cell_formula_units_Z   8
loop_
 _symmetry_equiv_pos_site_id
 _symmetry_equiv_pos_as_xyz
  1  'x, y, z'
loop_
 _atom_site_type_symbol
 _atom_site_label
 _atom_site_symmetry_multiplicity
 _atom_site_fract_x
 _atom_site_fract_y
 _atom_site_fract_z
 _atom_site_occupancy
  C  C1  1  0.748600  0.331210  0.272710  1.0
  C  C2  1  0.748600  0.668790  0.727290  1.0
  C  C3  1  0.251400  0.727290  0.668790  1.0
  C  C4  1  0.251400  0.272710  0.331210  1.0
  C  C5  1  0.675000  0.373800  0.259000  1.0
  C  C6  1  0.675000  0.626200  0.741000  1.0
  C  C7  1  0.325000  0.741000  0.626200  1.0
  C  C8  1  0.325000  0.259000  0.373800  1.0
  C  C9  1  0.653000  0.342780  0.182360  1.0
  C  C10  1  0.653000  0.657220  0.817640  1.0
  C  C11  1  0.347000  0.817640  0.657220  1.0
  C  C12  1  0.347000  0.182360  0.342780  1.0
  C  C13  1  0.738000  0.334000  0.140760  1.0
  C  C14  1  0.738000  0.666000  0.859240  1.0
  C  C15  1  0.262000  0.859240  0.666000  1.0
  C  C16  1  0.262000  0.140760  0.334000  1.0
  C  C17  1  0.802300  0.287960  0.155660  1.0
  C  C18  1  0.802300  0.712040  0.844340  1.0
  C  C19  1  0.197700  0.844340  0.712040  1.0
  C  C20  1  0.197700  0.155660  0.287960  1.0
  C  C21  1  0.893700  0.275270  0.118530  1.0
  C  C22  1  0.893700  0.724730  0.881470  1.0
  C  C23  1  0.106300  0.881470  0.724730  1.0
  C  C24  1  0.106300  0.118530  0.275270  1.0
  C  C25  1  0.748000  0.329840  0.029580  1.0
  C  C26  1  0.748000  0.670160  0.970420  1.0
  C  C27  1  0.252000  0.970420  0.670160  1.0
  C  C28  1  0.252000  0.029580  0.329840  1.0
  C  C29  1  0.677300  0.332640  0.980180  1.0
  C  C30  1  0.677300  0.667360  0.019820  1.0
  C  C31  1  0.322700  0.019820  0.667360  1.0
  C  C32  1  0.322700  0.980180  0.332640  1.0
  C  C33  1  0.653400  0.262720  0.920740  1.0
  C  C34  1  0.653400  0.737280  0.079260  1.0
  C  C35  1  0.346600  0.079260  0.737280  1.0
  C  C36  1  0.346600  0.920740  0.262720  1.0
  C  C37  1  0.738800  0.223130  0.880390  1.0
  C  C38  1  0.738800  0.776870  0.119610  1.0
  C  C39  1  0.261200  0.119610  0.776870  1.0
  C  C40  1  0.261200  0.880390  0.223130  1.0
  C  C41  1  0.801300  0.219920  0.932620  1.0
  C  C42  1  0.801300  0.780080  0.067380  1.0
  C  C43  1  0.198700  0.067380  0.780080  1.0
  C  C44  1  0.198700  0.932620  0.219920  1.0
  C  C45  1  0.892400  0.184580  0.904760  1.0
  C  C46  1  0.892400  0.815420  0.095240  1.0
  C  C47  1  0.107600  0.095240  0.815420  1.0
  C  C48  1  0.107600  0.904760  0.184580  1.0
  C  C49  1  0.744600  0.867450  0.239310  1.0
  C  C50  1  0.744600  0.132550  0.760690  1.0
  C  C51  1  0.255400  0.760690  0.132550  1.0
  C  C52  1  0.255400  0.239310  0.867450  1.0
  C  C53  1  0.674900  0.906690  0.293690  1.0
  C  C54  1  0.674900  0.093310  0.706310  1.0
  C  C55  1  0.325100  0.706310  0.093310  1.0
  C  C56  1  0.325100  0.293690  0.906690  1.0
  C  C57  1  0.653700  0.976640  0.300200  1.0
  C  C58  1  0.653700  0.023360  0.699800  1.0
  C  C59  1  0.346300  0.699800  0.023360  1.0
  C  C60  1  0.346300  0.300200  0.976640  1.0
  C  C61  1  0.740100  0.019240  0.312140  1.0
  C  C62  1  0.740100  0.980760  0.687860  1.0
  C  C63  1  0.259900  0.687860  0.980760  1.0
  C  C64  1  0.259900  0.312140  0.019240  1.0
  C  C65  1  0.802400  0.976730  0.254670  1.0
  C  C66  1  0.802400  0.023270  0.745330  1.0
  C  C67  1  0.197600  0.745330  0.023270  1.0
  C  C68  1  0.197600  0.254670  0.976730  1.0
  C  C69  1  0.894100  0.008480  0.255720  1.0
  C  C70  1  0.894100  0.991520  0.744280  1.0
  C  C71  1  0.105900  0.744280  0.991520  1.0
  C  C72  1  0.105900  0.255720  0.008480  1.0
  C  C73  1  0.746300  0.145960  0.363160  1.0
  C  C74  1  0.746300  0.854040  0.636840  1.0
  C  C75  1  0.253700  0.636840  0.854040  1.0
  C  C76  1  0.253700  0.363160  0.145960  1.0
  C  C77  1  0.674700  0.201400  0.388960  1.0
  C  C78  1  0.674700  0.798600  0.611040  1.0
  C  C79  1  0.325300  0.611040  0.798600  1.0
  C  C80  1  0.325300  0.388960  0.201400  1.0
  C  C81  1  0.653100  0.227210  0.337790  1.0
  C  C82  1  0.653100  0.772790  0.662210  1.0
  C  C83  1  0.346900  0.662210  0.772790  1.0
  C  C84  1  0.346900  0.337790  0.227210  1.0
  C  C85  1  0.736600  0.249820  0.317440  1.0
  C  C86  1  0.736600  0.750180  0.682560  1.0
  C  C87  1  0.263400  0.682560  0.750180  1.0
  C  C88  1  0.263400  0.317440  0.249820  1.0
  C  C89  1  0.803300  0.188140  0.286180  1.0
  C  C90  1  0.803300  0.811860  0.713820  1.0
  C  C91  1  0.196700  0.713820  0.811860  1.0
  C  C92  1  0.196700  0.286180  0.188140  1.0
  C  C93  1  0.894300  0.203260  0.261340  1.0
  C  C94  1  0.894300  0.796740  0.738660  1.0
  C  C95  1  0.105700  0.738660  0.796740  1.0
  C  C96  1  0.105700  0.261340  0.203260  1.0
  H  H97  1  0.962000  0.351700  0.170300  1.0
  H  H98  1  0.962000  0.648300  0.829700  1.0
  H  H99  1  0.038000  0.829700  0.648300  1.0
  H  H100  1  0.038000  0.170300  0.351700  1.0
  H  H101  1  0.956800  0.257600  0.905000  1.0
  H  H102  1  0.956800  0.742400  0.095000  1.0
  H  H103  1  0.043200  0.095000  0.742400  1.0
  H  H104  1  0.043200  0.905000  0.257600  1.0
  H  H105  1  0.986200  0.049500  0.317300  1.0
  H  H106  1  0.986200  0.950500  0.682700  1.0
  H  H107  1  0.013800  0.682700  0.950500  1.0
  H  H108  1  0.013800  0.317300  0.049500  1.0
  H  H109  1  0.995400  0.255900  0.309700  1.0
  H  H110  1  0.995400  0.744100  0.690300  1.0
  H  H111  1  0.004600  0.690300  0.744100  1.0
  H  H112  1  0.004600  0.309700  0.255900  1.0
  H  H113  1  0.769600  0.358800  0.321800  1.0
  H  H114  1  0.769600  0.641200  0.678200  1.0
  H  H115  1  0.230400  0.678200  0.641200  1.0
  H  H116  1  0.230400  0.321800  0.358800  1.0
  H  H117  1  0.700900  0.421000  0.274400  1.0
  H  H118  1  0.700900  0.579000  0.725600  1.0
  H  H119  1  0.299100  0.725600  0.579000  1.0
  H  H120  1  0.299100  0.274400  0.421000  1.0
  H  H121  1  0.624800  0.296200  0.166200  1.0
  H  H122  1  0.624800  0.703800  0.833800  1.0
  H  H123  1  0.375200  0.833800  0.703800  1.0
  H  H124  1  0.375200  0.166200  0.296200  1.0
  H  H125  1  0.766700  0.380100  0.154700  1.0
  H  H126  1  0.766700  0.619900  0.845300  1.0
  H  H127  1  0.233300  0.845300  0.619900  1.0
  H  H128  1  0.233300  0.154700  0.380100  1.0
  H  H129  1  0.772200  0.242600  0.142600  1.0
  H  H130  1  0.772200  0.757400  0.857400  1.0
  H  H131  1  0.227800  0.857400  0.757400  1.0
  H  H132  1  0.227800  0.142600  0.242600  1.0
  H  H133  1  0.933000  0.248300  0.133300  1.0
  H  H134  1  0.933000  0.751700  0.866700  1.0
  H  H135  1  0.067000  0.866700  0.751700  1.0
  H  H136  1  0.067000  0.133300  0.248300  1.0
  H  H137  1  0.883600  0.246900  0.067900  1.0
  H  H138  1  0.883600  0.753100  0.932100  1.0
  H  H139  1  0.116400  0.932100  0.753100  1.0
  H  H140  1  0.116400  0.067900  0.246900  1.0
  H  H141  1  0.769100  0.377900  0.062300  1.0
  H  H142  1  0.769100  0.622100  0.937700  1.0
  H  H143  1  0.230900  0.937700  0.622100  1.0
  H  H144  1  0.230900  0.062300  0.377900  1.0
  H  H145  1  0.703100  0.361200  0.960200  1.0
  H  H146  1  0.703100  0.638800  0.039800  1.0
  H  H147  1  0.296900  0.039800  0.638800  1.0
  H  H148  1  0.296900  0.960200  0.361200  1.0
  H  H149  1  0.624300  0.235000  0.940400  1.0
  H  H150  1  0.624300  0.765000  0.059600  1.0
  H  H151  1  0.375700  0.059600  0.765000  1.0
  H  H152  1  0.375700  0.940400  0.235000  1.0
  H  H153  1  0.768600  0.248400  0.858200  1.0
  H  H154  1  0.768600  0.751600  0.141800  1.0
  H  H155  1  0.231400  0.141800  0.751600  1.0
  H  H156  1  0.231400  0.858200  0.248400  1.0
  H  H157  1  0.769300  0.195000  0.954200  1.0
  H  H158  1  0.769300  0.805000  0.045800  1.0
  H  H159  1  0.230700  0.045800  0.805000  1.0
  H  H160  1  0.230700  0.954200  0.195000  1.0
  H  H161  1  0.928100  0.185200  0.943200  1.0
  H  H162  1  0.928100  0.814800  0.056800  1.0
  H  H163  1  0.071900  0.056800  0.814800  1.0
  H  H164  1  0.071900  0.943200  0.185200  1.0
  H  H165  1  0.881900  0.135600  0.869800  1.0
  H  H166  1  0.881900  0.864400  0.130200  1.0
  H  H167  1  0.118100  0.130200  0.864400  1.0
  H  H168  1  0.118100  0.869800  0.135600  1.0
  H  H169  1  0.763900  0.826100  0.243500  1.0
  H  H170  1  0.763900  0.173900  0.756500  1.0
  H  H171  1  0.236100  0.756500  0.173900  1.0
  H  H172  1  0.236100  0.243500  0.826100  1.0
  H  H173  1  0.699200  0.914300  0.339300  1.0
  H  H174  1  0.699200  0.085700  0.660700  1.0
  H  H175  1  0.300800  0.660700  0.085700  1.0
  H  H176  1  0.300800  0.339300  0.914300  1.0
  H  H177  1  0.626700  0.968600  0.255200  1.0
  H  H178  1  0.626700  0.031400  0.744800  1.0
  H  H179  1  0.373300  0.744800  0.031400  1.0
  H  H180  1  0.373300  0.255200  0.968600  1.0
  H  H181  1  0.768100  0.031400  0.358000  1.0
  H  H182  1  0.768100  0.968600  0.642000  1.0
  H  H183  1  0.231900  0.642000  0.968600  1.0
  H  H184  1  0.231900  0.358000  0.031400  1.0
  H  H185  1  0.771400  0.966200  0.210200  1.0
  H  H186  1  0.771400  0.033800  0.789800  1.0
  H  H187  1  0.228600  0.789800  0.033800  1.0
  H  H188  1  0.228600  0.210200  0.966200  1.0
  H  H189  1  0.929300  0.975800  0.214400  1.0
  H  H190  1  0.929300  0.024200  0.785600  1.0
  H  H191  1  0.070700  0.785600  0.024200  1.0
  H  H192  1  0.070700  0.214400  0.975800  1.0
  H  H193  1  0.885000  0.051500  0.252700  1.0
  H  H194  1  0.885000  0.948500  0.747300  1.0
  H  H195  1  0.115000  0.747300  0.948500  1.0
  H  H196  1  0.115000  0.252700  0.051500  1.0
  H  H197  1  0.766100  0.138500  0.402500  1.0
  H  H198  1  0.766100  0.861500  0.597500  1.0
  H  H199  1  0.233900  0.597500  0.861500  1.0
  H  H200  1  0.233900  0.402500  0.138500  1.0
  H  H201  1  0.698400  0.241700  0.432100  1.0
  H  H202  1  0.698400  0.758300  0.567900  1.0
  H  H203  1  0.301600  0.567900  0.758300  1.0
  H  H204  1  0.301600  0.432100  0.241700  1.0
  H  H205  1  0.626800  0.187600  0.295200  1.0
  H  H206  1  0.626800  0.812400  0.704800  1.0
  H  H207  1  0.373200  0.704800  0.812400  1.0
  H  H208  1  0.373200  0.295200  0.187600  1.0
  H  H209  1  0.764400  0.290000  0.358600  1.0
  H  H210  1  0.764400  0.710000  0.641400  1.0
  H  H211  1  0.235600  0.641400  0.710000  1.0
  H  H212  1  0.235600  0.358600  0.290000  1.0
  H  H213  1  0.773200  0.147900  0.246300  1.0
  H  H214  1  0.773200  0.852100  0.753700  1.0
  H  H215  1  0.226800  0.753700  0.852100  1.0
  H  H216  1  0.226800  0.246300  0.147900  1.0
  H  H217  1  0.933000  0.161300  0.241900  1.0
  H  H218  1  0.933000  0.838700  0.758100  1.0
  H  H219  1  0.067000  0.758100  0.838700  1.0
  H  H220  1  0.067000  0.241900  0.161300  1.0
  H  H221  1  0.882900  0.215700  0.224300  1.0
  H  H222  1  0.882900  0.784300  0.775700  1.0
  H  H223  1  0.117100  0.775700  0.784300  1.0
  H  H224  1  0.117100  0.224300  0.215700  1.0
  Na  Na225  1  0.500000  0.289040  0.289040  1.0
  Na  Na226  1  0.500000  0.710960  0.710960  1.0
  Na  Na227  1  0.500000  0.180660  0.819340  1.0
  Na  Na228  1  0.500000  0.819340  0.180660  1.0
  Na  Na229  1  0.498360  0.333110  0.082090  1.0
  Na  Na230  1  0.498360  0.666890  0.917910  1.0
  Na  Na231  1  0.501640  0.917910  0.666890  1.0
  Na  Na232  1  0.501640  0.082090  0.333110  1.0
  O  O233  1  0.500000  0.185770  0.185770  1.0
  O  O234  1  0.500000  0.814230  0.814230  1.0
  O  O235  1  0.500000  0.118930  0.881070  1.0
  O  O236  1  0.500000  0.881070  0.118930  1.0
  O  O237  1  0.502400  0.503010  0.306310  1.0
  O  O238  1  0.502400  0.496990  0.693690  1.0
  O  O239  1  0.497600  0.693690  0.496990  1.0
  O  O240  1  0.497600  0.306310  0.503010  1.0
  O  O241  1  0.505800  0.413610  0.929550  1.0
  O  O242  1  0.505800  0.586390  0.070450  1.0
  O  O243  1  0.494200  0.070450  0.586390  1.0
  O  O244  1  0.494200  0.929550  0.413610  1.0
  O  O245  1  0.493300  0.214190  0.049130  1.0
  O  O246  1  0.493300  0.785810  0.950870  1.0
  O  O247  1  0.506700  0.950870  0.785810  1.0
  O  O248  1  0.506700  0.049130  0.214190  1.0
  O  O249  1  0.593350  0.382810  0.292090  1.0
  O  O250  1  0.593350  0.617190  0.707910  1.0
  O  O251  1  0.406650  0.707910  0.617190  1.0
  O  O252  1  0.406650  0.292090  0.382810  1.0
  O  O253  1  0.589310  0.386210  0.177670  1.0
  O  O254  1  0.589310  0.613790  0.822330  1.0
  O  O255  1  0.410690  0.822330  0.613790  1.0
  O  O256  1  0.410690  0.177670  0.386210  1.0
  O  O257  1  0.585890  0.277740  0.368240  1.0
  O  O258  1  0.585890  0.722260  0.631760  1.0
  O  O259  1  0.414110  0.631760  0.722260  1.0
  O  O260  1  0.414110  0.368240  0.277740  1.0
  O  O261  1  0.587160  0.183290  0.405370  1.0
  O  O262  1  0.587160  0.816710  0.594630  1.0
  O  O263  1  0.412840  0.594630  0.816710  1.0
  O  O264  1  0.412840  0.405370  0.183290  1.0
  O  O265  1  0.594240  0.361930  0.010850  1.0
  O  O266  1  0.594240  0.638070  0.989150  1.0
  O  O267  1  0.405760  0.989150  0.638070  1.0
  O  O268  1  0.405760  0.010850  0.361930  1.0
  O  O269  1  0.587370  0.273710  0.880090  1.0
  O  O270  1  0.587370  0.726290  0.119910  1.0
  O  O271  1  0.412630  0.119910  0.726290  1.0
  O  O272  1  0.412630  0.880090  0.273710  1.0
  O  O273  1  0.586250  0.007230  0.351750  1.0
  O  O274  1  0.586250  0.992770  0.648250  1.0
  O  O275  1  0.413750  0.648250  0.992770  1.0
  O  O276  1  0.413750  0.351750  0.007230  1.0
  O  O277  1  0.590230  0.873330  0.282750  1.0
  O  O278  1  0.590230  0.126670  0.717250  1.0
  O  O279  1  0.409770  0.717250  0.126670  1.0
  O  O280  1  0.409770  0.282750  0.873330  1.0
  O  O281  1  0.712780  0.269820  0.263880  1.0
  O  O282  1  0.712780  0.730180  0.736120  1.0
  O  O283  1  0.287220  0.736120  0.730180  1.0
  O  O284  1  0.287220  0.263880  0.269820  1.0
  O  O285  1  0.824040  0.322020  0.227800  1.0
  O  O286  1  0.824040  0.677980  0.772200  1.0
  O  O287  1  0.175960  0.772200  0.677980  1.0
  O  O288  1  0.175960  0.227800  0.322020  1.0
  O  O289  1  0.937770  0.334010  0.130810  1.0
  O  O290  1  0.937770  0.665990  0.869190  1.0
  O  O291  1  0.062230  0.869190  0.665990  1.0
  O  O292  1  0.062230  0.130810  0.334010  1.0
  O  O293  1  0.712330  0.299980  0.067020  1.0
  O  O294  1  0.712330  0.700020  0.932980  1.0
  O  O295  1  0.287670  0.932980  0.700020  1.0
  O  O296  1  0.287670  0.067020  0.299980  1.0
  O  O297  1  0.824960  0.288830  0.987050  1.0
  O  O298  1  0.824960  0.711170  0.012950  1.0
  O  O299  1  0.175040  0.012950  0.711170  1.0
  O  O300  1  0.175040  0.987050  0.288830  1.0
  O  O301  1  0.942600  0.217420  0.874360  1.0
  O  O302  1  0.942600  0.782580  0.125640  1.0
  O  O303  1  0.057400  0.125640  0.782580  1.0
  O  O304  1  0.057400  0.874360  0.217420  1.0
  O  O305  1  0.710300  0.844540  0.171560  1.0
  O  O306  1  0.710300  0.155460  0.828440  1.0
  O  O307  1  0.289700  0.828440  0.155460  1.0
  O  O308  1  0.289700  0.171560  0.844540  1.0
  O  O309  1  0.821970  0.912430  0.252810  1.0
  O  O310  1  0.821970  0.087570  0.747190  1.0
  O  O311  1  0.178030  0.747190  0.087570  1.0
  O  O312  1  0.178030  0.252810  0.912430  1.0
  O  O313  1  0.942500  0.023430  0.313750  1.0
  O  O314  1  0.942500  0.976570  0.686250  1.0
  O  O315  1  0.057500  0.686250  0.976570  1.0
  O  O316  1  0.057500  0.313750  0.023430  1.0
  O  O317  1  0.711500  0.082300  0.309180  1.0
  O  O318  1  0.711500  0.917700  0.690820  1.0
  O  O319  1  0.288500  0.690820  0.917700  1.0
  O  O320  1  0.288500  0.309180  0.082300  1.0
  O  O321  1  0.822630  0.169800  0.340220  1.0
  O  O322  1  0.822630  0.830200  0.659780  1.0
  O  O323  1  0.177370  0.659780  0.830200  1.0
  O  O324  1  0.177370  0.340220  0.169800  1.0
  O  O325  1  0.939400  0.258580  0.317640  1.0
  O  O326  1  0.939400  0.741420  0.682360  1.0
  O  O327  1  0.060600  0.682360  0.741420  1.0
  O  O328  1  0.060600  0.317640  0.258580  1.0
  V  V329  1  0.502670  0.418525  0.253635  1.0
  V  V330  1  0.502670  0.581475  0.746365  1.0
  V  V331  1  0.497330  0.746365  0.581475  1.0
  V  V332  1  0.497330  0.253635  0.418525  1.0
  V  V333  1  0.503440  0.345471  0.939709  1.0
  V  V334  1  0.503440  0.654529  0.060291  1.0
  V  V335  1  0.496560  0.060291  0.654529  1.0
  V  V336  1  0.496560  0.939709  0.345471  1.0
