# generated using pymatgen
data_Sc12H36C184N
_symmetry_space_group_name_H-M   'P 1'
_cell_length_a   11.66280000
_cell_length_b   14.22040000
_cell_length_c   17.44100000
_cell_angle_alpha   90.00000000
_cell_angle_beta   106.27400000
_cell_angle_gamma   90.00000000
_symmetry_Int_Tables_number   1
_chemical_formula_structural   Sc12H36C184N
_chemical_formula_sum   'Sc24 H72 C368 N2'
_cell_volume   2776.68582844
_cell_formula_units_Z   2
loop_
 _symmetry_equiv_pos_site_id
 _symmetry_equiv_pos_as_xyz
  1  'x, y, z'
loop_
 _atom_site_type_symbol
 _atom_site_label
 _atom_site_symmetry_multiplicity
 _atom_site_fract_x
 _atom_site_fract_y
 _atom_site_fract_z
 _atom_site_occupancy
  Sc  Sc1  1  0.130300  0.000000  0.603440  1
  Sc  Sc2  1  0.869700  0.000000  0.396560  1
  Sc  Sc3  1  0.130300  0.500000  0.103440  1
  Sc  Sc4  1  0.869700  0.500000  0.896560  1
  Sc  Sc5  1  0.112200  0.111100  0.509100  1
  Sc  Sc6  1  0.887800  0.111100  0.490900  1
  Sc  Sc7  1  0.112200  0.611100  0.009100  1
  Sc  Sc8  1  0.887800  0.611100  0.990900  1
  Sc  Sc9  1  0.887800  0.888900  0.490900  1
  Sc  Sc10  1  0.112200  0.888900  0.509100  1
  Sc  Sc11  1  0.887800  0.388900  0.990900  1
  Sc  Sc12  1  0.112200  0.388900  0.009100  1
  Sc  Sc13  1  0.821700  0.000000  0.450460  1.0
  Sc  Sc14  1  0.178300  0.000000  0.549540  1.0
  Sc  Sc15  1  0.821700  0.500000  0.950460  1.0
  Sc  Sc16  1  0.178300  0.500000  0.049540  1.0
  Sc  Sc17  1  0.068420  0.123930  0.549060  1.0
  Sc  Sc18  1  0.931580  0.123930  0.450940  1.0
  Sc  Sc19  1  0.068420  0.623930  0.049060  1.0
  Sc  Sc20  1  0.931580  0.623930  0.950940  1.0
  Sc  Sc21  1  0.931580  0.876070  0.450940  1.0
  Sc  Sc22  1  0.068420  0.876070  0.549060  1.0
  Sc  Sc23  1  0.931580  0.376070  0.950940  1.0
  Sc  Sc24  1  0.068420  0.376070  0.049060  1.0
  H  H25  1  0.728200  0.474400  0.528700  1
  H  H26  1  0.271800  0.474400  0.471300  1
  H  H27  1  0.728200  0.974400  0.028700  1
  H  H28  1  0.271800  0.974400  0.971300  1
  H  H29  1  0.271800  0.525600  0.471300  1
  H  H30  1  0.728200  0.525600  0.528700  1
  H  H31  1  0.271800  0.025600  0.971300  1
  H  H32  1  0.728200  0.025600  0.028700  1
  H  H33  1  0.704000  0.461100  0.434400  1
  H  H34  1  0.296000  0.461100  0.565600  1
  H  H35  1  0.704000  0.961100  0.934400  1
  H  H36  1  0.296000  0.961100  0.065600  1
  H  H37  1  0.296000  0.538900  0.565600  1
  H  H38  1  0.704000  0.538900  0.434400  1
  H  H39  1  0.296000  0.038900  0.065600  1
  H  H40  1  0.704000  0.038900  0.934400  1
  H  H41  1  0.713600  0.564500  0.471800  1
  H  H42  1  0.286400  0.564500  0.528200  1
  H  H43  1  0.713600  0.064500  0.971800  1
  H  H44  1  0.286400  0.064500  0.028200  1
  H  H45  1  0.286400  0.435500  0.528200  1
  H  H46  1  0.713600  0.435500  0.471800  1
  H  H47  1  0.286400  0.935500  0.028200  1
  H  H48  1  0.713600  0.935500  0.971800  1
  H  H49  1  0.930400  0.500000  0.613300  1.0
  H  H50  1  0.069600  0.500000  0.386700  1.0
  H  H51  1  0.930400  0.000000  0.113300  1.0
  H  H52  1  0.069600  0.000000  0.886700  1.0
  H  H53  1  0.134300  0.500000  0.627400  1.0
  H  H54  1  0.865700  0.500000  0.372600  1.0
  H  H55  1  0.134300  0.000000  0.127400  1.0
  H  H56  1  0.865700  0.000000  0.872600  1.0
  H  H57  1  0.374500  0.322500  0.815400  1.0
  H  H58  1  0.625500  0.322500  0.184600  1.0
  H  H59  1  0.374500  0.822500  0.315400  1.0
  H  H60  1  0.625500  0.822500  0.684600  1.0
  H  H61  1  0.625500  0.677500  0.184600  1.0
  H  H62  1  0.374500  0.677500  0.815400  1.0
  H  H63  1  0.625500  0.177500  0.684600  1.0
  H  H64  1  0.374500  0.177500  0.315400  1.0
  H  H65  1  0.419400  0.397000  0.709500  1.0
  H  H66  1  0.580600  0.397000  0.290500  1.0
  H  H67  1  0.419400  0.897000  0.209500  1.0
  H  H68  1  0.580600  0.897000  0.790500  1.0
  H  H69  1  0.580600  0.603000  0.290500  1.0
  H  H70  1  0.419400  0.603000  0.709500  1.0
  H  H71  1  0.580600  0.103000  0.790500  1.0
  H  H72  1  0.419400  0.103000  0.209500  1.0
  H  H73  1  0.364800  0.173700  0.885600  1.0
  H  H74  1  0.635200  0.173700  0.114400  1.0
  H  H75  1  0.364800  0.673700  0.385600  1.0
  H  H76  1  0.635200  0.673700  0.614400  1.0
  H  H77  1  0.635200  0.826300  0.114400  1.0
  H  H78  1  0.364800  0.826300  0.885600  1.0
  H  H79  1  0.635200  0.326300  0.614400  1.0
  H  H80  1  0.364800  0.326300  0.385600  1.0
  H  H81  1  0.502400  0.180100  0.935700  1.0
  H  H82  1  0.497600  0.180100  0.064300  1.0
  H  H83  1  0.502400  0.680100  0.435700  1.0
  H  H84  1  0.497600  0.680100  0.564300  1.0
  H  H85  1  0.497600  0.819900  0.064300  1.0
  H  H86  1  0.502400  0.819900  0.935700  1.0
  H  H87  1  0.497600  0.319900  0.564300  1.0
  H  H88  1  0.502400  0.319900  0.435700  1.0
  H  H89  1  0.454200  0.089500  0.881900  1.0
  H  H90  1  0.545800  0.089500  0.118100  1.0
  H  H91  1  0.454200  0.589500  0.381900  1.0
  H  H92  1  0.545800  0.589500  0.618100  1.0
  H  H93  1  0.545800  0.910500  0.118100  1.0
  H  H94  1  0.454200  0.910500  0.881900  1.0
  H  H95  1  0.545800  0.410500  0.618100  1.0
  H  H96  1  0.454200  0.410500  0.381900  1.0
  C  C97  1  0.958800  0.500000  0.566650  1.0
  C  C98  1  0.041200  0.500000  0.433350  1.0
  C  C99  1  0.958800  0.000000  0.066650  1.0
  C  C100  1  0.041200  0.000000  0.933350  1.0
  C  C101  1  0.876100  0.500000  0.490600  1.0
  C  C102  1  0.123900  0.500000  0.509400  1.0
  C  C103  1  0.876100  0.000000  0.990600  1.0
  C  C104  1  0.123900  0.000000  0.009400  1.0
  C  C105  1  0.744000  0.500000  0.480500  1.0
  C  C106  1  0.256000  0.500000  0.519500  1.0
  C  C107  1  0.744000  0.000000  0.980500  1.0
  C  C108  1  0.256000  0.000000  0.019500  1.0
  C  C109  1  0.080000  0.500000  0.574660  1.0
  C  C110  1  0.920000  0.500000  0.425340  1.0
  C  C111  1  0.080000  0.000000  0.074660  1.0
  C  C112  1  0.920000  0.000000  0.925340  1.0
  C  C113  1  0.426900  0.293000  0.789160  1.0
  C  C114  1  0.573100  0.293000  0.210840  1.0
  C  C115  1  0.426900  0.793000  0.289160  1.0
  C  C116  1  0.573100  0.793000  0.710840  1.0
  C  C117  1  0.573100  0.707000  0.210840  1.0
  C  C118  1  0.426900  0.707000  0.789160  1.0
  C  C119  1  0.573100  0.207000  0.710840  1.0
  C  C120  1  0.426900  0.207000  0.289160  1.0
  C  C121  1  0.452400  0.336600  0.725500  1.0
  C  C122  1  0.547600  0.336600  0.274500  1.0
  C  C123  1  0.452400  0.836600  0.225500  1.0
  C  C124  1  0.547600  0.836600  0.774500  1.0
  C  C125  1  0.547600  0.663400  0.274500  1.0
  C  C126  1  0.452400  0.663400  0.725500  1.0
  C  C127  1  0.547600  0.163400  0.774500  1.0
  C  C128  1  0.452400  0.163400  0.225500  1.0
  C  C129  1  0.475500  0.204400  0.815910  1.0
  C  C130  1  0.524500  0.204400  0.184090  1.0
  C  C131  1  0.475500  0.704400  0.315910  1.0
  C  C132  1  0.524500  0.704400  0.684090  1.0
  C  C133  1  0.524500  0.795600  0.184090  1.0
  C  C134  1  0.475500  0.795600  0.815910  1.0
  C  C135  1  0.524500  0.295600  0.684090  1.0
  C  C136  1  0.475500  0.295600  0.315910  1.0
  C  C137  1  0.446700  0.157900  0.885900  1.0
  C  C138  1  0.553300  0.157900  0.114100  1.0
  C  C139  1  0.446700  0.657900  0.385900  1.0
  C  C140  1  0.553300  0.657900  0.614100  1.0
  C  C141  1  0.553300  0.842100  0.114100  1.0
  C  C142  1  0.446700  0.842100  0.885900  1.0
  C  C143  1  0.553300  0.342100  0.614100  1.0
  C  C144  1  0.446700  0.342100  0.385900  1.0
  C  C145  1  0.256300  0.874100  0.678900  1.0
  C  C146  1  0.743700  0.874100  0.321100  1.0
  C  C147  1  0.256300  0.374100  0.178900  1.0
  C  C148  1  0.743700  0.374100  0.821100  1.0
  C  C149  1  0.743700  0.125900  0.321100  1.0
  C  C150  1  0.256300  0.125900  0.678900  1.0
  C  C151  1  0.743700  0.625900  0.821100  1.0
  C  C152  1  0.256300  0.625900  0.178900  1.0
  C  C153  1  0.152700  0.842000  0.698200  1.0
  C  C154  1  0.847300  0.842000  0.301800  1.0
  C  C155  1  0.152700  0.342000  0.198200  1.0
  C  C156  1  0.847300  0.342000  0.801800  1.0
  C  C157  1  0.847300  0.158000  0.301800  1.0
  C  C158  1  0.152700  0.158000  0.698200  1.0
  C  C159  1  0.847300  0.658000  0.801800  1.0
  C  C160  1  0.152700  0.658000  0.198200  1.0
  C  C161  1  0.096400  0.912500  0.733900  1.0
  C  C162  1  0.903600  0.912500  0.266100  1.0
  C  C163  1  0.096400  0.412500  0.233900  1.0
  C  C164  1  0.903600  0.412500  0.766100  1.0
  C  C165  1  0.903600  0.087500  0.266100  1.0
  C  C166  1  0.096400  0.087500  0.733900  1.0
  C  C167  1  0.903600  0.587500  0.766100  1.0
  C  C168  1  0.096400  0.587500  0.233900  1.0
  C  C169  1  0.175300  0.992000  0.739400  1.0
  C  C170  1  0.824700  0.992000  0.260600  1.0
  C  C171  1  0.175300  0.492000  0.239400  1.0
  C  C172  1  0.824700  0.492000  0.760600  1.0
  C  C173  1  0.824700  0.008000  0.260600  1.0
  C  C174  1  0.175300  0.008000  0.739400  1.0
  C  C175  1  0.824700  0.508000  0.760600  1.0
  C  C176  1  0.175300  0.508000  0.239400  1.0
  C  C177  1  0.273600  0.971400  0.707000  1.0
  C  C178  1  0.726400  0.971400  0.293000  1.0
  C  C179  1  0.273600  0.471400  0.207000  1.0
  C  C180  1  0.726400  0.471400  0.793000  1.0
  C  C181  1  0.726400  0.028600  0.293000  1.0
  C  C182  1  0.273600  0.028600  0.707000  1.0
  C  C183  1  0.726400  0.528600  0.793000  1.0
  C  C184  1  0.273600  0.528600  0.207000  1.0
  C  C185  1  0.320500  0.964000  0.664200  1.0
  C  C186  1  0.679500  0.964000  0.335800  1.0
  C  C187  1  0.320500  0.464000  0.164200  1.0
  C  C188  1  0.679500  0.464000  0.835800  1.0
  C  C189  1  0.679500  0.036000  0.335800  1.0
  C  C190  1  0.320500  0.036000  0.664200  1.0
  C  C191  1  0.679500  0.536000  0.835800  1.0
  C  C192  1  0.320500  0.536000  0.164200  1.0
  C  C193  1  0.364900  0.989900  0.600600  1.0
  C  C194  1  0.635100  0.989900  0.399400  1.0
  C  C195  1  0.364900  0.489900  0.100600  1.0
  C  C196  1  0.635100  0.489900  0.899400  1.0
  C  C197  1  0.635100  0.010100  0.399400  1.0
  C  C198  1  0.364900  0.010100  0.600600  1.0
  C  C199  1  0.635100  0.510100  0.899400  1.0
  C  C200  1  0.364900  0.510100  0.100600  1.0
  C  C201  1  0.349100  0.909800  0.572300  1.0
  C  C202  1  0.650900  0.909800  0.427700  1.0
  C  C203  1  0.349100  0.409800  0.072300  1.0
  C  C204  1  0.650900  0.409800  0.927700  1.0
  C  C205  1  0.650900  0.090200  0.427700  1.0
  C  C206  1  0.349100  0.090200  0.572300  1.0
  C  C207  1  0.650900  0.590200  0.927700  1.0
  C  C208  1  0.349100  0.590200  0.072300  1.0
  C  C209  1  0.293100  0.845400  0.613100  1.0
  C  C210  1  0.706900  0.845400  0.386900  1.0
  C  C211  1  0.293100  0.345400  0.113100  1.0
  C  C212  1  0.706900  0.345400  0.886900  1.0
  C  C213  1  0.706900  0.154600  0.386900  1.0
  C  C214  1  0.293100  0.154600  0.613100  1.0
  C  C215  1  0.706900  0.654600  0.886900  1.0
  C  C216  1  0.293100  0.654600  0.113100  1.0
  C  C217  1  0.221900  0.769600  0.563600  1.0
  C  C218  1  0.778100  0.769600  0.436400  1.0
  C  C219  1  0.221900  0.269600  0.063600  1.0
  C  C220  1  0.778100  0.269600  0.936400  1.0
  C  C221  1  0.778100  0.230400  0.436400  1.0
  C  C222  1  0.221900  0.230400  0.563600  1.0
  C  C223  1  0.778100  0.730400  0.936400  1.0
  C  C224  1  0.221900  0.730400  0.063600  1.0
  C  C225  1  0.117200  0.737900  0.584700  1.0
  C  C226  1  0.882800  0.737900  0.415300  1.0
  C  C227  1  0.117200  0.237900  0.084700  1.0
  C  C228  1  0.882800  0.237900  0.915300  1.0
  C  C229  1  0.882800  0.262100  0.415300  1.0
  C  C230  1  0.117200  0.262100  0.584700  1.0
  C  C231  1  0.882800  0.762100  0.915300  1.0
  C  C232  1  0.117200  0.762100  0.084700  1.0
  C  C233  1  0.076400  0.771700  0.647400  1.0
  C  C234  1  0.923600  0.771700  0.352600  1.0
  C  C235  1  0.076400  0.271700  0.147400  1.0
  C  C236  1  0.923600  0.271700  0.852600  1.0
  C  C237  1  0.923600  0.228300  0.352600  1.0
  C  C238  1  0.076400  0.228300  0.647400  1.0
  C  C239  1  0.923600  0.728300  0.852600  1.0
  C  C240  1  0.076400  0.728300  0.147400  1.0
  C  C241  1  0.956200  0.778000  0.639500  1.0
  C  C242  1  0.043800  0.778000  0.360500  1.0
  C  C243  1  0.956200  0.278000  0.139500  1.0
  C  C244  1  0.043800  0.278000  0.860500  1.0
  C  C245  1  0.043800  0.222000  0.360500  1.0
  C  C246  1  0.956200  0.222000  0.639500  1.0
  C  C247  1  0.043800  0.722000  0.860500  1.0
  C  C248  1  0.956200  0.722000  0.139500  1.0
  C  C249  1  0.900400  0.850900  0.672400  1.0
  C  C250  1  0.099600  0.850900  0.327600  1.0
  C  C251  1  0.900400  0.350900  0.172400  1.0
  C  C252  1  0.099600  0.350900  0.827600  1.0
  C  C253  1  0.099600  0.149100  0.327600  1.0
  C  C254  1  0.900400  0.149100  0.672400  1.0
  C  C255  1  0.099600  0.649100  0.827600  1.0
  C  C256  1  0.900400  0.649100  0.172400  1.0
  C  C257  1  0.971000  0.921500  0.719000  1.0
  C  C258  1  0.029000  0.921500  0.281000  1.0
  C  C259  1  0.971000  0.421500  0.219000  1.0
  C  C260  1  0.029000  0.421500  0.781000  1.0
  C  C261  1  0.029000  0.078500  0.281000  1.0
  C  C262  1  0.971000  0.078500  0.719000  1.0
  C  C263  1  0.029000  0.578500  0.781000  1.0
  C  C264  1  0.971000  0.578500  0.219000  1.0
  C  C265  1  0.929000  0.014000  0.717100  1.0
  C  C266  1  0.071000  0.014000  0.282900  1.0
  C  C267  1  0.929000  0.514000  0.217100  1.0
  C  C268  1  0.071000  0.514000  0.782900  1.0
  C  C269  1  0.071000  0.986000  0.282900  1.0
  C  C270  1  0.929000  0.986000  0.717100  1.0
  C  C271  1  0.071000  0.486000  0.782900  1.0
  C  C272  1  0.929000  0.486000  0.217100  1.0
  C  C273  1  0.010800  0.906900  0.724500  1.0
  C  C274  1  0.989200  0.906900  0.275500  1.0
  C  C275  1  0.010800  0.406900  0.224500  1.0
  C  C276  1  0.989200  0.406900  0.775500  1.0
  C  C277  1  0.989200  0.093100  0.275500  1.0
  C  C278  1  0.010800  0.093100  0.724500  1.0
  C  C279  1  0.989200  0.593100  0.775500  1.0
  C  C280  1  0.010800  0.593100  0.224500  1.0
  C  C281  1  0.131200  0.916800  0.732200  1.0
  C  C282  1  0.868800  0.916800  0.267800  1.0
  C  C283  1  0.131200  0.416800  0.232200  1.0
  C  C284  1  0.868800  0.416800  0.767800  1.0
  C  C285  1  0.868800  0.083200  0.267800  1.0
  C  C286  1  0.131200  0.083200  0.732200  1.0
  C  C287  1  0.868800  0.583200  0.767800  1.0
  C  C288  1  0.131200  0.583200  0.232200  1.0
  C  C289  1  0.184600  0.846400  0.691400  1.0
  C  C290  1  0.815400  0.846400  0.308600  1.0
  C  C291  1  0.184600  0.346400  0.191400  1.0
  C  C292  1  0.815400  0.346400  0.808600  1.0
  C  C293  1  0.815400  0.153600  0.308600  1.0
  C  C294  1  0.184600  0.153600  0.691400  1.0
  C  C295  1  0.815400  0.653600  0.808600  1.0
  C  C296  1  0.184600  0.653600  0.191400  1.0
  C  C297  1  0.278300  0.871800  0.660600  1.0
  C  C298  1  0.721700  0.871800  0.339400  1.0
  C  C299  1  0.278300  0.371800  0.160600  1.0
  C  C300  1  0.721700  0.371800  0.839400  1.0
  C  C301  1  0.721700  0.128200  0.339400  1.0
  C  C302  1  0.278300  0.128200  0.660600  1.0
  C  C303  1  0.721700  0.628200  0.839400  1.0
  C  C304  1  0.278300  0.628200  0.160600  1.0
  C  C305  1  0.268400  0.813400  0.590900  1.0
  C  C306  1  0.731600  0.813400  0.409100  1.0
  C  C307  1  0.268400  0.313400  0.090900  1.0
  C  C308  1  0.731600  0.313400  0.909100  1.0
  C  C309  1  0.731600  0.186600  0.409100  1.0
  C  C310  1  0.268400  0.186600  0.590900  1.0
  C  C311  1  0.731600  0.686600  0.909100  1.0
  C  C312  1  0.268400  0.686600  0.090900  1.0
  C  C313  1  0.165700  0.746100  0.582500  1.0
  C  C314  1  0.834300  0.746100  0.417500  1.0
  C  C315  1  0.165700  0.246100  0.082500  1.0
  C  C316  1  0.834300  0.246100  0.917500  1.0
  C  C317  1  0.834300  0.253900  0.417500  1.0
  C  C318  1  0.165700  0.253900  0.582500  1.0
  C  C319  1  0.834300  0.753900  0.917500  1.0
  C  C320  1  0.165700  0.753900  0.082500  1.0
  C  C321  1  0.116600  0.768400  0.647700  1.0
  C  C322  1  0.883400  0.768400  0.352300  1.0
  C  C323  1  0.116600  0.268400  0.147700  1.0
  C  C324  1  0.883400  0.268400  0.852300  1.0
  C  C325  1  0.883400  0.231600  0.352300  1.0
  C  C326  1  0.116600  0.231600  0.647700  1.0
  C  C327  1  0.883400  0.731600  0.852300  1.0
  C  C328  1  0.116600  0.731600  0.147700  1.0
  C  C329  1  0.992600  0.764700  0.634500  1.0
  C  C330  1  0.007400  0.764700  0.365500  1.0
  C  C331  1  0.992600  0.264700  0.134500  1.0
  C  C332  1  0.007400  0.264700  0.865500  1.0
  C  C333  1  0.007400  0.235300  0.365500  1.0
  C  C334  1  0.992600  0.235300  0.634500  1.0
  C  C335  1  0.007400  0.735300  0.865500  1.0
  C  C336  1  0.992600  0.735300  0.134500  1.0
  C  C337  1  0.937700  0.830300  0.673400  1.0
  C  C338  1  0.062300  0.830300  0.326600  1.0
  C  C339  1  0.937700  0.330300  0.173400  1.0
  C  C340  1  0.062300  0.330300  0.826600  1.0
  C  C341  1  0.062300  0.169700  0.326600  1.0
  C  C342  1  0.937700  0.169700  0.673400  1.0
  C  C343  1  0.062300  0.669700  0.826600  1.0
  C  C344  1  0.937700  0.669700  0.173400  1.0
  C  C345  1  0.822000  0.870100  0.641500  1.0
  C  C346  1  0.178000  0.870100  0.358500  1.0
  C  C347  1  0.822000  0.370100  0.141500  1.0
  C  C348  1  0.178000  0.370100  0.858500  1.0
  C  C349  1  0.178000  0.129900  0.358500  1.0
  C  C350  1  0.822000  0.129900  0.641500  1.0
  C  C351  1  0.178000  0.629900  0.858500  1.0
  C  C352  1  0.822000  0.629900  0.141500  1.0
  C  C353  1  0.811400  0.036400  0.664000  1.0
  C  C354  1  0.188600  0.036400  0.336000  1.0
  C  C355  1  0.811400  0.536400  0.164000  1.0
  C  C356  1  0.188600  0.536400  0.836000  1.0
  C  C357  1  0.188600  0.963600  0.336000  1.0
  C  C358  1  0.811400  0.963600  0.664000  1.0
  C  C359  1  0.188600  0.463600  0.836000  1.0
  C  C360  1  0.811400  0.463600  0.164000  1.0
  C  C361  1  0.746000  0.967600  0.618200  1.0
  C  C362  1  0.254000  0.967600  0.381800  1.0
  C  C363  1  0.746000  0.467600  0.118200  1.0
  C  C364  1  0.254000  0.467600  0.881800  1.0
  C  C365  1  0.254000  0.032400  0.381800  1.0
  C  C366  1  0.746000  0.032400  0.618200  1.0
  C  C367  1  0.254000  0.532400  0.881800  1.0
  C  C368  1  0.746000  0.532400  0.118200  1.0
  C  C369  1  0.786600  0.872400  0.619600  1.0
  C  C370  1  0.213400  0.872400  0.380400  1.0
  C  C371  1  0.786600  0.372400  0.119600  1.0
  C  C372  1  0.213400  0.372400  0.880400  1.0
  C  C373  1  0.213400  0.127600  0.380400  1.0
  C  C374  1  0.786600  0.127600  0.619600  1.0
  C  C375  1  0.213400  0.627600  0.880400  1.0
  C  C376  1  0.786600  0.627600  0.119600  1.0
  C  C377  1  0.873700  0.752700  0.563500  1.0
  C  C378  1  0.126300  0.752700  0.436500  1.0
  C  C379  1  0.873700  0.252700  0.063500  1.0
  C  C380  1  0.126300  0.252700  0.936500  1.0
  C  C381  1  0.126300  0.247300  0.436500  1.0
  C  C382  1  0.873700  0.247300  0.563500  1.0
  C  C383  1  0.126300  0.747300  0.936500  1.0
  C  C384  1  0.873700  0.747300  0.063500  1.0
  C  C385  1  0.765800  0.814300  0.552600  1.0
  C  C386  1  0.234200  0.814300  0.447400  1.0
  C  C387  1  0.765800  0.314300  0.052600  1.0
  C  C388  1  0.234200  0.314300  0.947400  1.0
  C  C389  1  0.234200  0.185700  0.447400  1.0
  C  C390  1  0.765800  0.185700  0.552600  1.0
  C  C391  1  0.234200  0.685700  0.947400  1.0
  C  C392  1  0.765800  0.685700  0.052600  1.0
  C  C393  1  0.302900  0.843100  0.528400  1.0
  C  C394  1  0.697100  0.843100  0.471600  1.0
  C  C395  1  0.302900  0.343100  0.028400  1.0
  C  C396  1  0.697100  0.343100  0.971600  1.0
  C  C397  1  0.697100  0.156900  0.471600  1.0
  C  C398  1  0.302900  0.156900  0.528400  1.0
  C  C399  1  0.697100  0.656900  0.971600  1.0
  C  C400  1  0.302900  0.656900  0.028400  1.0
  C  C401  1  0.352100  0.064800  0.529900  1.0
  C  C402  1  0.647900  0.064800  0.470100  1.0
  C  C403  1  0.352100  0.564800  0.029900  1.0
  C  C404  1  0.647900  0.564800  0.970100  1.0
  C  C405  1  0.647900  0.935200  0.470100  1.0
  C  C406  1  0.352100  0.935200  0.529900  1.0
  C  C407  1  0.647900  0.435200  0.970100  1.0
  C  C408  1  0.352100  0.435200  0.029900  1.0
  C  C409  1  0.670300  0.988900  0.540100  1.0
  C  C410  1  0.329700  0.988900  0.459900  1.0
  C  C411  1  0.670300  0.488900  0.040100  1.0
  C  C412  1  0.329700  0.488900  0.959900  1.0
  C  C413  1  0.329700  0.011100  0.459900  1.0
  C  C414  1  0.670300  0.011100  0.540100  1.0
  C  C415  1  0.329700  0.511100  0.959900  1.0
  C  C416  1  0.670300  0.511100  0.040100  1.0
  C  C417  1  0.327200  0.913600  0.487000  1.0
  C  C418  1  0.672800  0.913600  0.513000  1.0
  C  C419  1  0.327200  0.413600  0.987000  1.0
  C  C420  1  0.672800  0.413600  0.013000  1.0
  C  C421  1  0.672800  0.086400  0.513000  1.0
  C  C422  1  0.327200  0.086400  0.487000  1.0
  C  C423  1  0.672800  0.586400  0.013000  1.0
  C  C424  1  0.327200  0.586400  0.987000  1.0
  C  C425  1  0.750300  0.840900  0.563900  1.0
  C  C426  1  0.249700  0.840900  0.436100  1.0
  C  C427  1  0.750300  0.340900  0.063900  1.0
  C  C428  1  0.249700  0.340900  0.936100  1.0
  C  C429  1  0.249700  0.159100  0.436100  1.0
  C  C430  1  0.750300  0.159100  0.563900  1.0
  C  C431  1  0.249700  0.659100  0.936100  1.0
  C  C432  1  0.750300  0.659100  0.063900  1.0
  C  C433  1  0.198500  0.767700  0.477100  1.0
  C  C434  1  0.801500  0.767700  0.522900  1.0
  C  C435  1  0.198500  0.267700  0.977100  1.0
  C  C436  1  0.801500  0.267700  0.022900  1.0
  C  C437  1  0.801500  0.232300  0.522900  1.0
  C  C438  1  0.198500  0.232300  0.477100  1.0
  C  C439  1  0.801500  0.732300  0.022900  1.0
  C  C440  1  0.198500  0.732300  0.977100  1.0
  C  C441  1  0.919500  0.734400  0.556600  1.0
  C  C442  1  0.080500  0.734400  0.443400  1.0
  C  C443  1  0.919500  0.234400  0.056600  1.0
  C  C444  1  0.080500  0.234400  0.943400  1.0
  C  C445  1  0.080500  0.265600  0.443400  1.0
  C  C446  1  0.919500  0.265600  0.556600  1.0
  C  C447  1  0.080500  0.765600  0.943400  1.0
  C  C448  1  0.919500  0.765600  0.056600  1.0
  C  C449  1  0.029300  0.716300  0.507100  1.0
  C  C450  1  0.970700  0.716300  0.492900  1.0
  C  C451  1  0.029300  0.216300  0.007100  1.0
  C  C452  1  0.970700  0.216300  0.992900  1.0
  C  C453  1  0.970700  0.283700  0.492900  1.0
  C  C454  1  0.029300  0.283700  0.507100  1.0
  C  C455  1  0.970700  0.783700  0.992900  1.0
  C  C456  1  0.029300  0.783700  0.007100  1.0
  C  C457  1  0.094300  0.722500  0.504600  1.0
  C  C458  1  0.905700  0.722500  0.495400  1.0
  C  C459  1  0.094300  0.222500  0.004600  1.0
  C  C460  1  0.905700  0.222500  0.995400  1.0
  C  C461  1  0.905700  0.277500  0.495400  1.0
  C  C462  1  0.094300  0.277500  0.504600  1.0
  C  C463  1  0.905700  0.777500  0.995400  1.0
  C  C464  1  0.094300  0.777500  0.004600  1.0
  N  N465  1  0.000000  0.000000  0.500000  1
  N  N466  1  0.000000  0.500000  0.000000  1
