# generated using pymatgen
data_ZnH34C41N7(ClO2)2
_symmetry_space_group_name_H-M   'P 1'
_cell_length_a   9.50940000
_cell_length_b   16.83268368
_cell_length_c   25.20600000
_cell_angle_alpha   90.00000000
_cell_angle_beta   90.00000000
_cell_angle_gamma   106.40757757
_symmetry_Int_Tables_number   1
_chemical_formula_structural   ZnH34C41N7(ClO2)2
_chemical_formula_sum   'Zn4 H136 C164 N28 Cl8 O16'
_cell_volume   3870.38592984
_cell_formula_units_Z   4
loop_
 _symmetry_equiv_pos_site_id
 _symmetry_equiv_pos_as_xyz
  1  'x, y, z'
loop_
 _atom_site_type_symbol
 _atom_site_label
 _atom_site_symmetry_multiplicity
 _atom_site_fract_x
 _atom_site_fract_y
 _atom_site_fract_z
 _atom_site_occupancy
  C  C1  1  0.323700  0.578800  0.822600  1
  C  C2  1  0.176300  0.421200  0.322600  1
  C  C3  1  0.255100  0.578800  0.177400  1
  C  C4  1  0.244900  0.421200  0.677400  1
  C  C5  1  0.676300  0.421200  0.177400  1
  C  C6  1  0.823700  0.578800  0.677400  1
  C  C7  1  0.744900  0.421200  0.822600  1
  C  C8  1  0.755100  0.578800  0.322600  1
  C  C9  1  0.150100  0.581000  0.815900  1
  C  C10  1  0.349900  0.419000  0.315900  1
  C  C11  1  0.430900  0.581000  0.184100  1
  C  C12  1  0.069100  0.419000  0.684100  1
  C  C13  1  0.849900  0.419000  0.184100  1
  C  C14  1  0.650100  0.581000  0.684100  1
  C  C15  1  0.569100  0.419000  0.815900  1
  C  C16  1  0.930900  0.581000  0.315900  1
  C  C17  1  0.424400  0.921200  0.954900  1
  C  C18  1  0.075600  0.078800  0.454900  1
  C  C19  1  0.496800  0.921200  0.045100  1
  C  C20  1  0.003200  0.078800  0.545100  1
  C  C21  1  0.575600  0.078800  0.045100  1
  C  C22  1  0.924400  0.921200  0.545100  1
  C  C23  1  0.503200  0.078800  0.954900  1
  C  C24  1  0.996800  0.921200  0.454900  1
  C  C25  1  0.431200  0.000000  0.911800  1
  C  C26  1  0.068800  0.000000  0.411800  1
  C  C27  1  0.568800  1.000000  0.088200  1
  C  C28  1  0.931200  0.000000  0.588200  1
  C  C29  1  0.512040  0.876480  0.583150  1.0
  C  C30  1  0.987960  0.123520  0.083150  1.0
  C  C31  1  0.364440  0.876480  0.416850  1.0
  C  C32  1  0.135560  0.123520  0.916850  1.0
  C  C33  1  0.487960  0.123520  0.416850  1.0
  C  C34  1  0.012040  0.876480  0.916850  1.0
  C  C35  1  0.635560  0.123520  0.583150  1.0
  C  C36  1  0.864440  0.876480  0.083150  1.0
  C  C37  1  0.595670  0.823540  0.578040  1.0
  C  C38  1  0.904330  0.176460  0.078040  1.0
  C  C39  1  0.227870  0.823540  0.421960  1.0
  C  C40  1  0.272130  0.176460  0.921960  1.0
  C  C41  1  0.404330  0.176460  0.421960  1.0
  C  C42  1  0.095670  0.823540  0.921960  1.0
  C  C43  1  0.772130  0.176460  0.578040  1.0
  C  C44  1  0.727870  0.823540  0.078040  1.0
  C  C45  1  0.652710  0.797420  0.622780  1.0
  C  C46  1  0.847290  0.202580  0.122780  1.0
  C  C47  1  0.144710  0.797420  0.377220  1.0
  C  C48  1  0.355290  0.202580  0.877220  1.0
  C  C49  1  0.347290  0.202580  0.377220  1.0
  C  C50  1  0.152710  0.797420  0.877220  1.0
  C  C51  1  0.855290  0.202580  0.622780  1.0
  C  C52  1  0.644710  0.797420  0.122780  1.0
  C  C53  1  0.621670  0.825340  0.671990  1.0
  C  C54  1  0.878330  0.174660  0.171990  1.0
  C  C55  1  0.203670  0.825340  0.328010  1.0
  C  C56  1  0.296330  0.174660  0.828010  1.0
  C  C57  1  0.378330  0.174660  0.328010  1.0
  C  C58  1  0.121670  0.825340  0.828010  1.0
  C  C59  1  0.796330  0.174660  0.671990  1.0
  C  C60  1  0.703670  0.825340  0.171990  1.0
  C  C61  1  0.534420  0.878440  0.674110  1.0
  C  C62  1  0.965580  0.121560  0.174110  1.0
  C  C63  1  0.344020  0.878440  0.325890  1.0
  C  C64  1  0.155980  0.121560  0.825890  1.0
  C  C65  1  0.465580  0.121560  0.325890  1.0
  C  C66  1  0.034420  0.878440  0.825890  1.0
  C  C67  1  0.655980  0.121560  0.674110  1.0
  C  C68  1  0.844020  0.878440  0.174110  1.0
  C  C69  1  0.684790  0.796980  0.720800  1.0
  C  C70  1  0.815210  0.203020  0.220800  1.0
  C  C71  1  0.112190  0.796980  0.279200  1.0
  C  C72  1  0.387810  0.203020  0.779200  1.0
  C  C73  1  0.315210  0.203020  0.279200  1.0
  C  C74  1  0.184790  0.796980  0.779200  1.0
  C  C75  1  0.887810  0.203020  0.720800  1.0
  C  C76  1  0.612190  0.796980  0.220800  1.0
  C  C77  1  0.641620  0.763040  0.814880  1.0
  C  C78  1  0.858380  0.236960  0.314880  1.0
  C  C79  1  0.121420  0.763040  0.185120  1.0
  C  C80  1  0.378580  0.236960  0.685120  1.0
  C  C81  1  0.358380  0.236960  0.185120  1.0
  C  C82  1  0.141620  0.763040  0.685120  1.0
  C  C83  1  0.878580  0.236960  0.814880  1.0
  C  C84  1  0.621420  0.763040  0.314880  1.0
  C  C85  1  0.725760  0.709120  0.821310  1.0
  C  C86  1  0.774240  0.290880  0.321310  1.0
  C  C87  1  0.983360  0.709120  0.178690  1.0
  C  C88  1  0.516640  0.290880  0.678690  1.0
  C  C89  1  0.274240  0.290880  0.178690  1.0
  C  C90  1  0.225760  0.709120  0.678690  1.0
  C  C91  1  0.016640  0.290880  0.821310  1.0
  C  C92  1  0.483360  0.709120  0.321310  1.0
  C  C93  1  0.761560  0.688720  0.871600  1.0
  C  C94  1  0.738440  0.311280  0.371600  1.0
  C  C95  1  0.927160  0.688720  0.128400  1.0
  C  C96  1  0.572840  0.311280  0.628400  1.0
  C  C97  1  0.238440  0.311280  0.128400  1.0
  C  C98  1  0.261560  0.688720  0.628400  1.0
  C  C99  1  0.072840  0.311280  0.871600  1.0
  C  C100  1  0.427160  0.688720  0.371600  1.0
  C  C101  1  0.709590  0.721580  0.915330  1.0
  C  C102  1  0.790410  0.278420  0.415330  1.0
  C  C103  1  0.011990  0.721580  0.084670  1.0
  C  C104  1  0.488010  0.278420  0.584670  1.0
  C  C105  1  0.290410  0.278420  0.084670  1.0
  C  C106  1  0.209590  0.721580  0.584670  1.0
  C  C107  1  0.988010  0.278420  0.915330  1.0
  C  C108  1  0.511990  0.721580  0.415330  1.0
  C  C109  1  0.623170  0.773940  0.909350  1.0
  C  C110  1  0.876830  0.226060  0.409350  1.0
  C  C111  1  0.150770  0.773940  0.090650  1.0
  C  C112  1  0.349230  0.226060  0.590650  1.0
  C  C113  1  0.376830  0.226060  0.090650  1.0
  C  C114  1  0.123170  0.773940  0.590650  1.0
  C  C115  1  0.849230  0.226060  0.909350  1.0
  C  C116  1  0.650770  0.773940  0.409350  1.0
  C  C117  1  0.590550  0.796300  0.858830  1.0
  C  C118  1  0.909450  0.203700  0.358830  1.0
  C  C119  1  0.205750  0.796300  0.141170  1.0
  C  C120  1  0.294250  0.203700  0.641170  1.0
  C  C121  1  0.409450  0.203700  0.141170  1.0
  C  C122  1  0.090550  0.796300  0.641170  1.0
  C  C123  1  0.794250  0.203700  0.858830  1.0
  C  C124  1  0.705750  0.796300  0.358830  1.0
  C  C125  1  0.761480  0.630960  0.980870  1.0
  C  C126  1  0.738520  0.369040  0.480870  1.0
  C  C127  1  0.869480  0.630960  0.019130  1.0
  C  C128  1  0.630520  0.369040  0.519130  1.0
  C  C129  1  0.238520  0.369040  0.019130  1.0
  C  C130  1  0.261480  0.630960  0.519130  1.0
  C  C131  1  0.130520  0.369040  0.980870  1.0
  C  C132  1  0.369480  0.630960  0.480870  1.0
  C  C133  1  0.672390  0.558380  0.961960  1.0
  C  C134  1  0.827610  0.441620  0.461960  1.0
  C  C135  1  0.885990  0.558380  0.038040  1.0
  C  C136  1  0.614010  0.441620  0.538040  1.0
  C  C137  1  0.327610  0.441620  0.038040  1.0
  C  C138  1  0.172390  0.558380  0.538040  1.0
  C  C139  1  0.114010  0.441620  0.961960  1.0
  C  C140  1  0.385990  0.558380  0.461960  1.0
  C  C141  1  0.687680  0.482160  0.980740  1.0
  C  C142  1  0.812320  0.517840  0.480740  1.0
  C  C143  1  0.794480  0.482160  0.019260  1.0
  C  C144  1  0.705520  0.517840  0.519260  1.0
  C  C145  1  0.312320  0.517840  0.019260  1.0
  C  C146  1  0.187680  0.482160  0.519260  1.0
  C  C147  1  0.205520  0.517840  0.980740  1.0
  C  C148  1  0.294480  0.482160  0.480740  1.0
  C  C149  1  0.597880  0.405560  0.961540  1.0
  C  C150  1  0.902120  0.594440  0.461540  1.0
  C  C151  1  0.807680  0.405560  0.038460  1.0
  C  C152  1  0.692320  0.594440  0.538460  1.0
  C  C153  1  0.402120  0.594440  0.038460  1.0
  C  C154  1  0.097880  0.405560  0.538460  1.0
  C  C155  1  0.192320  0.594440  0.961540  1.0
  C  C156  1  0.307680  0.405560  0.461540  1.0
  C  C157  1  0.613940  0.333680  0.980890  1.0
  C  C158  1  0.886060  0.666320  0.480890  1.0
  C  C159  1  0.719740  0.333680  0.019110  1.0
  C  C160  1  0.780260  0.666320  0.519110  1.0
  C  C161  1  0.386060  0.666320  0.019110  1.0
  C  C162  1  0.113940  0.333680  0.519110  1.0
  C  C163  1  0.280260  0.666320  0.980890  1.0
  C  C164  1  0.219740  0.333680  0.480890  1.0
  Cl  Cl165  1  0.277700  0.000000  0.709710  1.0
  Cl  Cl166  1  0.222300  0.000000  0.209710  1.0
  Cl  Cl167  1  0.722300  0.000000  0.290290  1.0
  Cl  Cl168  1  0.777700  0.000000  0.790290  1.0
  Cl  Cl169  1  0.288880  0.000000  0.551310  1.0
  Cl  Cl170  1  0.211120  0.000000  0.051310  1.0
  Cl  Cl171  1  0.711120  0.000000  0.448690  1.0
  Cl  Cl172  1  0.788880  1.000000  0.948690  1.0
  H  H173  1  0.388900  0.626800  0.804700  1
  H  H174  1  0.111100  0.373200  0.304700  1
  H  H175  1  0.237900  0.626800  0.195300  1
  H  H176  1  0.262100  0.373200  0.695300  1
  H  H177  1  0.611100  0.373200  0.195300  1
  H  H178  1  0.888900  0.626800  0.695300  1
  H  H179  1  0.762100  0.373200  0.804700  1
  H  H180  1  0.737900  0.626800  0.304700  1
  H  H181  1  0.349000  0.580400  0.860300  1
  H  H182  1  0.151000  0.419600  0.360300  1
  H  H183  1  0.231400  0.580400  0.139700  1
  H  H184  1  0.268600  0.419600  0.639700  1
  H  H185  1  0.651000  0.419600  0.139700  1
  H  H186  1  0.849000  0.580400  0.639700  1
  H  H187  1  0.768600  0.419600  0.860300  1
  H  H188  1  0.731400  0.580400  0.360300  1
  H  H189  1  0.335200  0.527800  0.806700  1
  H  H190  1  0.164800  0.472200  0.306700  1
  H  H191  1  0.192600  0.527800  0.193300  1
  H  H192  1  0.307400  0.472200  0.693300  1
  H  H193  1  0.664800  0.472200  0.193300  1
  H  H194  1  0.835200  0.527800  0.693300  1
  H  H195  1  0.807400  0.472200  0.806700  1
  H  H196  1  0.692600  0.527800  0.306700  1
  H  H197  1  0.388800  0.977200  0.877700  1
  H  H198  1  0.111200  0.022800  0.377700  1
  H  H199  1  0.588400  0.977200  0.122300  1
  H  H200  1  0.911600  0.022800  0.622300  1
  H  H201  1  0.611200  0.022800  0.122300  1
  H  H202  1  0.888800  0.977200  0.622300  1
  H  H203  1  0.411600  0.022800  0.877700  1
  H  H204  1  0.088400  0.977200  0.377700  1
  H  H205  1  0.375300  0.035800  0.926200  1
  H  H206  1  0.124700  0.964200  0.426200  1
  H  H207  1  0.660500  0.035800  0.073800  1
  H  H208  1  0.839500  0.964200  0.573800  1
  H  H209  1  0.624700  0.964200  0.073800  1
  H  H210  1  0.875300  0.035800  0.573800  1
  H  H211  1  0.339500  0.964200  0.926200  1
  H  H212  1  0.160500  0.035800  0.426200  1
  H  H213  1  0.533500  0.032400  0.906500  1
  H  H214  1  0.966500  0.967600  0.406500  1
  H  H215  1  0.498900  0.032400  0.093500  1
  H  H216  1  0.001100  0.967600  0.593500  1
  H  H217  1  0.466500  0.967600  0.093500  1
  H  H218  1  0.033500  0.032400  0.593500  1
  H  H219  1  0.501100  0.967600  0.906500  1
  H  H220  1  0.998900  0.032400  0.406500  1
  H  H221  1  0.472700  0.894000  0.552100  1.0
  H  H222  1  0.027300  0.106000  0.052100  1.0
  H  H223  1  0.421300  0.894000  0.447900  1.0
  H  H224  1  0.078700  0.106000  0.947900  1.0
  H  H225  1  0.527300  0.106000  0.447900  1.0
  H  H226  1  0.972700  0.894000  0.947900  1.0
  H  H227  1  0.578700  0.106000  0.552100  1.0
  H  H228  1  0.921300  0.894000  0.052100  1.0
  H  H229  1  0.614700  0.804800  0.544000  1.0
  H  H230  1  0.885300  0.195200  0.044000  1.0
  H  H231  1  0.190100  0.804800  0.456000  1.0
  H  H232  1  0.309900  0.195200  0.956000  1.0
  H  H233  1  0.385300  0.195200  0.456000  1.0
  H  H234  1  0.114700  0.804800  0.956000  1.0
  H  H235  1  0.809900  0.195200  0.544000  1.0
  H  H236  1  0.690100  0.804800  0.044000  1.0
  H  H237  1  0.712400  0.760800  0.620000  1.0
  H  H238  1  0.787600  0.239200  0.120000  1.0
  H  H239  1  0.048400  0.760800  0.380000  1.0
  H  H240  1  0.451600  0.239200  0.880000  1.0
  H  H241  1  0.287600  0.239200  0.380000  1.0
  H  H242  1  0.212400  0.760800  0.880000  1.0
  H  H243  1  0.951600  0.239200  0.620000  1.0
  H  H244  1  0.548400  0.760800  0.120000  1.0
  H  H245  1  0.510400  0.896600  0.707700  1.0
  H  H246  1  0.989600  0.103400  0.207700  1.0
  H  H247  1  0.386200  0.896600  0.292300  1.0
  H  H248  1  0.113800  0.103400  0.792300  1.0
  H  H249  1  0.489600  0.103400  0.292300  1.0
  H  H250  1  0.010400  0.896600  0.792300  1.0
  H  H251  1  0.613800  0.103400  0.707700  1.0
  H  H252  1  0.886200  0.896600  0.207700  1.0
  H  H253  1  0.759200  0.686000  0.791100  1.0
  H  H254  1  0.740800  0.314000  0.291100  1.0
  H  H255  1  0.926800  0.686000  0.208900  1.0
  H  H256  1  0.573200  0.314000  0.708900  1.0
  H  H257  1  0.240800  0.314000  0.208900  1.0
  H  H258  1  0.259200  0.686000  0.708900  1.0
  H  H259  1  0.073200  0.314000  0.791100  1.0
  H  H260  1  0.426800  0.686000  0.291100  1.0
  H  H261  1  0.821200  0.652400  0.876200  1.0
  H  H262  1  0.678800  0.347600  0.376200  1.0
  H  H263  1  0.831200  0.652400  0.123800  1.0
  H  H264  1  0.668800  0.347600  0.623800  1.0
  H  H265  1  0.178800  0.347600  0.123800  1.0
  H  H266  1  0.321200  0.652400  0.623800  1.0
  H  H267  1  0.168800  0.347600  0.876200  1.0
  H  H268  1  0.331200  0.652400  0.376200  1.0
  H  H269  1  0.585800  0.794800  0.939700  1.0
  H  H270  1  0.914200  0.205200  0.439700  1.0
  H  H271  1  0.209000  0.794800  0.060300  1.0
  H  H272  1  0.291000  0.205200  0.560300  1.0
  H  H273  1  0.414200  0.205200  0.060300  1.0
  H  H274  1  0.085800  0.794800  0.560300  1.0
  H  H275  1  0.791000  0.205200  0.939700  1.0
  H  H276  1  0.709000  0.794800  0.439700  1.0
  H  H277  1  0.533800  0.834000  0.854300  1.0
  H  H278  1  0.966200  0.166000  0.354300  1.0
  H  H279  1  0.300200  0.834000  0.145700  1.0
  H  H280  1  0.199800  0.166000  0.645700  1.0
  H  H281  1  0.466200  0.166000  0.145700  1.0
  H  H282  1  0.033800  0.834000  0.645700  1.0
  H  H283  1  0.699800  0.166000  0.854300  1.0
  H  H284  1  0.800200  0.834000  0.354300  1.0
  H  H285  1  0.599900  0.559000  0.936100  1.0
  H  H286  1  0.900100  0.441000  0.436100  1.0
  H  H287  1  0.959100  0.559000  0.063900  1.0
  H  H288  1  0.540900  0.441000  0.563900  1.0
  H  H289  1  0.400100  0.441000  0.063900  1.0
  H  H290  1  0.099900  0.559000  0.563900  1.0
  H  H291  1  0.040900  0.441000  0.936100  1.0
  H  H292  1  0.459100  0.559000  0.436100  1.0
  H  H293  1  0.526300  0.404600  0.935100  1.0
  H  H294  1  0.973700  0.595400  0.435100  1.0
  H  H295  1  0.878300  0.404600  0.064900  1.0
  H  H296  1  0.621700  0.595400  0.564900  1.0
  H  H297  1  0.473700  0.595400  0.064900  1.0
  H  H298  1  0.026300  0.404600  0.564900  1.0
  H  H299  1  0.121700  0.595400  0.935100  1.0
  H  H300  1  0.378300  0.404600  0.435100  1.0
  H  H301  1  0.552200  0.282600  0.968300  1.0
  H  H302  1  0.947800  0.717400  0.468300  1.0
  H  H303  1  0.730400  0.282600  0.031700  1.0
  H  H304  1  0.769600  0.717400  0.531700  1.0
  H  H305  1  0.447800  0.717400  0.031700  1.0
  H  H306  1  0.052200  0.282600  0.531700  1.0
  H  H307  1  0.269600  0.717400  0.968300  1.0
  H  H308  1  0.230400  0.282600  0.468300  1.0
  N  N309  1  0.992500  0.563200  0.818100  1
  N  N310  1  0.507500  0.436800  0.318100  1
  N  N311  1  0.570700  0.563200  0.181900  1
  N  N312  1  0.929300  0.436800  0.681900  1
  N  N313  1  0.007500  0.436800  0.181900  1
  N  N314  1  0.492500  0.563200  0.681900  1
  N  N315  1  0.429300  0.436800  0.818100  1
  N  N316  1  0.070700  0.563200  0.318100  1
  N  N317  1  0.437000  0.874000  0.000000  1
  N  N318  1  0.063000  0.126000  0.500000  1
  N  N319  1  0.563000  0.126000  0.000000  1
  N  N320  1  0.937000  0.874000  0.500000  1
  N  N321  1  0.482800  0.905000  0.630160  1.0
  N  N322  1  0.017200  0.095000  0.130160  1.0
  N  N323  1  0.422200  0.905000  0.369840  1.0
  N  N324  1  0.077800  0.095000  0.869840  1.0
  N  N325  1  0.517200  0.095000  0.369840  1.0
  N  N326  1  0.982800  0.905000  0.869840  1.0
  N  N327  1  0.577800  0.095000  0.630160  1.0
  N  N328  1  0.922200  0.905000  0.130160  1.0
  N  N329  1  0.599500  0.785000  0.763710  1.0
  N  N330  1  0.900500  0.215000  0.263710  1.0
  N  N331  1  0.185500  0.785000  0.236290  1.0
  N  N332  1  0.314500  0.215000  0.736290  1.0
  N  N333  1  0.400500  0.215000  0.236290  1.0
  N  N334  1  0.099500  0.785000  0.736290  1.0
  N  N335  1  0.814500  0.215000  0.763710  1.0
  N  N336  1  0.685500  0.785000  0.263710  1.0
  O  O337  1  0.806480  0.785960  0.718220  1.0
  O  O338  1  0.693520  0.214040  0.218220  1.0
  O  O339  1  0.979480  0.785960  0.281780  1.0
  O  O340  1  0.520520  0.214040  0.781780  1.0
  O  O341  1  0.193520  0.214040  0.281780  1.0
  O  O342  1  0.306480  0.785960  0.781780  1.0
  O  O343  1  0.020520  0.214040  0.718220  1.0
  O  O344  1  0.479480  0.785960  0.218220  1.0
  O  O345  1  0.748840  0.708080  0.966730  1.0
  O  O346  1  0.751160  0.291920  0.466730  1.0
  O  O347  1  0.959240  0.708080  0.033270  1.0
  O  O348  1  0.540760  0.291920  0.533270  1.0
  O  O349  1  0.251160  0.291920  0.033270  1.0
  O  O350  1  0.248840  0.708080  0.533270  1.0
  O  O351  1  0.040760  0.291920  0.966730  1.0
  O  O352  1  0.459240  0.708080  0.466730  1.0
  Zn  Zn353  1  0.382720  0.000000  0.632110  1.0
  Zn  Zn354  1  0.117280  0.000000  0.132110  1.0
  Zn  Zn355  1  0.617280  0.000000  0.367890  1.0
  Zn  Zn356  1  0.882720  0.000000  0.867890  1.0
