# generated using pymatgen
data_ZnH30C38I2(N3O2)2
_symmetry_space_group_name_H-M   'P 1'
_cell_length_a   9.35470000
_cell_length_b   16.79318177
_cell_length_c   25.24170000
_cell_angle_alpha   90.00000000
_cell_angle_beta   90.00000000
_cell_angle_gamma   106.17229500
_symmetry_Int_Tables_number   1
_chemical_formula_structural   ZnH30C38I2(N3O2)2
_chemical_formula_sum   'Zn4 H120 C152 I8 N24 O16'
_cell_volume   3808.43443135
_cell_formula_units_Z   4
loop_
 _symmetry_equiv_pos_site_id
 _symmetry_equiv_pos_as_xyz
  1  'x, y, z'
loop_
 _atom_site_type_symbol
 _atom_site_label
 _atom_site_symmetry_multiplicity
 _atom_site_fract_x
 _atom_site_fract_y
 _atom_site_fract_z
 _atom_site_occupancy
  C  C1  1  0.433900  0.555400  0.813400  1
  C  C2  1  0.066100  0.444600  0.313400  1
  C  C3  1  0.121500  0.555400  0.186600  1
  C  C4  1  0.378500  0.444600  0.686600  1
  C  C5  1  0.566100  0.444600  0.186600  1
  C  C6  1  0.933900  0.555400  0.686600  1
  C  C7  1  0.878500  0.444600  0.813400  1
  C  C8  1  0.621500  0.555400  0.313400  1
  C  C9  1  0.565000  0.530000  0.819700  1
  C  C10  1  0.935000  0.470000  0.319700  1
  C  C11  1  0.965000  0.530000  0.180300  1
  C  C12  1  0.535000  0.470000  0.680300  1
  C  C13  1  0.435000  0.470000  0.180300  1
  C  C14  1  0.065000  0.530000  0.680300  1
  C  C15  1  0.035000  0.470000  0.819700  1
  C  C16  1  0.465000  0.530000  0.319700  1
  C  C17  1  0.869100  0.881600  0.918500  1.0
  C  C18  1  0.630900  0.118400  0.418500  1.0
  C  C19  1  0.012500  0.881600  0.081500  1.0
  C  C20  1  0.487500  0.118400  0.581500  1.0
  C  C21  1  0.130900  0.118400  0.081500  1.0
  C  C22  1  0.369100  0.881600  0.581500  1.0
  C  C23  1  0.987500  0.118400  0.918500  1.0
  C  C24  1  0.512500  0.881600  0.418500  1.0
  C  C25  1  0.729800  0.828800  0.923800  1.0
  C  C26  1  0.770200  0.171200  0.423800  1.0
  C  C27  1  0.099000  0.828800  0.076200  1.0
  C  C28  1  0.401000  0.171200  0.576200  1.0
  C  C29  1  0.270200  0.171200  0.076200  1.0
  C  C30  1  0.229800  0.828800  0.576200  1.0
  C  C31  1  0.901000  0.171200  0.923800  1.0
  C  C32  1  0.599000  0.828800  0.423800  1.0
  C  C33  1  0.650000  0.798400  0.878500  1.0
  C  C34  1  0.850000  0.201600  0.378500  1.0
  C  C35  1  0.148400  0.798400  0.121500  1.0
  C  C36  1  0.351600  0.201600  0.621500  1.0
  C  C37  1  0.350000  0.201600  0.121500  1.0
  C  C38  1  0.150000  0.798400  0.621500  1.0
  C  C39  1  0.851600  0.201600  0.878500  1.0
  C  C40  1  0.648400  0.798400  0.378500  1.0
  C  C41  1  0.713800  0.820000  0.829500  1.0
  C  C42  1  0.786200  0.180000  0.329500  1.0
  C  C43  1  0.106200  0.820000  0.170500  1.0
  C  C44  1  0.393800  0.180000  0.670500  1.0
  C  C45  1  0.286200  0.180000  0.170500  1.0
  C  C46  1  0.213800  0.820000  0.670500  1.0
  C  C47  1  0.893800  0.180000  0.829500  1.0
  C  C48  1  0.606200  0.820000  0.329500  1.0
  C  C49  1  0.855700  0.872800  0.827400  1.0
  C  C50  1  0.644300  0.127200  0.327400  1.0
  C  C51  1  0.017100  0.872800  0.172600  1.0
  C  C52  1  0.482900  0.127200  0.672600  1.0
  C  C53  1  0.144300  0.127200  0.172600  1.0
  C  C54  1  0.355700  0.872800  0.672600  1.0
  C  C55  1  0.982900  0.127200  0.827400  1.0
  C  C56  1  0.517100  0.872800  0.327400  1.0
  C  C57  1  0.620000  0.787800  0.781500  1.0
  C  C58  1  0.880000  0.212200  0.281500  1.0
  C  C59  1  0.167800  0.787800  0.218500  1.0
  C  C60  1  0.332200  0.212200  0.718500  1.0
  C  C61  1  0.380000  0.212200  0.218500  1.0
  C  C62  1  0.120000  0.787800  0.718500  1.0
  C  C63  1  0.832200  0.212200  0.781500  1.0
  C  C64  1  0.667800  0.787800  0.281500  1.0
  C  C65  1  0.627000  0.754000  0.686900  1.0
  C  C66  1  0.873000  0.246000  0.186900  1.0
  C  C67  1  0.127000  0.754000  0.313100  1.0
  C  C68  1  0.373000  0.246000  0.813100  1.0
  C  C69  1  0.373000  0.246000  0.313100  1.0
  C  C70  1  0.127000  0.754000  0.813100  1.0
  C  C71  1  0.873000  0.246000  0.686900  1.0
  C  C72  1  0.627000  0.754000  0.186900  1.0
  C  C73  1  0.486100  0.699200  0.681300  1.0
  C  C74  1  0.013900  0.300800  0.181300  1.0
  C  C75  1  0.213100  0.699200  0.318700  1.0
  C  C76  1  0.286900  0.300800  0.818700  1.0
  C  C77  1  0.513900  0.300800  0.318700  1.0
  C  C78  1  0.986100  0.699200  0.818700  1.0
  C  C79  1  0.786900  0.300800  0.681300  1.0
  C  C80  1  0.713100  0.699200  0.181300  1.0
  C  C81  1  0.426300  0.682000  0.630800  1.0
  C  C82  1  0.073700  0.318000  0.130800  1.0
  C  C83  1  0.255700  0.682000  0.369200  1.0
  C  C84  1  0.244300  0.318000  0.869200  1.0
  C  C85  1  0.573700  0.318000  0.369200  1.0
  C  C86  1  0.926300  0.682000  0.869200  1.0
  C  C87  1  0.744300  0.318000  0.630800  1.0
  C  C88  1  0.755700  0.682000  0.130800  1.0
  C  C89  1  0.510800  0.715800  0.586900  1.0
  C  C90  1  0.989200  0.284200  0.086900  1.0
  C  C91  1  0.205000  0.715800  0.413100  1.0
  C  C92  1  0.295000  0.284200  0.913100  1.0
  C  C93  1  0.489200  0.284200  0.413100  1.0
  C  C94  1  0.010800  0.715800  0.913100  1.0
  C  C95  1  0.795000  0.284200  0.586900  1.0
  C  C96  1  0.705000  0.715800  0.086900  1.0
  C  C97  1  0.650900  0.769600  0.593100  1.0
  C  C98  1  0.849100  0.230400  0.093100  1.0
  C  C99  1  0.118700  0.769600  0.406900  1.0
  C  C100  1  0.381300  0.230400  0.906900  1.0
  C  C101  1  0.349100  0.230400  0.406900  1.0
  C  C102  1  0.150900  0.769600  0.906900  1.0
  C  C103  1  0.881300  0.230400  0.593100  1.0
  C  C104  1  0.618700  0.769600  0.093100  1.0
  C  C105  1  0.710000  0.788600  0.643100  1.0
  C  C106  1  0.790000  0.211400  0.143100  1.0
  C  C107  1  0.078600  0.788600  0.356900  1.0
  C  C108  1  0.421400  0.211400  0.856900  1.0
  C  C109  1  0.290000  0.211400  0.356900  1.0
  C  C110  1  0.210000  0.788600  0.856900  1.0
  C  C111  1  0.921400  0.211400  0.643100  1.0
  C  C112  1  0.578600  0.788600  0.143100  1.0
  C  C113  1  0.367100  0.628600  0.519800  1.0
  C  C114  1  0.132900  0.371400  0.019800  1.0
  C  C115  1  0.261500  0.628600  0.480200  1.0
  C  C116  1  0.238500  0.371400  0.980200  1.0
  C  C117  1  0.632900  0.371400  0.480200  1.0
  C  C118  1  0.867100  0.628600  0.980200  1.0
  C  C119  1  0.738500  0.371400  0.519800  1.0
  C  C120  1  0.761500  0.628600  0.019800  1.0
  C  C121  1  0.382000  0.556600  0.539700  1.0
  C  C122  1  0.118000  0.443400  0.039700  1.0
  C  C123  1  0.174600  0.556600  0.460300  1.0
  C  C124  1  0.325400  0.443400  0.960300  1.0
  C  C125  1  0.618000  0.443400  0.460300  1.0
  C  C126  1  0.882000  0.556600  0.960300  1.0
  C  C127  1  0.825400  0.443400  0.539700  1.0
  C  C128  1  0.674600  0.556600  0.039700  1.0
  C  C129  1  0.291900  0.479000  0.519500  1.0
  C  C130  1  0.208100  0.521000  0.019500  1.0
  C  C131  1  0.187100  0.479000  0.480500  1.0
  C  C132  1  0.312900  0.521000  0.980500  1.0
  C  C133  1  0.708100  0.521000  0.480500  1.0
  C  C134  1  0.791900  0.479000  0.980500  1.0
  C  C135  1  0.812900  0.521000  0.519500  1.0
  C  C136  1  0.687100  0.479000  0.019500  1.0
  C  C137  1  0.307000  0.401800  0.538400  1.0
  C  C138  1  0.193000  0.598200  0.038400  1.0
  C  C139  1  0.094800  0.401800  0.461600  1.0
  C  C140  1  0.405200  0.598200  0.961600  1.0
  C  C141  1  0.693000  0.598200  0.461600  1.0
  C  C142  1  0.807000  0.401800  0.961600  1.0
  C  C143  1  0.905200  0.598200  0.538400  1.0
  C  C144  1  0.594800  0.401800  0.038400  1.0
  C  C145  1  0.218500  0.329400  0.519500  1.0
  C  C146  1  0.281500  0.670600  0.019500  1.0
  C  C147  1  0.110900  0.329400  0.480500  1.0
  C  C148  1  0.389100  0.670600  0.980500  1.0
  C  C149  1  0.781500  0.670600  0.480500  1.0
  C  C150  1  0.718500  0.329400  0.980500  1.0
  C  C151  1  0.889100  0.670600  0.519500  1.0
  C  C152  1  0.610900  0.329400  0.019500  1.0
  H  H153  1  0.539500  0.477200  0.838900  1
  H  H154  1  0.960500  0.522800  0.338900  1
  H  H155  1  0.937700  0.477200  0.161100  1
  H  H156  1  0.562300  0.522800  0.661100  1
  H  H157  1  0.460500  0.522800  0.161100  1
  H  H158  1  0.039500  0.477200  0.661100  1
  H  H159  1  0.062300  0.522800  0.838900  1
  H  H160  1  0.437700  0.477200  0.338900  1
  H  H161  1  0.640000  0.571400  0.839700  1
  H  H162  1  0.860000  0.428600  0.339700  1
  H  H163  1  0.931400  0.571400  0.160300  1
  H  H164  1  0.568600  0.428600  0.660300  1
  H  H165  1  0.360000  0.428600  0.160300  1
  H  H166  1  0.140000  0.571400  0.660300  1
  H  H167  1  0.068600  0.428600  0.839700  1
  H  H168  1  0.431400  0.571400  0.339700  1
  H  H169  1  0.605200  0.522200  0.784800  1
  H  H170  1  0.894800  0.477800  0.284800  1
  H  H171  1  0.917000  0.522200  0.215200  1
  H  H172  1  0.583000  0.477800  0.715200  1
  H  H173  1  0.394800  0.477800  0.215200  1
  H  H174  1  0.105200  0.522200  0.715200  1
  H  H175  1  0.083000  0.477800  0.784800  1
  H  H176  1  0.417000  0.522200  0.284800  1
  H  H177  1  0.788100  0.778600  0.741300  1.0
  H  H178  1  0.711900  0.221400  0.241300  1.0
  H  H179  1  0.990500  0.778600  0.258700  1.0
  H  H180  1  0.509500  0.221400  0.758700  1.0
  H  H181  1  0.211900  0.221400  0.258700  1.0
  H  H182  1  0.288100  0.778600  0.758700  1.0
  H  H183  1  0.009500  0.221400  0.741300  1.0
  H  H184  1  0.490500  0.778600  0.241300  1.0
  H  H185  1  0.923300  0.903200  0.949600  1.0
  H  H186  1  0.576700  0.096800  0.449600  1.0
  H  H187  1  0.979900  0.903200  0.050400  1.0
  H  H188  1  0.520100  0.096800  0.550400  1.0
  H  H189  1  0.076700  0.096800  0.050400  1.0
  H  H190  1  0.423300  0.903200  0.550400  1.0
  H  H191  1  0.020100  0.096800  0.949600  1.0
  H  H192  1  0.479900  0.903200  0.449600  1.0
  H  H193  1  0.688400  0.813000  0.957900  1.0
  H  H194  1  0.811600  0.187000  0.457900  1.0
  H  H195  1  0.124600  0.813000  0.042100  1.0
  H  H196  1  0.375400  0.187000  0.542100  1.0
  H  H197  1  0.311600  0.187000  0.042100  1.0
  H  H198  1  0.188400  0.813000  0.542100  1.0
  H  H199  1  0.875400  0.187000  0.957900  1.0
  H  H200  1  0.624600  0.813000  0.457900  1.0
  H  H201  1  0.551500  0.762600  0.881200  1.0
  H  H202  1  0.948500  0.237400  0.381200  1.0
  H  H203  1  0.211100  0.762600  0.118800  1.0
  H  H204  1  0.288900  0.237400  0.618800  1.0
  H  H205  1  0.448500  0.237400  0.118800  1.0
  H  H206  1  0.051500  0.762600  0.618800  1.0
  H  H207  1  0.788900  0.237400  0.881200  1.0
  H  H208  1  0.711100  0.762600  0.381200  1.0
  H  H209  1  0.900800  0.887200  0.793700  1.0
  H  H210  1  0.599200  0.112800  0.293700  1.0
  H  H211  1  0.986400  0.887200  0.206300  1.0
  H  H212  1  0.513600  0.112800  0.706300  1.0
  H  H213  1  0.099200  0.112800  0.206300  1.0
  H  H214  1  0.400800  0.887200  0.706300  1.0
  H  H215  1  0.013600  0.112800  0.793700  1.0
  H  H216  1  0.486400  0.887200  0.293700  1.0
  H  H217  1  0.431400  0.673800  0.711500  1.0
  H  H218  1  0.068600  0.326200  0.211500  1.0
  H  H219  1  0.242400  0.673800  0.288500  1.0
  H  H220  1  0.257600  0.326200  0.788500  1.0
  H  H221  1  0.568600  0.326200  0.288500  1.0
  H  H222  1  0.931400  0.673800  0.788500  1.0
  H  H223  1  0.757600  0.326200  0.711500  1.0
  H  H224  1  0.742400  0.673800  0.211500  1.0
  H  H225  1  0.327800  0.647400  0.626400  1.0
  H  H226  1  0.172200  0.352600  0.126400  1.0
  H  H227  1  0.319600  0.647400  0.373600  1.0
  H  H228  1  0.180400  0.352600  0.873600  1.0
  H  H229  1  0.672200  0.352600  0.373600  1.0
  H  H230  1  0.827800  0.647400  0.873600  1.0
  H  H231  1  0.680400  0.352600  0.626400  1.0
  H  H232  1  0.819600  0.647400  0.126400  1.0
  H  H233  1  0.707000  0.793800  0.562800  1.0
  H  H234  1  0.793000  0.206200  0.062800  1.0
  H  H235  1  0.086800  0.793800  0.437200  1.0
  H  H236  1  0.413200  0.206200  0.937200  1.0
  H  H237  1  0.293000  0.206200  0.437200  1.0
  H  H238  1  0.207000  0.793800  0.937200  1.0
  H  H239  1  0.913200  0.206200  0.562800  1.0
  H  H240  1  0.586800  0.793800  0.062800  1.0
  H  H241  1  0.807100  0.825200  0.647500  1.0
  H  H242  1  0.692900  0.174800  0.147500  1.0
  H  H243  1  0.018100  0.825200  0.352500  1.0
  H  H244  1  0.481900  0.174800  0.852500  1.0
  H  H245  1  0.192900  0.174800  0.352500  1.0
  H  H246  1  0.307100  0.825200  0.852500  1.0
  H  H247  1  0.981900  0.174800  0.647500  1.0
  H  H248  1  0.518100  0.825200  0.147500  1.0
  H  H249  1  0.452300  0.557400  0.567000  1.0
  H  H250  1  0.047700  0.442600  0.067000  1.0
  H  H251  1  0.105100  0.557400  0.433000  1.0
  H  H252  1  0.394900  0.442600  0.933000  1.0
  H  H253  1  0.547700  0.442600  0.433000  1.0
  H  H254  1  0.952300  0.557400  0.933000  1.0
  H  H255  1  0.894900  0.442600  0.567000  1.0
  H  H256  1  0.605100  0.557400  0.067000  1.0
  H  H257  1  0.379800  0.401200  0.564500  1.0
  H  H258  1  0.120200  0.598800  0.064500  1.0
  H  H259  1  0.021400  0.401200  0.435500  1.0
  H  H260  1  0.478600  0.598800  0.935500  1.0
  H  H261  1  0.620200  0.598800  0.435500  1.0
  H  H262  1  0.879800  0.401200  0.935500  1.0
  H  H263  1  0.978600  0.598800  0.564500  1.0
  H  H264  1  0.521400  0.401200  0.064500  1.0
  H  H265  1  0.229000  0.278200  0.532600  1.0
  H  H266  1  0.271000  0.721800  0.032600  1.0
  H  H267  1  0.049200  0.278200  0.467400  1.0
  H  H268  1  0.450800  0.721800  0.967400  1.0
  H  H269  1  0.771000  0.721800  0.467400  1.0
  H  H270  1  0.729000  0.278200  0.967400  1.0
  H  H271  1  0.950800  0.721800  0.532600  1.0
  H  H272  1  0.549200  0.278200  0.032600  1.0
  I  I273  1  0.270240  1.000000  0.953830  1.0
  I  I274  1  0.229760  0.000000  0.453830  1.0
  I  I275  1  0.729760  0.000000  0.046170  1.0
  I  I276  1  0.770240  0.000000  0.546170  1.0
  I  I277  1  0.239260  0.000000  0.776920  1.0
  I  I278  1  0.260740  0.000000  0.276920  1.0
  I  I279  1  0.760740  1.000000  0.223080  1.0
  I  I280  1  0.739260  0.000000  0.723080  1.0
  N  N281  1  0.279200  0.574600  0.819400  1
  N  N282  1  0.220800  0.425400  0.319400  1
  N  N283  1  0.295400  0.574600  0.180600  1
  N  N284  1  0.204600  0.425400  0.680600  1
  N  N285  1  0.720800  0.425400  0.180600  1
  N  N286  1  0.779200  0.574600  0.680600  1
  N  N287  1  0.704600  0.425400  0.819400  1
  N  N288  1  0.795400  0.574600  0.319400  1
  N  N289  1  0.932990  0.904580  0.870860  1.0
  N  N290  1  0.567010  0.095420  0.370860  1.0
  N  N291  1  0.971590  0.904580  0.129140  1.0
  N  N292  1  0.528410  0.095420  0.629140  1.0
  N  N293  1  0.067010  0.095420  0.129140  1.0
  N  N294  1  0.432990  0.904580  0.629140  1.0
  N  N295  1  0.028410  0.095420  0.870860  1.0
  N  N296  1  0.471590  0.904580  0.370860  1.0
  N  N297  1  0.692440  0.773880  0.738240  1.0
  N  N298  1  0.807560  0.226120  0.238240  1.0
  N  N299  1  0.081440  0.773880  0.261760  1.0
  N  N300  1  0.418560  0.226120  0.761760  1.0
  N  N301  1  0.307560  0.226120  0.261760  1.0
  N  N302  1  0.192440  0.773880  0.761760  1.0
  N  N303  1  0.918560  0.226120  0.738240  1.0
  N  N304  1  0.581440  0.773880  0.238240  1.0
  O  O305  1  0.485540  0.775080  0.783940  1.0
  O  O306  1  0.014460  0.224920  0.283940  1.0
  O  O307  1  0.289540  0.775080  0.216060  1.0
  O  O308  1  0.210460  0.224920  0.716060  1.0
  O  O309  1  0.514460  0.224920  0.216060  1.0
  O  O310  1  0.985540  0.775080  0.716060  1.0
  O  O311  1  0.710460  0.224920  0.783940  1.0
  O  O312  1  0.789540  0.775080  0.283940  1.0
  O  O313  1  0.452890  0.705980  0.535680  1.0
  O  O314  1  0.047110  0.294020  0.035680  1.0
  O  O315  1  0.253090  0.705980  0.464320  1.0
  O  O316  1  0.246910  0.294020  0.964320  1.0
  O  O317  1  0.547110  0.294020  0.464320  1.0
  O  O318  1  0.952890  0.705980  0.964320  1.0
  O  O319  1  0.746910  0.294020  0.535680  1.0
  O  O320  1  0.753090  0.705980  0.035680  1.0
  Zn  Zn321  1  0.129240  1.000000  0.867440  1.0
  Zn  Zn322  1  0.370760  0.000000  0.367440  1.0
  Zn  Zn323  1  0.870760  1.000000  0.132560  1.0
  Zn  Zn324  1  0.629240  0.000000  0.632560  1.0
