# generated using pymatgen
data_ZnH36C41Br2N7O4
_symmetry_space_group_name_H-M   'P 1'
_cell_length_a   9.55670000
_cell_length_b   16.90032675
_cell_length_c   25.27880000
_cell_angle_alpha   90.00000000
_cell_angle_beta   90.00000000
_cell_angle_gamma   106.42363374
_symmetry_Int_Tables_number   1
_chemical_formula_structural   ZnH36C41Br2N7O4
_chemical_formula_sum   'Zn4 H144 C164 Br8 N28 O16'
_cell_volume   3916.22391446
_cell_formula_units_Z   4
loop_
 _symmetry_equiv_pos_site_id
 _symmetry_equiv_pos_as_xyz
  1  'x, y, z'
loop_
 _atom_site_type_symbol
 _atom_site_label
 _atom_site_symmetry_multiplicity
 _atom_site_fract_x
 _atom_site_fract_y
 _atom_site_fract_z
 _atom_site_occupancy
  Br  Br1  1  0.207450  0.000000  0.547180  1.0
  Br  Br2  1  0.292550  0.000000  0.047180  1.0
  Br  Br3  1  0.792550  0.000000  0.452820  1.0
  Br  Br4  1  0.707450  0.000000  0.952820  1.0
  Br  Br5  1  0.215950  0.000000  0.714000  1.0
  Br  Br6  1  0.284050  0.000000  0.214000  1.0
  Br  Br7  1  0.784050  0.000000  0.286000  1.0
  Br  Br8  1  0.715950  0.000000  0.786000  1.0
  C  C9  1  0.338600  0.420200  0.816700  1
  C  C10  1  0.161400  0.579800  0.316700  1
  C  C11  1  0.081600  0.420200  0.183300  1
  C  C12  1  0.418400  0.579800  0.683300  1
  C  C13  1  0.661400  0.579800  0.183300  1
  C  C14  1  0.838600  0.420200  0.683300  1
  C  C15  1  0.918400  0.579800  0.816700  1
  C  C16  1  0.581600  0.420200  0.316700  1
  C  C17  1  0.173600  0.422600  0.823000  1
  C  C18  1  0.326400  0.577400  0.323000  1
  C  C19  1  0.249000  0.422600  0.177000  1
  C  C20  1  0.251000  0.577400  0.677000  1
  C  C21  1  0.826400  0.577400  0.177000  1
  C  C22  1  0.673600  0.422600  0.677000  1
  C  C23  1  0.751000  0.577400  0.823000  1
  C  C24  1  0.749000  0.422600  0.323000  1
  C  C25  1  0.998200  0.920400  0.953900  1
  C  C26  1  0.501800  0.079600  0.453900  1
  C  C27  1  0.922200  0.920400  0.046100  1
  C  C28  1  0.577800  0.079600  0.546100  1
  C  C29  1  0.001800  0.079600  0.046100  1
  C  C30  1  0.498200  0.920400  0.546100  1
  C  C31  1  0.077800  0.079600  0.953900  1
  C  C32  1  0.422200  0.920400  0.453900  1
  C  C33  1  0.066000  0.000000  0.913100  1
  C  C34  1  0.434000  0.000000  0.413100  1
  C  C35  1  0.934000  0.000000  0.086900  1
  C  C36  1  0.566000  0.000000  0.586900  1
  C  C37  1  0.855300  0.875000  0.583300  1.0
  C  C38  1  0.644700  0.125000  0.083300  1.0
  C  C39  1  0.019700  0.875000  0.416700  1.0
  C  C40  1  0.480300  0.125000  0.916700  1.0
  C  C41  1  0.144700  0.125000  0.416700  1.0
  C  C42  1  0.355300  0.875000  0.916700  1.0
  C  C43  1  0.980300  0.125000  0.583300  1.0
  C  C44  1  0.519700  0.875000  0.083300  1.0
  C  C45  1  0.721400  0.819800  0.578200  1.0
  C  C46  1  0.778600  0.180200  0.078200  1.0
  C  C47  1  0.098400  0.819800  0.421800  1.0
  C  C48  1  0.401600  0.180200  0.921800  1.0
  C  C49  1  0.278600  0.180200  0.421800  1.0
  C  C50  1  0.221400  0.819800  0.921800  1.0
  C  C51  1  0.901600  0.180200  0.578200  1.0
  C  C52  1  0.598400  0.819800  0.078200  1.0
  C  C53  1  0.638700  0.792800  0.623500  1.0
  C  C54  1  0.861300  0.207200  0.123500  1.0
  C  C55  1  0.154100  0.792800  0.376500  1.0
  C  C56  1  0.345900  0.207200  0.876500  1.0
  C  C57  1  0.361300  0.207200  0.376500  1.0
  C  C58  1  0.138700  0.792800  0.876500  1.0
  C  C59  1  0.845900  0.207200  0.623500  1.0
  C  C60  1  0.654100  0.792800  0.123500  1.0
  C  C61  1  0.697700  0.820600  0.671800  1.0
  C  C62  1  0.802300  0.179400  0.171800  1.0
  C  C63  1  0.122900  0.820600  0.328200  1.0
  C  C64  1  0.377100  0.179400  0.828200  1.0
  C  C65  1  0.302300  0.179400  0.328200  1.0
  C  C66  1  0.197700  0.820600  0.828200  1.0
  C  C67  1  0.877100  0.179400  0.671800  1.0
  C  C68  1  0.622900  0.820600  0.171800  1.0
  C  C69  1  0.834900  0.876400  0.673900  1.0
  C  C70  1  0.665100  0.123600  0.173900  1.0
  C  C71  1  0.041500  0.876400  0.326100  1.0
  C  C72  1  0.458500  0.123600  0.826100  1.0
  C  C73  1  0.165100  0.123600  0.326100  1.0
  C  C74  1  0.334900  0.876400  0.826100  1.0
  C  C75  1  0.958500  0.123600  0.673900  1.0
  C  C76  1  0.541500  0.876400  0.173900  1.0
  C  C77  1  0.606800  0.792800  0.720300  1.0
  C  C78  1  0.893200  0.207200  0.220300  1.0
  C  C79  1  0.186000  0.792800  0.279700  1.0
  C  C80  1  0.314000  0.207200  0.779700  1.0
  C  C81  1  0.393200  0.207200  0.279700  1.0
  C  C82  1  0.106800  0.792800  0.779700  1.0
  C  C83  1  0.814000  0.207200  0.720300  1.0
  C  C84  1  0.686000  0.792800  0.220300  1.0
  C  C85  1  0.618100  0.760600  0.815000  1.0
  C  C86  1  0.881900  0.239400  0.315000  1.0
  C  C87  1  0.142500  0.760600  0.185000  1.0
  C  C88  1  0.357500  0.239400  0.685000  1.0
  C  C89  1  0.381900  0.239400  0.185000  1.0
  C  C90  1  0.118100  0.760600  0.685000  1.0
  C  C91  1  0.857500  0.239400  0.815000  1.0
  C  C92  1  0.642500  0.760600  0.315000  1.0
  C  C93  1  0.702000  0.792800  0.858300  1.0
  C  C94  1  0.798000  0.207200  0.358300  1.0
  C  C95  1  0.090800  0.792800  0.141700  1.0
  C  C96  1  0.409200  0.207200  0.641700  1.0
  C  C97  1  0.298000  0.207200  0.141700  1.0
  C  C98  1  0.202000  0.792800  0.641700  1.0
  C  C99  1  0.909200  0.207200  0.858300  1.0
  C  C100  1  0.590800  0.792800  0.358300  1.0
  C  C101  1  0.649200  0.773200  0.908800  1.0
  C  C102  1  0.850800  0.226800  0.408800  1.0
  C  C103  1  0.124000  0.773200  0.091200  1.0
  C  C104  1  0.376000  0.226800  0.591200  1.0
  C  C105  1  0.350800  0.226800  0.091200  1.0
  C  C106  1  0.149200  0.773200  0.591200  1.0
  C  C107  1  0.876000  0.226800  0.908800  1.0
  C  C108  1  0.624000  0.773200  0.408800  1.0
  C  C109  1  0.509700  0.720400  0.915500  1.0
  C  C110  1  0.990300  0.279600  0.415500  1.0
  C  C111  1  0.210700  0.720400  0.084500  1.0
  C  C112  1  0.289300  0.279600  0.584500  1.0
  C  C113  1  0.490300  0.279600  0.084500  1.0
  C  C114  1  0.009700  0.720400  0.584500  1.0
  C  C115  1  0.789300  0.279600  0.915500  1.0
  C  C116  1  0.710700  0.720400  0.415500  1.0
  C  C117  1  0.424700  0.687800  0.872200  1.0
  C  C118  1  0.075300  0.312200  0.372200  1.0
  C  C119  1  0.263100  0.687800  0.127800  1.0
  C  C120  1  0.236900  0.312200  0.627800  1.0
  C  C121  1  0.575300  0.312200  0.127800  1.0
  C  C122  1  0.924700  0.687800  0.627800  1.0
  C  C123  1  0.736900  0.312200  0.872200  1.0
  C  C124  1  0.763100  0.687800  0.372200  1.0
  C  C125  1  0.480000  0.707800  0.821900  1.0
  C  C126  1  0.020000  0.292200  0.321900  1.0
  C  C127  1  0.227800  0.707800  0.178100  1.0
  C  C128  1  0.272200  0.292200  0.678100  1.0
  C  C129  1  0.520000  0.292200  0.178100  1.0
  C  C130  1  0.980000  0.707800  0.678100  1.0
  C  C131  1  0.772200  0.292200  0.821900  1.0
  C  C132  1  0.727800  0.707800  0.321900  1.0
  C  C133  1  0.369100  0.631200  0.980600  1.0
  C  C134  1  0.130900  0.368800  0.480600  1.0
  C  C135  1  0.262100  0.631200  0.019400  1.0
  C  C136  1  0.237900  0.368800  0.519400  1.0
  C  C137  1  0.630900  0.368800  0.019400  1.0
  C  C138  1  0.869100  0.631200  0.519400  1.0
  C  C139  1  0.737900  0.368800  0.980600  1.0
  C  C140  1  0.762100  0.631200  0.480600  1.0
  C  C141  1  0.384700  0.558400  0.962600  1.0
  C  C142  1  0.115300  0.441600  0.462600  1.0
  C  C143  1  0.173700  0.558400  0.037400  1.0
  C  C144  1  0.326300  0.441600  0.537400  1.0
  C  C145  1  0.615300  0.441600  0.037400  1.0
  C  C146  1  0.884700  0.558400  0.537400  1.0
  C  C147  1  0.826300  0.441600  0.962600  1.0
  C  C148  1  0.673700  0.558400  0.462600  1.0
  C  C149  1  0.296900  0.482600  0.980000  1.0
  C  C150  1  0.203100  0.517400  0.480000  1.0
  C  C151  1  0.185700  0.482600  0.020000  1.0
  C  C152  1  0.314300  0.517400  0.520000  1.0
  C  C153  1  0.703100  0.517400  0.020000  1.0
  C  C154  1  0.796900  0.482600  0.520000  1.0
  C  C155  1  0.814300  0.517400  0.980000  1.0
  C  C156  1  0.685700  0.482600  0.480000  1.0
  C  C157  1  0.308000  0.407000  0.962400  1.0
  C  C158  1  0.192000  0.593000  0.462400  1.0
  C  C159  1  0.099000  0.407000  0.037600  1.0
  C  C160  1  0.401000  0.593000  0.537600  1.0
  C  C161  1  0.692000  0.593000  0.037600  1.0
  C  C162  1  0.808000  0.407000  0.537600  1.0
  C  C163  1  0.901000  0.593000  0.962400  1.0
  C  C164  1  0.599000  0.407000  0.462400  1.0
  C  C165  1  0.220400  0.335800  0.980400  1.0
  C  C166  1  0.279600  0.664200  0.480400  1.0
  C  C167  1  0.115400  0.335800  0.019600  1.0
  C  C168  1  0.384600  0.664200  0.519600  1.0
  C  C169  1  0.779600  0.664200  0.019600  1.0
  C  C170  1  0.720400  0.335800  0.519600  1.0
  C  C171  1  0.884600  0.664200  0.980400  1.0
  C  C172  1  0.615400  0.335800  0.480400  1.0
  H  H173  1  0.117500  0.391000  0.794700  1
  H  H174  1  0.382500  0.609000  0.294700  1
  H  H175  1  0.273500  0.391000  0.205300  1
  H  H176  1  0.226500  0.609000  0.705300  1
  H  H177  1  0.882500  0.609000  0.205300  1
  H  H178  1  0.617500  0.391000  0.705300  1
  H  H179  1  0.726500  0.609000  0.794700  1
  H  H180  1  0.773500  0.391000  0.294700  1
  H  H181  1  0.136900  0.397800  0.856300  1
  H  H182  1  0.363100  0.602200  0.356300  1
  H  H183  1  0.260900  0.397800  0.143700  1
  H  H184  1  0.239100  0.602200  0.643700  1
  H  H185  1  0.863100  0.602200  0.143700  1
  H  H186  1  0.636900  0.397800  0.643700  1
  H  H187  1  0.739100  0.602200  0.856300  1
  H  H188  1  0.760900  0.397800  0.356300  1
  H  H189  1  0.165800  0.478000  0.821800  1
  H  H190  1  0.334200  0.522000  0.321800  1
  H  H191  1  0.312200  0.478000  0.178200  1
  H  H192  1  0.187800  0.522000  0.678200  1
  H  H193  1  0.834200  0.522000  0.178200  1
  H  H194  1  0.665800  0.478000  0.678200  1
  H  H195  1  0.687800  0.522000  0.821800  1
  H  H196  1  0.812200  0.478000  0.321800  1
  H  H197  1  0.089600  0.979400  0.879800  1
  H  H198  1  0.410400  0.020600  0.379800  1
  H  H199  1  0.889800  0.979400  0.120200  1
  H  H200  1  0.610200  0.020600  0.620200  1
  H  H201  1  0.910400  0.020600  0.120200  1
  H  H202  1  0.589600  0.979400  0.620200  1
  H  H203  1  0.110200  0.020600  0.879800  1
  H  H204  1  0.389800  0.979400  0.379800  1
  H  H205  1  0.995200  0.029600  0.907700  1
  H  H206  1  0.504800  0.970400  0.407700  1
  H  H207  1  0.034400  0.029600  0.092300  1
  H  H208  1  0.465600  0.970400  0.592300  1
  H  H209  1  0.004800  0.970400  0.092300  1
  H  H210  1  0.495200  0.029600  0.592300  1
  H  H211  1  0.965600  0.970400  0.907700  1
  H  H212  1  0.534400  0.029600  0.407700  1
  H  H213  1  0.153000  0.036400  0.928200  1
  H  H214  1  0.347000  0.963600  0.428200  1
  H  H215  1  0.883400  0.036400  0.071800  1
  H  H216  1  0.616600  0.963600  0.571800  1
  H  H217  1  0.847000  0.963600  0.071800  1
  H  H218  1  0.653000  0.036400  0.571800  1
  H  H219  1  0.116600  0.963600  0.928200  1
  H  H220  1  0.383400  0.036400  0.428200  1
  H  H221  1  0.773600  0.787800  0.760400  1.0
  H  H222  1  0.726400  0.212200  0.260400  1.0
  H  H223  1  0.014200  0.787800  0.239600  1.0
  H  H224  1  0.485800  0.212200  0.739600  1.0
  H  H225  1  0.226400  0.212200  0.239600  1.0
  H  H226  1  0.273600  0.787800  0.739600  1.0
  H  H227  1  0.985800  0.212200  0.760400  1.0
  H  H228  1  0.514200  0.787800  0.260400  1.0
  H  H229  1  0.910200  0.893600  0.552100  1.0
  H  H230  1  0.589800  0.106400  0.052100  1.0
  H  H231  1  0.983400  0.893600  0.447900  1.0
  H  H232  1  0.516600  0.106400  0.947900  1.0
  H  H233  1  0.089800  0.106400  0.447900  1.0
  H  H234  1  0.410200  0.893600  0.947900  1.0
  H  H235  1  0.016600  0.106400  0.552100  1.0
  H  H236  1  0.483400  0.893600  0.052100  1.0
  H  H237  1  0.684900  0.800000  0.544400  1.0
  H  H238  1  0.815100  0.200000  0.044400  1.0
  H  H239  1  0.115100  0.800000  0.455600  1.0
  H  H240  1  0.384900  0.200000  0.955600  1.0
  H  H241  1  0.315100  0.200000  0.455600  1.0
  H  H242  1  0.184900  0.800000  0.955600  1.0
  H  H243  1  0.884900  0.200000  0.544400  1.0
  H  H244  1  0.615100  0.800000  0.044400  1.0
  H  H245  1  0.543300  0.755800  0.620900  1.0
  H  H246  1  0.956700  0.244200  0.120900  1.0
  H  H247  1  0.212500  0.755800  0.379100  1.0
  H  H248  1  0.287500  0.244200  0.879100  1.0
  H  H249  1  0.456700  0.244200  0.379100  1.0
  H  H250  1  0.043300  0.755800  0.879100  1.0
  H  H251  1  0.787500  0.244200  0.620900  1.0
  H  H252  1  0.712500  0.755800  0.120900  1.0
  H  H253  1  0.875100  0.895800  0.707500  1.0
  H  H254  1  0.624900  0.104200  0.207500  1.0
  H  H255  1  0.020700  0.895800  0.292500  1.0
  H  H256  1  0.479300  0.104200  0.792500  1.0
  H  H257  1  0.124900  0.104200  0.292500  1.0
  H  H258  1  0.375100  0.895800  0.792500  1.0
  H  H259  1  0.979300  0.104200  0.707500  1.0
  H  H260  1  0.520700  0.895800  0.207500  1.0
  H  H261  1  0.797300  0.828800  0.853300  1.0
  H  H262  1  0.702700  0.171200  0.353300  1.0
  H  H263  1  0.031500  0.828800  0.146700  1.0
  H  H264  1  0.468500  0.171200  0.646700  1.0
  H  H265  1  0.202700  0.171200  0.146700  1.0
  H  H266  1  0.297300  0.828800  0.646700  1.0
  H  H267  1  0.968500  0.171200  0.853300  1.0
  H  H268  1  0.531500  0.828800  0.353300  1.0
  H  H269  1  0.707500  0.795800  0.938600  1.0
  H  H270  1  0.792500  0.204200  0.438600  1.0
  H  H271  1  0.088300  0.795800  0.061400  1.0
  H  H272  1  0.411700  0.204200  0.561400  1.0
  H  H273  1  0.292500  0.204200  0.061400  1.0
  H  H274  1  0.207500  0.795800  0.561400  1.0
  H  H275  1  0.911700  0.204200  0.938600  1.0
  H  H276  1  0.588300  0.795800  0.438600  1.0
  H  H277  1  0.329200  0.651800  0.877000  1.0
  H  H278  1  0.170800  0.348200  0.377000  1.0
  H  H279  1  0.322600  0.651800  0.123000  1.0
  H  H280  1  0.177400  0.348200  0.623000  1.0
  H  H281  1  0.670800  0.348200  0.123000  1.0
  H  H282  1  0.829200  0.651800  0.623000  1.0
  H  H283  1  0.677400  0.348200  0.877000  1.0
  H  H284  1  0.822600  0.651800  0.377000  1.0
  H  H285  1  0.422600  0.685200  0.792000  1.0
  H  H286  1  0.077400  0.314800  0.292000  1.0
  H  H287  1  0.262600  0.685200  0.208000  1.0
  H  H288  1  0.237400  0.314800  0.708000  1.0
  H  H289  1  0.577400  0.314800  0.208000  1.0
  H  H290  1  0.922600  0.685200  0.708000  1.0
  H  H291  1  0.737400  0.314800  0.792000  1.0
  H  H292  1  0.762600  0.685200  0.292000  1.0
  H  H293  1  0.458300  0.559400  0.937200  1.0
  H  H294  1  0.041700  0.440600  0.437200  1.0
  H  H295  1  0.101100  0.559400  0.062800  1.0
  H  H296  1  0.398900  0.440600  0.562800  1.0
  H  H297  1  0.541700  0.440600  0.062800  1.0
  H  H298  1  0.958300  0.559400  0.562800  1.0
  H  H299  1  0.898900  0.440600  0.937200  1.0
  H  H300  1  0.601100  0.559400  0.437200  1.0
  H  H301  1  0.380000  0.405600  0.936800  1.0
  H  H302  1  0.120000  0.594400  0.436800  1.0
  H  H303  1  0.025600  0.405600  0.063200  1.0
  H  H304  1  0.474400  0.594400  0.563200  1.0
  H  H305  1  0.620000  0.594400  0.063200  1.0
  H  H306  1  0.880000  0.405600  0.563200  1.0
  H  H307  1  0.974400  0.594400  0.936800  1.0
  H  H308  1  0.525600  0.405600  0.436800  1.0
  H  H309  1  0.228900  0.285000  0.966800  1.0
  H  H310  1  0.271100  0.715000  0.466800  1.0
  H  H311  1  0.056100  0.285000  0.033200  1.0
  H  H312  1  0.443900  0.715000  0.533200  1.0
  H  H313  1  0.771100  0.715000  0.033200  1.0
  H  H314  1  0.728900  0.285000  0.533200  1.0
  H  H315  1  0.943900  0.715000  0.966800  1.0
  H  H316  1  0.556100  0.285000  0.466800  1.0
  N  N317  1  0.500000  0.427000  0.818700  1
  N  N318  1  0.000000  0.573000  0.318700  1
  N  N319  1  0.927000  0.427000  0.181300  1
  N  N320  1  0.573000  0.573000  0.681300  1
  N  N321  1  0.500000  0.573000  0.181300  1
  N  N322  1  1.000000  0.427000  0.681300  1
  N  N323  1  0.073000  0.573000  0.818700  1
  N  N324  1  0.427000  0.427000  0.318700  1
  N  N325  1  0.936200  0.872400  0.000000  1
  N  N326  1  0.563800  0.127600  0.500000  1
  N  N327  1  0.063800  0.127600  0.000000  1
  N  N328  1  0.436200  0.872400  0.500000  1
  N  N329  1  0.913600  0.904400  0.630200  1.0
  N  N330  1  0.586400  0.095600  0.130200  1.0
  N  N331  1  0.990800  0.904400  0.369800  1.0
  N  N332  1  0.509200  0.095600  0.869800  1.0
  N  N333  1  0.086400  0.095600  0.369800  1.0
  N  N334  1  0.413600  0.904400  0.869800  1.0
  N  N335  1  0.009200  0.095600  0.630200  1.0
  N  N336  1  0.490800  0.904400  0.130200  1.0
  N  N337  1  0.679490  0.781780  0.763800  1.0
  N  N338  1  0.820510  0.218220  0.263800  1.0
  N  N339  1  0.102290  0.781780  0.236200  1.0
  N  N340  1  0.397710  0.218220  0.736200  1.0
  N  N341  1  0.320510  0.218220  0.236200  1.0
  N  N342  1  0.179490  0.781780  0.736200  1.0
  N  N343  1  0.897710  0.218220  0.763800  1.0
  N  N344  1  0.602290  0.781780  0.263800  1.0
  O  O345  1  0.474700  0.782000  0.718500  1.0
  O  O346  1  0.025300  0.218000  0.218500  1.0
  O  O347  1  0.307300  0.782000  0.281500  1.0
  O  O348  1  0.192700  0.218000  0.781500  1.0
  O  O349  1  0.525300  0.218000  0.281500  1.0
  O  O350  1  0.974700  0.782000  0.781500  1.0
  O  O351  1  0.692700  0.218000  0.718500  1.0
  O  O352  1  0.807300  0.782000  0.218500  1.0
  O  O353  1  0.457230  0.708060  0.966500  1.0
  O  O354  1  0.042770  0.291940  0.466500  1.0
  O  O355  1  0.250830  0.708060  0.033500  1.0
  O  O356  1  0.249170  0.291940  0.533500  1.0
  O  O357  1  0.542770  0.291940  0.033500  1.0
  O  O358  1  0.957230  0.708060  0.533500  1.0
  O  O359  1  0.749170  0.291940  0.966500  1.0
  O  O360  1  0.750830  0.708060  0.466500  1.0
  Zn  Zn361  1  0.104050  0.000000  0.631840  1.0
  Zn  Zn362  1  0.395950  0.000000  0.131840  1.0
  Zn  Zn363  1  0.895950  0.000000  0.368160  1.0
  Zn  Zn364  1  0.604050  0.000000  0.868160  1.0
