# generated using pymatgen
data_Al2H68C81N12Cl16O21
_symmetry_space_group_name_H-M   'P 1'
_cell_length_a   13.46823923
_cell_length_b   13.46823923
_cell_length_c   21.40440000
_cell_angle_alpha   91.11512422
_cell_angle_beta   91.11512422
_cell_angle_gamma   100.44152904
_symmetry_Int_Tables_number   1
_chemical_formula_structural   Al2H68C81N12Cl16O21
_chemical_formula_sum   'Al4 H136 C162 N24 Cl32 O42'
_cell_volume   3816.55693659
_cell_formula_units_Z   2
loop_
 _symmetry_equiv_pos_site_id
 _symmetry_equiv_pos_as_xyz
  1  'x, y, z'
loop_
 _atom_site_type_symbol
 _atom_site_label
 _atom_site_symmetry_multiplicity
 _atom_site_fract_x
 _atom_site_fract_y
 _atom_site_fract_z
 _atom_site_occupancy
  Al  Al1  1  0.214120  0.594400  0.395340  1.0
  Al  Al2  1  0.594400  0.214120  0.895340  1.0
  Al  Al3  1  0.785880  0.405600  0.604660  1.0
  Al  Al4  1  0.405600  0.785880  0.104660  1.0
  C  C5  1  0.884600  0.260000  0.340400  1
  C  C6  1  0.260000  0.884600  0.840400  1
  C  C7  1  0.115400  0.740000  0.659600  1
  C  C8  1  0.740000  0.115400  0.159600  1
  C  C9  1  0.079300  0.920700  0.250000  1
  C  C10  1  0.920700  0.079300  0.750000  1
  C  C11  1  0.891000  0.981400  0.501100  1
  C  C12  1  0.981400  0.891000  0.001100  1
  C  C13  1  0.109000  0.018600  0.498900  1
  C  C14  1  0.018600  0.109000  0.998900  1
  C  C15  1  0.978800  0.000000  0.522700  1
  C  C16  1  1.000000  0.978800  0.022700  1
  C  C17  1  0.021200  1.000000  0.477300  1
  C  C18  1  0.000000  0.021200  0.977300  1
  C  C19  1  0.920900  0.905500  0.465800  1
  C  C20  1  0.905500  0.920900  0.965800  1
  C  C21  1  0.079100  0.094500  0.534200  1
  C  C22  1  0.094500  0.079100  0.034200  1
  C  C23  1  0.916400  0.026200  0.461800  1
  C  C24  1  0.026200  0.916400  0.961800  1
  C  C25  1  0.083600  0.973800  0.538200  1
  C  C26  1  0.973800  0.083600  0.038200  1
  C  C27  1  0.959200  0.072800  0.459500  1
  C  C28  1  0.072800  0.959200  0.959500  1
  C  C29  1  0.040800  0.927200  0.540500  1
  C  C30  1  0.927200  0.040800  0.040500  1
  C  C31  1  0.966500  0.121900  0.506500  1
  C  C32  1  0.121900  0.966500  0.006500  1
  C  C33  1  0.033500  0.878100  0.493500  1
  C  C34  1  0.878100  0.033500  0.993500  1
  C  C35  1  0.982900  0.156100  0.530700  1
  C  C36  1  0.156100  0.982900  0.030700  1
  C  C37  1  0.017100  0.843900  0.469300  1
  C  C38  1  0.843900  0.017100  0.969300  1
  C  C39  1  0.388500  0.489300  0.519000  1.0
  C  C40  1  0.489300  0.388500  0.019000  1.0
  C  C41  1  0.611500  0.510700  0.481000  1.0
  C  C42  1  0.510700  0.611500  0.981000  1.0
  C  C43  1  0.900400  0.947000  0.466600  1.0
  C  C44  1  0.947000  0.900400  0.966600  1.0
  C  C45  1  0.099600  0.053000  0.533400  1.0
  C  C46  1  0.053000  0.099600  0.033400  1.0
  C  C47  1  0.910500  0.046900  0.504500  1.0
  C  C48  1  0.046900  0.910500  0.004500  1.0
  C  C49  1  0.089500  0.953100  0.495500  1.0
  C  C50  1  0.953100  0.089500  0.995500  1.0
  C  C51  1  0.993100  0.894900  0.493000  1.0
  C  C52  1  0.894900  0.993100  0.993000  1.0
  C  C53  1  0.006900  0.105100  0.507000  1.0
  C  C54  1  0.105100  0.006900  0.007000  1.0
  C  C55  1  0.372200  0.739200  0.577890  1.0
  C  C56  1  0.739200  0.372200  0.077890  1.0
  C  C57  1  0.627800  0.260800  0.422110  1.0
  C  C58  1  0.260800  0.627800  0.922110  1.0
  C  C59  1  0.295480  0.741860  0.474950  1.0
  C  C60  1  0.741860  0.295480  0.974950  1.0
  C  C61  1  0.704520  0.258140  0.525050  1.0
  C  C62  1  0.258140  0.704520  0.025050  1.0
  C  C63  1  0.272700  0.793700  0.420030  1.0
  C  C64  1  0.793700  0.272700  0.920030  1.0
  C  C65  1  0.727300  0.206300  0.579970  1.0
  C  C66  1  0.206300  0.727300  0.079970  1.0
  C  C67  1  0.296120  0.897560  0.418460  1.0
  C  C68  1  0.897560  0.296120  0.918460  1.0
  C  C69  1  0.703880  0.102440  0.581540  1.0
  C  C70  1  0.102440  0.703880  0.081540  1.0
  C  C71  1  0.346180  0.948820  0.472200  1.0
  C  C72  1  0.948820  0.346180  0.972200  1.0
  C  C73  1  0.653820  0.051180  0.527800  1.0
  C  C74  1  0.051180  0.653820  0.027800  1.0
  C  C75  1  0.370190  0.898610  0.522320  1.0
  C  C76  1  0.898610  0.370190  0.022320  1.0
  C  C77  1  0.629810  0.101390  0.477680  1.0
  C  C78  1  0.101390  0.629810  0.977680  1.0
  C  C79  1  0.269690  0.958510  0.365630  1.0
  C  C80  1  0.958510  0.269690  0.865630  1.0
  C  C81  1  0.730310  0.041490  0.634370  1.0
  C  C82  1  0.041490  0.730310  0.134370  1.0
  C  C83  1  0.194540  0.951860  0.259080  1.0
  C  C84  1  0.951860  0.194540  0.759080  1.0
  C  C85  1  0.805460  0.048140  0.740920  1.0
  C  C86  1  0.048140  0.805460  0.240920  1.0
  C  C87  1  0.048420  0.973780  0.192400  1.0
  C  C88  1  0.973780  0.048420  0.692400  1.0
  C  C89  1  0.951580  0.026220  0.807600  1.0
  C  C90  1  0.026220  0.951580  0.307600  1.0
  C  C91  1  0.878590  0.573810  0.446760  1.0
  C  C92  1  0.573810  0.878590  0.946760  1.0
  C  C93  1  0.121410  0.426190  0.553240  1.0
  C  C94  1  0.426190  0.121410  0.053240  1.0
  C  C95  1  0.016010  0.565750  0.376490  1.0
  C  C96  1  0.565750  0.016010  0.876490  1.0
  C  C97  1  0.983990  0.434250  0.623510  1.0
  C  C98  1  0.434250  0.983990  0.123510  1.0
  C  C99  1  0.054650  0.548190  0.315940  1.0
  C  C100  1  0.548190  0.054650  0.815940  1.0
  C  C101  1  0.945350  0.451810  0.684060  1.0
  C  C102  1  0.451810  0.945350  0.184060  1.0
  C  C103  1  0.988530  0.521830  0.265690  1.0
  C  C104  1  0.521830  0.988530  0.765690  1.0
  C  C105  1  0.011470  0.478170  0.734310  1.0
  C  C106  1  0.478170  0.011470  0.234310  1.0
  C  C107  1  0.884540  0.518060  0.276620  1.0
  C  C108  1  0.518060  0.884540  0.776620  1.0
  C  C109  1  0.115460  0.481940  0.723380  1.0
  C  C110  1  0.481940  0.115460  0.223380  1.0
  C  C111  1  0.850260  0.536540  0.333580  1.0
  C  C112  1  0.536540  0.850260  0.833580  1.0
  C  C113  1  0.149740  0.463460  0.666420  1.0
  C  C114  1  0.463460  0.149740  0.166420  1.0
  C  C115  1  0.020270  0.493330  0.202150  1.0
  C  C116  1  0.493330  0.020270  0.702150  1.0
  C  C117  1  0.979730  0.506670  0.797850  1.0
  C  C118  1  0.506670  0.979730  0.297850  1.0
  C  C119  1  0.166080  0.473120  0.137870  1.0
  C  C120  1  0.473120  0.166080  0.637870  1.0
  C  C121  1  0.833920  0.526880  0.862130  1.0
  C  C122  1  0.526880  0.833920  0.362130  1.0
  C  C123  1  0.211730  0.378070  0.143830  1.0
  C  C124  1  0.378070  0.211730  0.643830  1.0
  C  C125  1  0.788270  0.621930  0.856170  1.0
  C  C126  1  0.621930  0.788270  0.356170  1.0
  C  C127  1  0.129900  0.288100  0.159100  1.0
  C  C128  1  0.288100  0.129900  0.659100  1.0
  C  C129  1  0.870100  0.711900  0.840900  1.0
  C  C130  1  0.711900  0.870100  0.340900  1.0
  C  C131  1  0.259600  0.359000  0.081800  1.0
  C  C132  1  0.359000  0.259600  0.581800  1.0
  C  C133  1  0.740400  0.641000  0.918200  1.0
  C  C134  1  0.641000  0.740400  0.418200  1.0
  C  C135  1  0.292230  0.391090  0.197200  1.0
  C  C136  1  0.391090  0.292230  0.697200  1.0
  C  C137  1  0.707770  0.608910  0.802800  1.0
  C  C138  1  0.608910  0.707770  0.302800  1.0
  C  C139  1  0.207590  0.253010  0.422290  1.0
  C  C140  1  0.253010  0.207590  0.922290  1.0
  C  C141  1  0.792410  0.746990  0.577710  1.0
  C  C142  1  0.746990  0.792410  0.077710  1.0
  C  C143  1  0.281450  0.421430  0.391420  1.0
  C  C144  1  0.421430  0.281450  0.891420  1.0
  C  C145  1  0.718550  0.578570  0.608580  1.0
  C  C146  1  0.578570  0.718550  0.108580  1.0
  C  C147  1  0.359930  0.491930  0.362960  1.0
  C  C148  1  0.491930  0.359930  0.862960  1.0
  C  C149  1  0.640070  0.508070  0.637040  1.0
  C  C150  1  0.508070  0.640070  0.137040  1.0
  C  C151  1  0.444060  0.459440  0.340500  1.0
  C  C152  1  0.459440  0.444060  0.840500  1.0
  C  C153  1  0.555940  0.540560  0.659500  1.0
  C  C154  1  0.540560  0.555940  0.159500  1.0
  C  C155  1  0.444000  0.353800  0.340850  1.0
  C  C156  1  0.353800  0.444000  0.840850  1.0
  C  C157  1  0.556000  0.646200  0.659150  1.0
  C  C158  1  0.646200  0.556000  0.159150  1.0
  C  C159  1  0.367350  0.288050  0.364770  1.0
  C  C160  1  0.288050  0.367350  0.864770  1.0
  C  C161  1  0.632650  0.711950  0.635230  1.0
  C  C162  1  0.711950  0.632650  0.135230  1.0
  C  C163  1  0.470700  0.463560  0.178450  1.0
  C  C164  1  0.463560  0.470700  0.678450  1.0
  C  C165  1  0.529300  0.536440  0.821550  1.0
  C  C166  1  0.536440  0.529300  0.321550  1.0
  Cl  Cl167  1  0.907070  0.312410  0.418060  1
  Cl  Cl168  1  0.312410  0.907070  0.918060  1
  Cl  Cl169  1  0.092930  0.687590  0.581940  1
  Cl  Cl170  1  0.687590  0.092930  0.081940  1
  Cl  Cl171  1  0.811480  0.139380  0.343930  1
  Cl  Cl172  1  0.139380  0.811480  0.843930  1
  Cl  Cl173  1  0.188520  0.860620  0.656070  1
  Cl  Cl174  1  0.860620  0.188520  0.156070  1
  Cl  Cl175  1  0.979600  0.281600  0.327000  1
  Cl  Cl176  1  0.281600  0.979600  0.827000  1
  Cl  Cl177  1  0.020400  0.718400  0.673000  1
  Cl  Cl178  1  0.718400  0.020400  0.173000  1
  Cl  Cl179  1  0.000600  0.258600  0.306900  1
  Cl  Cl180  1  0.258600  0.000600  0.806900  1
  Cl  Cl181  1  0.999400  0.741400  0.693100  1
  Cl  Cl182  1  0.741400  0.999400  0.193100  1
  Cl  Cl183  1  0.919400  0.271400  0.450100  1
  Cl  Cl184  1  0.271400  0.919400  0.950100  1
  Cl  Cl185  1  0.080600  0.728600  0.549900  1
  Cl  Cl186  1  0.728600  0.080600  0.049900  1
  Cl  Cl187  1  0.986300  0.205700  0.317100  1
  Cl  Cl188  1  0.205700  0.986300  0.817100  1
  Cl  Cl189  1  0.013700  0.794300  0.682900  1
  Cl  Cl190  1  0.794300  0.013700  0.182900  1
  Cl  Cl191  1  0.730000  0.172000  0.291000  1
  Cl  Cl192  1  0.172000  0.730000  0.791000  1
  Cl  Cl193  1  0.270000  0.828000  0.709000  1
  Cl  Cl194  1  0.828000  0.270000  0.209000  1
  Cl  Cl195  1  0.931900  0.195500  0.379200  1
  Cl  Cl196  1  0.195500  0.931900  0.879200  1
  Cl  Cl197  1  0.068100  0.804500  0.620800  1
  Cl  Cl198  1  0.804500  0.068100  0.120800  1
  H  H199  1  0.288500  0.713500  0.732200  1.0
  H  H200  1  0.713500  0.288500  0.232200  1.0
  H  H201  1  0.711500  0.286500  0.267800  1.0
  H  H202  1  0.286500  0.711500  0.767800  1.0
  H  H203  1  0.233800  0.842800  0.311800  1.0
  H  H204  1  0.842800  0.233800  0.811800  1.0
  H  H205  1  0.766200  0.157200  0.688200  1.0
  H  H206  1  0.157200  0.766200  0.188200  1.0
  H  H207  1  0.159400  0.528600  0.224500  1.0
  H  H208  1  0.528600  0.159400  0.724500  1.0
  H  H209  1  0.840600  0.471400  0.775500  1.0
  H  H210  1  0.471400  0.840600  0.275500  1.0
  H  H211  1  0.362200  0.534000  0.188000  1.0
  H  H212  1  0.534000  0.362200  0.688000  1.0
  H  H213  1  0.637800  0.466000  0.812000  1.0
  H  H214  1  0.466000  0.637800  0.312000  1.0
  H  H215  1  0.312200  0.701800  0.595600  1.0
  H  H216  1  0.701800  0.312200  0.095600  1.0
  H  H217  1  0.687800  0.298200  0.404400  1.0
  H  H218  1  0.298200  0.687800  0.904400  1.0
  H  H219  1  0.407400  0.786200  0.608700  1.0
  H  H220  1  0.786200  0.407400  0.108700  1.0
  H  H221  1  0.592600  0.213800  0.391300  1.0
  H  H222  1  0.213800  0.592600  0.891300  1.0
  H  H223  1  0.415100  0.693500  0.564800  1.0
  H  H224  1  0.693500  0.415100  0.064800  1.0
  H  H225  1  0.584900  0.306500  0.435200  1.0
  H  H226  1  0.306500  0.584900  0.935200  1.0
  H  H227  1  0.362800  0.019000  0.472700  1.0
  H  H228  1  0.019000  0.362800  0.972700  1.0
  H  H229  1  0.637200  0.981000  0.527300  1.0
  H  H230  1  0.981000  0.637200  0.027300  1.0
  H  H231  1  0.404300  0.934100  0.556300  1.0
  H  H232  1  0.934100  0.404300  0.056300  1.0
  H  H233  1  0.595700  0.065900  0.443700  1.0
  H  H234  1  0.065900  0.595700  0.943700  1.0
  H  H235  1  0.227100  0.932100  0.222000  1.0
  H  H236  1  0.932100  0.227100  0.722000  1.0
  H  H237  1  0.772900  0.067900  0.778000  1.0
  H  H238  1  0.067900  0.772900  0.278000  1.0
  H  H239  1  0.211600  0.024800  0.263600  1.0
  H  H240  1  0.024800  0.211600  0.763600  1.0
  H  H241  1  0.788400  0.975200  0.736400  1.0
  H  H242  1  0.975200  0.788400  0.236400  1.0
  H  H243  1  0.976700  0.955500  0.185500  1.0
  H  H244  1  0.955500  0.976700  0.685500  1.0
  H  H245  1  0.023300  0.044500  0.814500  1.0
  H  H246  1  0.044500  0.023300  0.314500  1.0
  H  H247  1  0.082400  0.953600  0.156600  1.0
  H  H248  1  0.953600  0.082400  0.656600  1.0
  H  H249  1  0.917600  0.046400  0.843400  1.0
  H  H250  1  0.046400  0.917600  0.343400  1.0
  H  H251  1  0.066600  0.045600  0.198900  1.0
  H  H252  1  0.045600  0.066600  0.698900  1.0
  H  H253  1  0.933400  0.954400  0.801100  1.0
  H  H254  1  0.954400  0.933400  0.301100  1.0
  H  H255  1  0.908300  0.639500  0.463100  1.0
  H  H256  1  0.639500  0.908300  0.963100  1.0
  H  H257  1  0.091700  0.360500  0.536900  1.0
  H  H258  1  0.360500  0.091700  0.036900  1.0
  H  H259  1  0.896100  0.523100  0.473700  1.0
  H  H260  1  0.523100  0.896100  0.973700  1.0
  H  H261  1  0.103900  0.476900  0.526300  1.0
  H  H262  1  0.476900  0.103900  0.026300  1.0
  H  H263  1  0.806500  0.567700  0.444500  1.0
  H  H264  1  0.567700  0.806500  0.944500  1.0
  H  H265  1  0.193500  0.432300  0.555500  1.0
  H  H266  1  0.432300  0.193500  0.055500  1.0
  H  H267  1  0.838500  0.502300  0.243400  1.0
  H  H268  1  0.502300  0.838500  0.743400  1.0
  H  H269  1  0.161500  0.497700  0.756600  1.0
  H  H270  1  0.497700  0.161500  0.256600  1.0
  H  H271  1  0.781400  0.533600  0.339000  1.0
  H  H272  1  0.533600  0.781400  0.839000  1.0
  H  H273  1  0.218600  0.466400  0.661000  1.0
  H  H274  1  0.466400  0.218600  0.161000  1.0
  H  H275  1  0.218600  0.528200  0.126100  1.0
  H  H276  1  0.528200  0.218600  0.626100  1.0
  H  H277  1  0.781400  0.471800  0.873900  1.0
  H  H278  1  0.471800  0.781400  0.373900  1.0
  H  H279  1  0.115400  0.462200  0.104400  1.0
  H  H280  1  0.462200  0.115400  0.604400  1.0
  H  H281  1  0.884600  0.537800  0.895600  1.0
  H  H282  1  0.537800  0.884600  0.395600  1.0
  H  H283  1  0.079000  0.278000  0.126500  1.0
  H  H284  1  0.278000  0.079000  0.626500  1.0
  H  H285  1  0.921000  0.722000  0.873500  1.0
  H  H286  1  0.722000  0.921000  0.373500  1.0
  H  H287  1  0.100000  0.301200  0.198100  1.0
  H  H288  1  0.301200  0.100000  0.698100  1.0
  H  H289  1  0.900000  0.698800  0.801900  1.0
  H  H290  1  0.698800  0.900000  0.301900  1.0
  H  H291  1  0.159400  0.228600  0.162400  1.0
  H  H292  1  0.228600  0.159400  0.662400  1.0
  H  H293  1  0.840600  0.771400  0.837600  1.0
  H  H294  1  0.771400  0.840600  0.337600  1.0
  H  H295  1  0.208900  0.350700  0.049000  1.0
  H  H296  1  0.350700  0.208900  0.549000  1.0
  H  H297  1  0.791100  0.649300  0.951000  1.0
  H  H298  1  0.649300  0.791100  0.451000  1.0
  H  H299  1  0.288200  0.298800  0.084200  1.0
  H  H300  1  0.298800  0.288200  0.584200  1.0
  H  H301  1  0.711800  0.701200  0.915800  1.0
  H  H302  1  0.701200  0.711800  0.415800  1.0
  H  H303  1  0.311600  0.415400  0.073000  1.0
  H  H304  1  0.415400  0.311600  0.573000  1.0
  H  H305  1  0.688400  0.584600  0.927000  1.0
  H  H306  1  0.584600  0.688400  0.427000  1.0
  H  H307  1  0.260400  0.402800  0.236300  1.0
  H  H308  1  0.402800  0.260400  0.736300  1.0
  H  H309  1  0.739600  0.597200  0.763700  1.0
  H  H310  1  0.597200  0.739600  0.263700  1.0
  H  H311  1  0.318600  0.329000  0.200700  1.0
  H  H312  1  0.329000  0.318600  0.700700  1.0
  H  H313  1  0.681400  0.671000  0.799300  1.0
  H  H314  1  0.671000  0.681400  0.299300  1.0
  H  H315  1  0.142700  0.260500  0.405600  1.0
  H  H316  1  0.260500  0.142700  0.905600  1.0
  H  H317  1  0.857300  0.739500  0.594400  1.0
  H  H318  1  0.739500  0.857300  0.094400  1.0
  H  H319  1  0.210800  0.268000  0.466400  1.0
  H  H320  1  0.268000  0.210800  0.966400  1.0
  H  H321  1  0.789200  0.732000  0.533600  1.0
  H  H322  1  0.732000  0.789200  0.033600  1.0
  H  H323  1  0.217400  0.185000  0.415000  1.0
  H  H324  1  0.185000  0.217400  0.915000  1.0
  H  H325  1  0.782600  0.815000  0.585000  1.0
  H  H326  1  0.815000  0.782600  0.085000  1.0
  H  H327  1  0.498300  0.329300  0.324100  1.0
  H  H328  1  0.329300  0.498300  0.824100  1.0
  H  H329  1  0.501700  0.670700  0.675900  1.0
  H  H330  1  0.670700  0.501700  0.175900  1.0
  H  H331  1  0.368600  0.219200  0.363300  1.0
  H  H332  1  0.219200  0.368600  0.863300  1.0
  H  H333  1  0.631400  0.780800  0.636700  1.0
  H  H334  1  0.780800  0.631400  0.136700  1.0
  N  N335  1  0.344540  0.794620  0.523730  1.0
  N  N336  1  0.794620  0.344540  0.023730  1.0
  N  N337  1  0.655460  0.205380  0.476270  1.0
  N  N338  1  0.205380  0.655460  0.976270  1.0
  N  N339  1  0.233710  0.906670  0.313360  1.0
  N  N340  1  0.906670  0.233710  0.813360  1.0
  N  N341  1  0.766290  0.093330  0.686640  1.0
  N  N342  1  0.093330  0.766290  0.186640  1.0
  N  N343  1  0.916410  0.559850  0.384110  1.0
  N  N344  1  0.559850  0.916410  0.884110  1.0
  N  N345  1  0.083590  0.440150  0.615890  1.0
  N  N346  1  0.440150  0.083590  0.115890  1.0
  N  N347  1  0.119960  0.502860  0.194020  1.0
  N  N348  1  0.502860  0.119960  0.694020  1.0
  N  N349  1  0.880040  0.497140  0.805980  1.0
  N  N350  1  0.497140  0.880040  0.305980  1.0
  N  N351  1  0.286560  0.322660  0.391540  1.0
  N  N352  1  0.322660  0.286560  0.891540  1.0
  N  N353  1  0.713440  0.677340  0.608460  1.0
  N  N354  1  0.677340  0.713440  0.108460  1.0
  N  N355  1  0.375320  0.473840  0.187680  1.0
  N  N356  1  0.473840  0.375320  0.687680  1.0
  N  N357  1  0.624680  0.526160  0.812320  1.0
  N  N358  1  0.526160  0.624680  0.312320  1.0
  O  O359  1  0.310000  0.690000  0.250000  1
  O  O360  1  0.690000  0.310000  0.750000  1
  O  O361  1  0.330600  0.669400  0.750000  1
  O  O362  1  0.669400  0.330600  0.250000  1
  O  O363  1  0.500000  0.500000  0.500000  1
  O  O364  1  0.500000  0.500000  0.000000  1
  O  O365  1  0.269770  0.644990  0.475190  1.0
  O  O366  1  0.644990  0.269770  0.975190  1.0
  O  O367  1  0.730230  0.355010  0.524810  1.0
  O  O368  1  0.355010  0.730230  0.024810  1.0
  O  O369  1  0.229090  0.731370  0.374670  1.0
  O  O370  1  0.731370  0.229090  0.874670  1.0
  O  O371  1  0.770910  0.268630  0.625330  1.0
  O  O372  1  0.268630  0.770910  0.125330  1.0
  O  O373  1  0.279390  0.051410  0.370480  1.0
  O  O374  1  0.051410  0.279390  0.870480  1.0
  O  O375  1  0.720610  0.948590  0.629520  1.0
  O  O376  1  0.948590  0.720610  0.129520  1.0
  O  O377  1  0.079100  0.587040  0.422800  1.0
  O  O378  1  0.587040  0.079100  0.922800  1.0
  O  O379  1  0.920900  0.412960  0.577200  1.0
  O  O380  1  0.412960  0.920900  0.077200  1.0
  O  O381  1  0.153950  0.557250  0.316170  1.0
  O  O382  1  0.557250  0.153950  0.816170  1.0
  O  O383  1  0.846050  0.442750  0.683830  1.0
  O  O384  1  0.442750  0.846050  0.183830  1.0
  O  O385  1  0.956780  0.461040  0.160900  1.0
  O  O386  1  0.461040  0.956780  0.660900  1.0
  O  O387  1  0.043220  0.538960  0.839100  1.0
  O  O388  1  0.538960  0.043220  0.339100  1.0
  O  O389  1  0.209270  0.455910  0.417090  1.0
  O  O390  1  0.455910  0.209270  0.917090  1.0
  O  O391  1  0.790730  0.544090  0.582910  1.0
  O  O392  1  0.544090  0.790730  0.082910  1.0
  O  O393  1  0.342250  0.585490  0.364470  1.0
  O  O394  1  0.585490  0.342250  0.864470  1.0
  O  O395  1  0.657750  0.414510  0.635530  1.0
  O  O396  1  0.414510  0.657750  0.135530  1.0
  O  O397  1  0.500030  0.382230  0.183480  1.0
  O  O398  1  0.382230  0.500030  0.683480  1.0
  O  O399  1  0.499970  0.617770  0.816520  1.0
  O  O400  1  0.617770  0.499970  0.316520  1.0
