# generated using pymatgen
data_Ga2H72C67N12(ClO)20
_symmetry_space_group_name_H-M   'P 1'
_cell_length_a   13.65790000
_cell_length_b   17.13460000
_cell_length_c   18.57460000
_cell_angle_alpha   81.99200000
_cell_angle_beta   78.19800000
_cell_angle_gamma   78.20100000
_symmetry_Int_Tables_number   1
_chemical_formula_structural   Ga2H72C67N12(ClO)20
_chemical_formula_sum   'Ga4 H144 C134 N24 Cl40 O40'
_cell_volume   4143.46712839
_cell_formula_units_Z   2
loop_
 _symmetry_equiv_pos_site_id
 _symmetry_equiv_pos_as_xyz
  1  'x, y, z'
loop_
 _atom_site_type_symbol
 _atom_site_label
 _atom_site_symmetry_multiplicity
 _atom_site_fract_x
 _atom_site_fract_y
 _atom_site_fract_z
 _atom_site_occupancy
  Ga  Ga1  1  0.538830  0.639650  0.141940  1
  Ga  Ga2  1  0.461170  0.360350  0.858060  1
  Ga  Ga3  1  0.961310  0.911130  0.349790  1
  Ga  Ga4  1  0.038690  0.088870  0.650210  1
  H  H5  1  0.741300  0.766400  0.044400  1
  H  H6  1  0.258700  0.233600  0.955600  1
  H  H7  1  0.002200  0.828100  0.163500  1
  H  H8  1  0.997800  0.171900  0.836500  1
  H  H9  1  0.947300  0.736100  0.081100  1
  H  H10  1  0.052700  0.263900  0.918900  1
  H  H11  1  0.018400  0.790400  0.029700  1
  H  H12  1  0.981600  0.209600  0.970300  1
  H  H13  1  0.704400  0.983900  0.298300  1
  H  H14  1  0.295600  0.016100  0.701700  1
  H  H15  1  0.747200  0.554100  0.257200  1
  H  H16  1  0.252800  0.445900  0.742800  1
  H  H17  1  0.470700  0.809100  0.276100  1
  H  H18  1  0.529300  0.190900  0.723900  1
  H  H19  1  0.324200  0.658800  0.306100  1
  H  H20  1  0.675800  0.341200  0.693900  1
  H  H21  1  0.774800  0.893800  0.004600  1
  H  H22  1  0.225200  0.106200  0.995400  1
  H  H23  1  0.880500  0.853800  0.962400  1
  H  H24  1  0.119500  0.146200  0.037600  1
  H  H25  1  0.561900  0.897300  0.454500  1
  H  H26  1  0.438100  0.102700  0.545500  1
  H  H27  1  0.508600  0.983500  0.428000  1
  H  H28  1  0.491400  0.016500  0.572000  1
  H  H29  1  0.627500  0.960100  0.411500  1
  H  H30  1  0.372500  0.039900  0.588500  1
  H  H31  1  0.557400  0.964100  0.234500  1
  H  H32  1  0.442600  0.035900  0.765500  1
  H  H33  1  0.511400  0.026000  0.293000  1
  H  H34  1  0.488600  0.974000  0.707000  1
  H  H35  1  0.243600  0.951000  0.157800  1
  H  H36  1  0.756400  0.049000  0.842200  1
  H  H37  1  0.952700  0.201300  0.139700  1
  H  H38  1  0.047300  0.798700  0.860300  1
  H  H39  1  0.794800  0.175900  0.141100  1
  H  H40  1  0.205200  0.824100  0.858900  1
  H  H41  1  0.219200  0.797400  0.438300  1
  H  H42  1  0.780800  0.202600  0.561700  1
  H  H43  1  0.329000  0.765600  0.396300  1
  H  H44  1  0.671000  0.234400  0.603700  1
  H  H45  1  0.262100  0.705000  0.442100  1
  H  H46  1  0.737900  0.295000  0.557900  1
  H  H47  1  0.800900  0.494600  0.881800  1
  H  H48  1  0.199100  0.505400  0.118200  1
  H  H49  1  0.571200  0.395200  0.402700  1
  H  H50  1  0.428800  0.604800  0.597300  1
  H  H51  1  0.779700  0.801300  0.152800  1
  H  H52  1  0.220300  0.198700  0.847200  1
  H  H53  1  0.743600  0.894200  0.139500  1
  H  H54  1  0.256400  0.105800  0.860500  1
  H  H55  1  0.830700  0.859600  0.184900  1
  H  H56  1  0.169300  0.140400  0.815100  1
  H  H57  1  0.259300  0.649500  0.205900  1
  H  H58  1  0.740700  0.350500  0.794100  1
  H  H59  1  0.420200  0.386900  0.377300  1
  H  H60  1  0.579800  0.613100  0.622700  1
  H  H61  1  0.127700  0.088500  0.249800  1
  H  H62  1  0.872300  0.911500  0.750200  1
  H  H63  1  0.089800  0.180100  0.229500  1
  H  H64  1  0.910200  0.819900  0.770500  1
  H  H65  1  0.135600  0.123600  0.166700  1
  H  H66  1  0.864400  0.876400  0.833300  1
  H  H67  1  0.714400  0.905600  0.649000  1
  H  H68  1  0.285600  0.094400  0.351000  1
  H  H69  1  0.592700  0.444400  0.013800  1
  H  H70  1  0.407300  0.555600  0.986200  1
  H  H71  1  0.697400  0.397900  0.975900  1
  H  H72  1  0.302600  0.602100  0.024100  1
  H  H73  1  0.621600  0.449800  0.927400  1
  H  H74  1  0.378400  0.550200  0.072600  1
  H  H75  1  0.882000  0.028400  0.542300  1
  H  H76  1  0.118000  0.971600  0.457700  1
  H  H77  1  0.866200  0.989400  0.624400  1
  H  H78  1  0.133800  0.010600  0.375600  1
  H  H79  1  0.774300  0.043700  0.592700  1
  H  H80  1  0.225700  0.956300  0.407300  1
  H  H81  1  0.452600  0.843400  0.393300  1
  H  H82  1  0.547400  0.156600  0.606700  1
  H  H83  1  0.403500  0.930300  0.365600  1
  H  H84  1  0.596500  0.069700  0.634400  1
  H  H85  1  0.858000  0.720700  0.407000  1
  H  H86  1  0.142000  0.279300  0.593000  1
  H  H87  1  0.341400  0.724200  0.984700  1
  H  H88  1  0.658600  0.275800  0.015300  1
  H  H89  1  0.312700  0.813500  0.952000  1
  H  H90  1  0.687300  0.186500  0.048000  1
  H  H91  1  0.228600  0.769600  0.001300  1
  H  H92  1  0.771400  0.230400  0.998700  1
  H  H93  1  0.919000  0.519600  0.257900  1
  H  H94  1  0.081000  0.480400  0.742100  1
  H  H95  1  0.892600  0.484000  0.340300  1
  H  H96  1  0.107400  0.516000  0.659700  1
  H  H97  1  0.871300  0.604300  0.877700  1
  H  H98  1  0.128700  0.395700  0.122300  1
  H  H99  1  0.946500  0.943100  0.099100  1
  H  H100  1  0.053500  0.056900  0.900900  1
  H  H101  1  0.857400  0.978700  0.055800  1
  H  H102  1  0.142600  0.021300  0.944200  1
  H  H103  1  0.963200  0.938500  0.013600  1
  H  H104  1  0.036800  0.061500  0.986400  1
  H  H105  1  0.681600  0.794200  0.613500  1
  H  H106  1  0.318400  0.205800  0.386500  1
  H  H107  1  0.639000  0.799100  0.365200  1
  H  H108  1  0.361000  0.200900  0.634800  1
  H  H109  1  0.709100  0.857200  0.319300  1
  H  H110  1  0.290900  0.142800  0.680700  1
  H  H111  1  0.638900  0.821600  0.280500  1
  H  H112  1  0.361100  0.178400  0.719500  1
  H  H113  1  0.737100  0.624600  0.392000  1
  H  H114  1  0.262900  0.375400  0.608000  1
  H  H115  1  0.817800  0.575000  0.437800  1
  H  H116  1  0.182200  0.425000  0.562200  1
  H  H117  1  0.306400  0.504100  0.233700  1
  H  H118  1  0.693600  0.495900  0.766300  1
  H  H119  1  0.268500  0.475800  0.316900  1
  H  H120  1  0.731500  0.524200  0.683100  1
  H  H121  1  0.324700  0.412600  0.261800  1
  H  H122  1  0.675300  0.587400  0.738200  1
  H  H123  1  0.866300  0.724200  0.286800  1
  H  H124  1  0.133700  0.275800  0.713200  1
  H  H125  1  0.793800  0.678200  0.260800  1
  H  H126  1  0.206200  0.321800  0.739200  1
  H  H127  1  0.909900  0.664900  0.226000  1
  H  H128  1  0.090100  0.335100  0.774000  1
  H  H129  1  0.999100  0.646300  0.359400  1
  H  H130  1  0.000900  0.353700  0.640600  1
  H  H131  1  0.037400  0.587800  0.297600  1
  H  H132  1  0.962600  0.412200  0.702400  1
  H  H133  1  0.003800  0.553900  0.379900  1
  H  H134  1  0.996200  0.446100  0.620100  1
  H  H135  1  0.214900  0.904600  0.057400  1
  H  H136  1  0.785100  0.095400  0.942600  1
  H  H137  1  0.947200  0.367000  0.128300  1
  H  H138  1  0.052800  0.633000  0.871700  1
  H  H139  1  0.626700  0.235200  0.437900  1
  H  H140  1  0.373300  0.764800  0.562100  1
  H  H141  1  0.546300  0.928500  0.112600  1.0
  H  H142  1  0.453700  0.071500  0.887400  1.0
  H  H143  1  0.474300  0.886800  0.024700  1.0
  H  H144  1  0.525700  0.113200  0.975300  1.0
  H  H145  1  0.593300  0.863800  0.001100  1.0
  H  H146  1  0.406700  0.136200  0.998900  1.0
  H  H147  1  0.423100  0.046500  0.116300  1.0
  H  H148  1  0.576900  0.953500  0.883700  1.0
  C  C149  1  0.879900  0.855000  0.073300  1
  C  C150  1  0.120100  0.145000  0.926700  1
  C  C151  1  0.799700  0.078300  0.218300  1
  C  C152  1  0.200300  0.921700  0.781700  1
  C  C153  1  0.970500  0.786800  0.075900  1
  C  C154  1  0.029500  0.213200  0.924100  1
  C  C155  1  0.962800  0.049600  0.261300  1
  C  C156  1  0.037200  0.950400  0.738700  1
  C  C157  1  0.092300  0.799200  0.268200  1
  C  C158  1  0.907700  0.200800  0.731800  1
  C  C159  1  0.694600  0.063400  0.218000  1
  C  C160  1  0.305400  0.936600  0.782000  1
  C  C161  1  0.139000  0.741200  0.221600  1
  C  C162  1  0.861000  0.258800  0.778400  1
  C  C163  1  0.862500  0.031600  0.262600  1
  C  C164  1  0.137500  0.968400  0.737400  1
  C  C165  1  0.838300  0.841500  0.465600  1
  C  C166  1  0.161700  0.158500  0.534400  1
  C  C167  1  0.098400  0.731900  0.153700  1
  C  C168  1  0.901600  0.268100  0.846300  1
  C  C169  1  0.832600  0.720000  0.962800  1
  C  C170  1  0.167400  0.280000  0.037200  1
  C  C171  1  0.265400  0.693800  0.297100  1
  C  C172  1  0.734600  0.306200  0.702900  1
  C  C173  1  0.781100  0.649600  0.969700  1
  C  C174  1  0.218900  0.350400  0.030300  1
  C  C175  1  0.857400  0.912800  0.489800  1
  C  C176  1  0.142600  0.087200  0.510200  1
  C  C177  1  0.830700  0.848900  0.007400  1
  C  C178  1  0.169300  0.151100  0.992600  1
  C  C179  1  0.136000  0.802300  0.332800  1
  C  C180  1  0.864000  0.197700  0.667200  1
  C  C181  1  0.565000  0.940900  0.416000  1
  C  C182  1  0.435000  0.059100  0.584000  1
  C  C183  1  0.560300  0.911700  0.342300  1
  C  C184  1  0.439700  0.088300  0.657700  1
  C  C185  1  0.609400  0.481100  0.319000  1
  C  C186  1  0.390600  0.518900  0.681000  1
  C  C187  1  0.357200  0.859500  0.182900  1
  C  C188  1  0.642800  0.140500  0.817100  1
  C  C189  1  0.571800  0.531500  0.263600  1
  C  C190  1  0.428200  0.468500  0.736400  1
  C  C191  1  0.565900  0.981400  0.280100  1
  C  C192  1  0.434100  0.018600  0.719900  1
  C  C193  1  0.773900  0.796900  0.511500  1
  C  C194  1  0.226100  0.203100  0.488500  1
  C  C195  1  0.281700  0.902600  0.142700  1
  C  C196  1  0.718300  0.097400  0.857300  1
  C  C197  1  0.700300  0.635800  0.025000  1
  C  C198  1  0.299700  0.364200  0.975000  1
  C  C199  1  0.656900  0.565200  0.025200  1
  C  C200  1  0.343100  0.434800  0.974800  1
  C  C201  1  0.881800  0.606700  0.330000  1
  C  C202  1  0.118200  0.393300  0.670000  1
  C  C203  1  0.389600  0.758100  0.096400  1
  C  C204  1  0.610400  0.241900  0.903600  1
  C  C205  1  0.930200  0.158700  0.170800  1
  C  C206  1  0.069800  0.841300  0.829200  1
  C  C207  1  0.472100  0.526500  0.249900  1
  C  C208  1  0.527900  0.473500  0.750100  1
  C  C209  1  0.411600  0.787400  0.160300  1
  C  C210  1  0.588400  0.212600  0.839700  1
  C  C211  1  0.836100  0.143300  0.171600  1
  C  C212  1  0.163900  0.856700  0.828400  1
  C  C213  1  0.371800  0.898100  0.246500  1
  C  C214  1  0.628200  0.101900  0.753500  1
  C  C215  1  0.753800  0.720500  0.491800  1
  C  C216  1  0.246200  0.279500  0.508200  1
  C  C217  1  0.261000  0.754900  0.411200  1
  C  C218  1  0.739000  0.245100  0.588800  1
  C  C219  1  0.775100  0.530100  0.917600  1
  C  C220  1  0.224900  0.469900  0.082400  1
  C  C221  1  0.711400  0.479200  0.338500  1
  C  C222  1  0.288600  0.520800  0.661500  1
  C  C223  1  0.547800  0.427700  0.363000  1
  C  C224  1  0.452200  0.572300  0.637000  1
  C  C225  1  0.801200  0.852300  0.144200  1
  C  C226  1  0.198800  0.147700  0.855800  1
  C  C227  1  0.227100  0.688500  0.237300  1
  C  C228  1  0.772900  0.311500  0.762700  1
  C  C229  1  0.457800  0.423400  0.348700  1
  C  C230  1  0.542200  0.576600  0.651300  1
  C  C231  1  0.095500  0.127300  0.215400  1
  C  C232  1  0.904500  0.872700  0.784600  1
  C  C233  1  0.745700  0.889600  0.602700  1
  C  C234  1  0.254300  0.110400  0.397300  1
  C  C235  1  0.647500  0.445900  0.972300  1
  C  C236  1  0.352500  0.554100  0.027700  1
  C  C237  1  0.835400  0.005100  0.581200  1
  C  C238  1  0.164600  0.994900  0.418800  1
  C  C239  1  0.457000  0.885100  0.352300  1
  C  C240  1  0.543000  0.114900  0.647700  1
  C  C241  1  0.298600  0.775100  0.993800  1
  C  C242  1  0.701400  0.224900  0.006200  1
  C  C243  1  0.872300  0.527800  0.304200  1
  C  C244  1  0.127700  0.472200  0.695800  1
  C  C245  1  0.817400  0.595100  0.915500  1
  C  C246  1  0.182600  0.404900  0.084500  1
  C  C247  1  0.915000  0.936500  0.059100  1
  C  C248  1  0.085000  0.063500  0.940900  1
  C  C249  1  0.726400  0.823200  0.581800  1
  C  C250  1  0.273600  0.176800  0.418200  1
  C  C251  1  0.644500  0.841000  0.325300  1
  C  C252  1  0.355500  0.159000  0.674700  1
  C  C253  1  0.805400  0.620400  0.401400  1
  C  C254  1  0.194600  0.379600  0.598600  1
  C  C255  1  0.321200  0.465600  0.274600  1
  C  C256  1  0.678800  0.534400  0.725400  1
  C  C257  1  0.861000  0.674800  0.270400  1
  C  C258  1  0.139000  0.325200  0.729600  1
  C  C259  1  0.990700  0.597900  0.343000  1
  C  C260  1  0.009300  0.402100  0.657000  1
  C  C261  1  0.264100  0.875000  0.083300  1
  C  C262  1  0.735900  0.125000  0.916700  1
  C  C263  1  0.888900  0.400100  0.108900  1
  C  C264  1  0.111100  0.599900  0.891100  1
  C  C265  1  0.650000  0.200300  0.397900  1
  C  C266  1  0.350000  0.799700  0.602100  1
  C  C267  1  0.959500  0.307500  0.379400  1
  C  C268  1  0.040500  0.692500  0.620600  1
  C  C269  1  0.460900  0.236900  0.168300  1
  C  C270  1  0.539100  0.763100  0.831700  1
  C  C271  1  0.518800  0.627600  0.438400  1
  C  C272  1  0.481200  0.372400  0.561600  1
  C  C273  1  0.807500  0.451300  0.555000  1
  C  C274  1  0.192500  0.548700  0.445000  1
  C  C275  1  0.610400  0.011200  0.061300  1
  C  C276  1  0.389600  0.988800  0.938700  1
  C  C277  1  0.550700  0.960000  0.064100  1.0
  C  C278  1  0.449300  0.040000  0.935900  1.0
  C  C279  1  0.536600  0.908200  0.007900  1.0
  C  C280  1  0.463400  0.091800  0.992100  1.0
  C  C281  1  0.469000  0.034000  0.069800  1.0
  C  C282  1  0.531000  0.966000  0.930200  1.0
  N  N283  1  0.694300  0.515700  0.972100  1
  N  N284  1  0.305700  0.484300  0.027900  1
  N  N285  1  0.792200  0.775100  0.010500  1
  N  N286  1  0.207800  0.224900  0.989500  1
  N  N287  1  0.318700  0.802600  0.060200  1
  N  N288  1  0.681300  0.197400  0.939800  1
  N  N289  1  0.810800  0.934300  0.557100  1
  N  N290  1  0.189200  0.065700  0.442900  1
  N  N291  1  0.022200  0.788500  0.137100  1
  N  N292  1  0.977800  0.211500  0.862900  1
  N  N293  1  0.219100  0.750100  0.345300  1
  N  N294  1  0.780900  0.249900  0.654700  1
  N  N295  1  0.992300  0.111400  0.215800  1
  N  N296  1  0.007700  0.888600  0.784200  1
  N  N297  1  0.420100  0.472300  0.292200  1
  N  N298  1  0.579900  0.527700  0.707800  1
  N  N299  1  0.663400  0.007200  0.269100  1
  N  N300  1  0.336600  0.992800  0.730900  1
  N  N301  1  0.770200  0.524900  0.293900  1
  N  N302  1  0.229800  0.475100  0.706100  1
  N  N303  1  0.438300  0.855400  0.288100  1
  N  N304  1  0.561700  0.144600  0.711900  1
  N  N305  1  0.812800  0.693600  0.430700  1
  N  N306  1  0.187200  0.306400  0.569300  1
  Cl  Cl307  1  0.899210  0.501240  0.102020  1
  Cl  Cl308  1  0.100790  0.498760  0.897980  1
  Cl  Cl309  1  0.886770  0.371550  0.022570  1
  Cl  Cl310  1  0.113230  0.628450  0.977430  1
  Cl  Cl311  1  0.775150  0.384070  0.170280  1
  Cl  Cl312  1  0.224850  0.615930  0.829720  1
  Cl  Cl313  1  0.719100  0.112070  0.431690  1
  Cl  Cl314  1  0.280900  0.887930  0.568310  1
  Cl  Cl315  1  0.725660  0.249710  0.325040  1
  Cl  Cl316  1  0.274340  0.750290  0.674960  1
  Cl  Cl317  1  0.543000  0.184110  0.367980  1
  Cl  Cl318  1  0.457000  0.815890  0.632020  1
  Cl  Cl319  1  0.963400  0.204450  0.410950  1
  Cl  Cl320  1  0.036600  0.795550  0.589050  1
  Cl  Cl321  1  0.007300  0.315170  0.281300  1
  Cl  Cl322  1  0.992700  0.684830  0.718700  1
  Cl  Cl323  1  0.011400  0.344100  0.434700  1
  Cl  Cl324  1  0.988600  0.655900  0.565300  1
  Cl  Cl325  1  0.443100  0.261400  0.086500  1
  Cl  Cl326  1  0.556900  0.738600  0.913500  1
  Cl  Cl327  1  0.535400  0.324200  0.182500  1
  Cl  Cl328  1  0.464600  0.675800  0.817500  1
  Cl  Cl329  1  0.326000  0.217100  0.207500  1
  Cl  Cl330  1  0.674000  0.782900  0.792500  1
  Cl  Cl331  1  0.052000  0.358900  0.406200  1
  Cl  Cl332  1  0.948000  0.641100  0.593800  1
  Cl  Cl333  1  0.048700  0.320600  0.311400  1
  Cl  Cl334  1  0.951300  0.679400  0.688600  1
  Cl  Cl335  1  0.973000  0.338900  0.467800  1
  Cl  Cl336  1  0.027000  0.661100  0.532200  1
  Cl  Cl337  1  0.916000  0.307000  0.298000  1
  Cl  Cl338  1  0.084000  0.693000  0.702000  1
  Cl  Cl339  1  0.432700  0.189800  0.078000  1
  Cl  Cl340  1  0.567300  0.810200  0.922000  1
  Cl  Cl341  1  0.347700  0.242700  0.232600  1
  Cl  Cl342  1  0.652300  0.757300  0.767400  1
  Cl  Cl343  1  0.477200  0.259500  0.257300  1
  Cl  Cl344  1  0.522800  0.740500  0.742700  1
  Cl  Cl345  1  0.476600  0.326900  0.137700  1
  Cl  Cl346  1  0.523400  0.673100  0.862300  1
  O  O347  1  0.483800  0.738100  0.191070  1
  O  O348  1  0.516200  0.261900  0.808930  1
  O  O349  1  0.655000  0.680400  0.079690  1
  O  O350  1  0.345000  0.319600  0.920310  1
  O  O351  1  0.582100  0.551800  0.076400  1
  O  O352  1  0.417900  0.448200  0.923600  1
  O  O353  1  0.888400  0.826100  0.399380  1
  O  O354  1  0.111600  0.173900  0.600620  1
  O  O355  1  0.438800  0.690800  0.076420  1
  O  O356  1  0.561200  0.309200  0.923580  1
  O  O357  1  0.092800  0.854900  0.377130  1
  O  O358  1  0.907200  0.145100  0.622870  1
  O  O359  1  0.435900  0.573900  0.198400  1
  O  O360  1  0.564100  0.426100  0.801600  1
  O  O361  1  0.010600  0.853100  0.261920  1
  O  O362  1  0.989400  0.146900  0.738080  1
  O  O363  1  0.916000  0.955500  0.446800  1
  O  O364  1  0.084000  0.044500  0.553200  1
  O  O365  1  0.614800  0.586400  0.219000  1
  O  O366  1  0.385200  0.413600  0.781000  1
  O  O367  1  0.842900  0.968500  0.309100  1
  O  O368  1  0.157100  0.031500  0.690900  1
  O  O369  1  0.020300  0.006300  0.302700  1
  O  O370  1  0.979700  0.993700  0.697300  1
  O  O371  1  0.908400  0.726200  0.913600  1
  O  O372  1  0.091600  0.273800  0.086400  1
  O  O373  1  0.643300  0.101700  0.172800  1
  O  O374  1  0.356700  0.898300  0.827200  1
  O  O375  1  0.323600  0.965000  0.259800  1
  O  O376  1  0.676400  0.035000  0.740200  1
  O  O377  1  0.687200  0.685900  0.530000  1
  O  O378  1  0.312800  0.314100  0.470000  1
  O  O379  1  0.136600  0.674700  0.117500  1
  O  O380  1  0.863400  0.325300  0.882500  1
  O  O381  1  0.738500  0.435300  0.393100  1
  O  O382  1  0.261500  0.564700  0.606900  1
  O  O383  1  0.503100  0.695600  0.480200  1
  O  O384  1  0.496900  0.304400  0.519800  1
  O  O385  1  0.716200  0.440400  0.545200  1
  O  O386  1  0.283800  0.559600  0.454800  1
