# generated using pymatgen
data_CuH24C31(NO3)2
_symmetry_space_group_name_H-M   'P 1'
_cell_length_a   16.17150000
_cell_length_b   16.30700000
_cell_length_c   17.97800000
_cell_angle_alpha   79.13100000
_cell_angle_beta   71.73200000
_cell_angle_gamma   86.36300000
_symmetry_Int_Tables_number   1
_chemical_formula_structural   CuH24C31(NO3)2
_chemical_formula_sum   'Cu4 H96 C124 N8 O24'
_cell_volume   4421.20357287
_cell_formula_units_Z   4
loop_
 _symmetry_equiv_pos_site_id
 _symmetry_equiv_pos_as_xyz
  1  'x, y, z'
loop_
 _atom_site_type_symbol
 _atom_site_label
 _atom_site_symmetry_multiplicity
 _atom_site_fract_x
 _atom_site_fract_y
 _atom_site_fract_z
 _atom_site_occupancy
  Cu  Cu1  1  0.764541  0.616630  0.061817  1.0
  Cu  Cu2  1  0.235459  0.383370  0.938183  1.0
  Cu  Cu3  1  0.680147  0.576141  0.213435  1.0
  Cu  Cu4  1  0.319853  0.423859  0.786565  1.0
  H  H5  1  0.679400  0.934300  0.489400  1.0
  H  H6  1  0.320600  0.065700  0.510600  1.0
  H  H7  1  0.010600  0.366100  0.358200  1.0
  H  H8  1  0.989400  0.633900  0.641800  1.0
  H  H9  1  0.811300  0.365100  0.005800  1.0
  H  H10  1  0.188700  0.634900  0.994200  1.0
  H  H11  1  0.818000  0.224700  0.001000  1.0
  H  H12  1  0.182000  0.775300  0.999000  1.0
  H  H13  1  0.770900  0.125900  0.117300  1.0
  H  H14  1  0.229100  0.874100  0.882700  1.0
  H  H15  1  0.706500  0.311000  0.245600  1.0
  H  H16  1  0.293500  0.689000  0.754400  1.0
  H  H17  1  0.799400  0.059900  0.232700  1.0
  H  H18  1  0.200600  0.940100  0.767300  1.0
  H  H19  1  0.765800  0.966500  0.352000  1.0
  H  H20  1  0.234200  0.033500  0.648000  1.0
  H  H21  1  0.606300  0.213800  0.328400  1.0
  H  H22  1  0.393700  0.786200  0.671600  1.0
  H  H23  1  0.613200  0.897200  0.631000  1.0
  H  H24  1  0.386800  0.102800  0.369000  1.0
  H  H25  1  0.512000  0.927100  0.743900  1.0
  H  H26  1  0.488000  0.072900  0.256100  1.0
  H  H27  1  0.442400  0.138400  0.620400  1.0
  H  H28  1  0.557600  0.861600  0.379600  1.0
  H  H29  1  0.391200  0.939700  0.835800  1.0
  H  H30  1  0.608800  0.060300  0.164200  1.0
  H  H31  1  0.303600  0.975400  0.954300  1.0
  H  H32  1  0.696400  0.024600  0.045700  1.0
  H  H33  1  0.266000  0.114400  0.963700  1.0
  H  H34  1  0.734000  0.885600  0.036300  1.0
  H  H35  1  0.404400  0.183400  0.732500  1.0
  H  H36  1  0.595600  0.816600  0.267500  1.0
  H  H37  1  0.970500  0.369200  0.917200  1.0
  H  H38  1  0.029500  0.630800  0.082800  1.0
  H  H39  1  0.851100  0.353400  0.876400  1.0
  H  H40  1  0.148900  0.646600  0.123600  1.0
  H  H41  1  0.865600  0.357900  0.743100  1.0
  H  H42  1  0.134400  0.642100  0.256900  1.0
  H  H43  1  0.123300  0.397200  0.688100  1.0
  H  H44  1  0.876700  0.602800  0.311900  1.0
  H  H45  1  0.901200  0.318300  0.626000  1.0
  H  H46  1  0.098800  0.681700  0.374000  1.0
  H  H47  1  0.922200  0.321700  0.493800  1.0
  H  H48  1  0.077800  0.678300  0.506200  1.0
  H  H49  1  0.116300  0.453400  0.574700  1.0
  H  H50  1  0.883700  0.546600  0.425300  1.0
  H  H51  1  0.097400  0.388200  0.220400  1.0
  H  H52  1  0.902600  0.611800  0.779600  1.0
  H  H53  1  0.220200  0.438100  0.125400  1.0
  H  H54  1  0.779800  0.561900  0.874600  1.0
  H  H55  1  0.297100  0.528400  0.288400  1.0
  H  H56  1  0.702900  0.471600  0.711600  1.0
  H  H57  1  0.295800  0.548200  0.041300  1.0
  H  H58  1  0.704200  0.451800  0.958700  1.0
  H  H59  1  0.415600  0.612500  0.942300  1.0
  H  H60  1  0.584400  0.387500  0.057700  1.0
  H  H61  1  0.543500  0.628700  0.969200  1.0
  H  H62  1  0.456500  0.371300  0.030800  1.0
  H  H63  1  0.430500  0.525400  0.200200  1.0
  H  H64  1  0.569500  0.474600  0.799800  1.0
  H  H65  1  0.539000  0.386800  0.395000  1.0
  H  H66  1  0.461000  0.613200  0.605000  1.0
  H  H67  1  0.556300  0.420300  0.301900  1.0
  H  H68  1  0.443700  0.579700  0.698100  1.0
  H  H69  1  0.459500  0.420500  0.362300  1.0
  H  H70  1  0.540500  0.579500  0.637700  1.0
  H  H71  1  0.381900  0.497000  0.411300  1.0
  H  H72  1  0.618100  0.503000  0.588700  1.0
  H  H73  1  0.349600  0.576900  0.452700  1.0
  H  H74  1  0.650400  0.423100  0.547300  1.0
  H  H75  1  0.394100  0.499900  0.495700  1.0
  H  H76  1  0.605900  0.500100  0.504300  1.0
  H  H77  1  0.565700  0.654600  0.409000  1.0
  H  H78  1  0.434300  0.345400  0.591000  1.0
  H  H79  1  0.466200  0.671300  0.456600  1.0
  H  H80  1  0.533800  0.328700  0.543400  1.0
  H  H81  1  0.499900  0.694900  0.361500  1.0
  H  H82  1  0.500100  0.305100  0.638500  1.0
  H  H83  1  0.018500  0.591000  0.862000  1.0
  H  H84  1  0.981500  0.409000  0.138000  1.0
  H  H85  1  0.953800  0.546400  0.945000  1.0
  H  H86  1  0.046200  0.453600  0.055000  1.0
  H  H87  1  0.024100  0.611800  0.943700  1.0
  H  H88  1  0.975900  0.388200  0.056300  1.0
  H  H89  1  0.073400  0.709500  0.824300  1.0
  H  H90  1  0.926600  0.290500  0.175700  1.0
  H  H91  1  0.064700  0.778300  0.879100  1.0
  H  H92  1  0.935300  0.221700  0.120900  1.0
  H  H93  1  0.049300  0.803900  0.794100  1.0
  H  H94  1  0.950700  0.196100  0.205900  1.0
  H  H95  1  0.848200  0.798900  0.842800  1.0
  H  H96  1  0.151800  0.201100  0.157200  1.0
  H  H97  1  0.908500  0.862400  0.860100  1.0
  H  H98  1  0.091500  0.137600  0.139900  1.0
  H  H99  1  0.841200  0.804200  0.932600  1.0
  H  H100  1  0.158800  0.195800  0.067400  1.0
  C  C101  1  0.749410  0.443300  0.129180  1.0
  C  C102  1  0.250590  0.556700  0.870820  1.0
  C  C103  1  0.756090  0.353260  0.125600  1.0
  C  C104  1  0.243910  0.646740  0.874400  1.0
  C  C105  1  0.790640  0.325660  0.053580  1.0
  C  C106  1  0.209360  0.674340  0.946420  1.0
  C  C107  1  0.795230  0.242560  0.050880  1.0
  C  C108  1  0.204770  0.757440  0.949120  1.0
  C  C109  1  0.767040  0.183730  0.120030  1.0
  C  C110  1  0.232960  0.816270  0.879970  1.0
  C  C111  1  0.732890  0.209260  0.193720  1.0
  C  C112  1  0.267110  0.790740  0.806280  1.0
  C  C113  1  0.728570  0.293070  0.195740  1.0
  C  C114  1  0.271430  0.706930  0.804260  1.0
  C  C115  1  0.706400  0.147330  0.269370  1.0
  C  C116  1  0.293600  0.852670  0.730630  1.0
  C  C117  1  0.753390  0.072490  0.277120  1.0
  C  C118  1  0.246610  0.927510  0.722880  1.0
  C  C119  1  0.733760  0.017140  0.347980  1.0
  C  C120  1  0.266240  0.982860  0.652020  1.0
  C  C121  1  0.666130  0.035160  0.414950  1.0
  C  C122  1  0.333870  0.964840  0.585050  1.0
  C  C123  1  0.617510  0.109060  0.407530  1.0
  C  C124  1  0.382490  0.890940  0.592470  1.0
  C  C125  1  0.639140  0.163890  0.333780  1.0
  C  C126  1  0.360860  0.836110  0.666220  1.0
  C  C127  1  0.547730  0.130360  0.475740  1.0
  C  C128  1  0.452270  0.869640  0.524260  1.0
  C  C129  1  0.536670  0.072160  0.550730  1.0
  C  C130  1  0.463330  0.927840  0.449270  1.0
  C  C131  1  0.589120  0.999400  0.554100  1.0
  C  C132  1  0.410880  0.000600  0.445900  1.0
  C  C133  1  0.578360  0.946140  0.628070  1.0
  C  C134  1  0.421640  0.053860  0.371930  1.0
  C  C135  1  0.518700  0.964330  0.694980  1.0
  C  C136  1  0.481300  0.035670  0.305020  1.0
  C  C137  1  0.466070  0.036960  0.694330  1.0
  C  C138  1  0.533930  0.963040  0.305670  1.0
  C  C139  1  0.476790  0.089080  0.622080  1.0
  C  C140  1  0.523210  0.910920  0.377920  1.0
  C  C141  1  0.406510  0.057800  0.769880  1.0
  C  C142  1  0.593490  0.942200  0.230120  1.0
  C  C143  1  0.375960  0.996570  0.838250  1.0
  C  C144  1  0.624040  0.003430  0.161750  1.0
  C  C145  1  0.324200  0.017900  0.908890  1.0
  C  C146  1  0.675800  0.982100  0.091110  1.0
  C  C147  1  0.301780  0.100300  0.914760  1.0
  C  C148  1  0.698220  0.899700  0.085240  1.0
  C  C149  1  0.331780  0.161440  0.849130  1.0
  C  C150  1  0.668220  0.838560  0.150870  1.0
  C  C151  1  0.383840  0.140340  0.777440  1.0
  C  C152  1  0.616160  0.859660  0.222560  1.0
  C  C153  1  0.310260  0.251810  0.853720  1.0
  C  C154  1  0.689740  0.748190  0.146280  1.0
  C  C155  1  0.138640  0.391360  0.829170  1.0
  C  C156  1  0.861360  0.608640  0.170830  1.0
  C  C157  1  0.058300  0.383970  0.806700  1.0
  C  C158  1  0.941700  0.616030  0.193300  1.0
  C  C159  1  0.977440  0.371400  0.862400  1.0
  C  C160  1  0.022560  0.628600  0.137600  1.0
  C  C161  1  0.907040  0.362090  0.837980  1.0
  C  C162  1  0.092960  0.637910  0.162020  1.0
  C  C163  1  0.915540  0.364980  0.758380  1.0
  C  C164  1  0.084460  0.635020  0.241620  1.0
  C  C165  1  0.996420  0.378120  0.700680  1.0
  C  C166  1  0.003580  0.621880  0.299320  1.0
  C  C167  1  0.067320  0.387780  0.726280  1.0
  C  C168  1  0.932680  0.612220  0.273720  1.0
  C  C169  1  0.008370  0.383290  0.614630  1.0
  C  C170  1  0.991630  0.616710  0.385370  1.0
  C  C171  1  0.950920  0.346010  0.588070  1.0
  C  C172  1  0.049080  0.653990  0.411930  1.0
  C  C173  1  0.963550  0.347780  0.509240  1.0
  C  C174  1  0.036450  0.652220  0.490760  1.0
  C  C175  1  0.035060  0.386640  0.451090  1.0
  C  C176  1  0.964940  0.613360  0.548910  1.0
  C  C177  1  0.092960  0.429250  0.475810  1.0
  C  C178  1  0.907040  0.570750  0.524190  1.0
  C  C179  1  0.077350  0.425480  0.557890  1.0
  C  C180  1  0.922650  0.574520  0.442110  1.0
  C  C181  1  0.167660  0.472860  0.417730  1.0
  C  C182  1  0.832340  0.527140  0.582270  1.0
  C  C183  1  0.183240  0.464770  0.335050  1.0
  C  C184  1  0.816760  0.535230  0.664950  1.0
  C  C185  1  0.122540  0.422480  0.314800  1.0
  C  C186  1  0.877460  0.577520  0.685200  1.0
  C  C187  1  0.138670  0.415870  0.234650  1.0
  C  C188  1  0.861330  0.584130  0.765350  1.0
  C  C189  1  0.210040  0.447220  0.178190  1.0
  C  C190  1  0.789960  0.552780  0.821810  1.0
  C  C191  1  0.272060  0.494430  0.194680  1.0
  C  C192  1  0.727940  0.505570  0.805320  1.0
  C  C193  1  0.256290  0.499710  0.274570  1.0
  C  C194  1  0.743710  0.500290  0.725430  1.0
  C  C195  1  0.349160  0.529920  0.131740  1.0
  C  C196  1  0.650840  0.470080  0.868260  1.0
  C  C197  1  0.347210  0.556150  0.053940  1.0
  C  C198  1  0.652790  0.443850  0.946060  1.0
  C  C199  1  0.419080  0.593720  0.994540  1.0
  C  C200  1  0.580920  0.406280  0.005460  1.0
  C  C201  1  0.494360  0.603870  0.010420  1.0
  C  C202  1  0.505640  0.396130  0.989580  1.0
  C  C203  1  0.499250  0.577690  0.087580  1.0
  C  C204  1  0.500750  0.422310  0.912420  1.0
  C  C205  1  0.427230  0.541970  0.147600  1.0
  C  C206  1  0.572770  0.458030  0.852400  1.0
  C  C207  1  0.582760  0.585840  0.106210  1.0
  C  C208  1  0.417240  0.414160  0.893790  1.0
  C  C209  1  0.521300  0.428010  0.355500  1.0
  C  C210  1  0.478700  0.571990  0.644500  1.0
  C  C211  1  0.536500  0.523090  0.368030  1.0
  C  C212  1  0.463500  0.476910  0.631970  1.0
  C  C213  1  0.394300  0.533200  0.444200  1.0
  C  C214  1  0.605700  0.466800  0.555800  1.0
  C  C215  1  0.505500  0.655000  0.407800  1.0
  C  C216  1  0.494500  0.345000  0.592200  1.0
  C  C217  1  0.984740  0.598260  0.916080  1.0
  C  C218  1  0.015260  0.401740  0.083920  1.0
  C  C219  1  0.916610  0.671720  0.912040  1.0
  C  C220  1  0.083390  0.328280  0.087960  1.0
  C  C221  1  0.041780  0.759590  0.840760  1.0
  C  C222  1  0.958220  0.240410  0.159240  1.0
  C  C223  1  0.880950  0.807370  0.878280  1.0
  C  C224  1  0.119050  0.192630  0.121720  1.0
  N  N225  1  0.649920  0.981430  0.486770  1.0
  N  N226  1  0.350080  0.018570  0.513230  1.0
  N  N227  1  0.049910  0.388290  0.372910  1.0
  N  N228  1  0.950090  0.611710  0.627090  1.0
  N  N229  1  0.950180  0.740570  0.877330  1.0
  N  N230  1  0.049820  0.259430  0.122670  1.0
  N  N231  1  0.482930  0.573000  0.402380  1.0
  N  N232  1  0.517070  0.427000  0.597620  1.0
  O  O233  1  0.772950  0.495100  0.064950  1.0
  O  O234  1  0.227050  0.504900  0.935050  1.0
  O  O235  1  0.718430  0.462770  0.198050  1.0
  O  O236  1  0.281570  0.537230  0.801950  1.0
  O  O237  1  0.258990  0.268230  0.917710  1.0
  O  O238  1  0.741010  0.731770  0.082290  1.0
  O  O239  1  0.347290  0.304750  0.792550  1.0
  O  O240  1  0.652710  0.695250  0.207450  1.0
  O  O241  1  0.131150  0.387040  0.901990  1.0
  O  O242  1  0.868850  0.612960  0.098010  1.0
  O  O243  1  0.209440  0.402630  0.772350  1.0
  O  O244  1  0.790560  0.597370  0.227650  1.0
  O  O245  1  0.647890  0.614330  0.049190  1.0
  O  O246  1  0.352110  0.385670  0.950810  1.0
  O  O247  1  0.581150  0.561770  0.177400  1.0
  O  O248  1  0.418850  0.438230  0.822600  1.0
  O  O249  1  0.503080  0.194800  0.471010  1.0
  O  O250  1  0.496920  0.805200  0.528990  1.0
  O  O251  1  0.217620  0.512970  0.437660  1.0
  O  O252  1  0.782380  0.487030  0.562340  1.0
  O  O253  1  0.614440  0.539500  0.338240  1.0
  O  O254  1  0.385560  0.460500  0.661760  1.0
  O  O255  1  0.837480  0.654760  0.939480  1.0
  O  O256  1  0.162520  0.345240  0.060520  1.0
