# generated using pymatgen
data_CuPH11C11N3F7
_symmetry_space_group_name_H-M   'P 1'
_cell_length_a   14.06850000
_cell_length_b   14.60570000
_cell_length_c   17.43635616
_cell_angle_alpha   114.76067358
_cell_angle_beta   113.79242409
_cell_angle_gamma   90.00000000
_symmetry_Int_Tables_number   1
_chemical_formula_structural   CuPH11C11N3F7
_chemical_formula_sum   'Cu8 P8 H88 C88 N24 F56'
_cell_volume   2914.73792003
_cell_formula_units_Z   8
loop_
 _symmetry_equiv_pos_site_id
 _symmetry_equiv_pos_as_xyz
  1  'x, y, z'
loop_
 _atom_site_type_symbol
 _atom_site_label
 _atom_site_symmetry_multiplicity
 _atom_site_fract_x
 _atom_site_fract_y
 _atom_site_fract_z
 _atom_site_occupancy
  C  C1  1  0.844300  0.877700  0.785800  1.0
  C  C2  1  0.058500  0.122300  0.214200  1.0
  C  C3  1  0.344300  0.908100  0.785800  1.0
  C  C4  1  0.558500  0.091900  0.214200  1.0
  C  C5  1  0.694700  0.911200  0.691800  1.0
  C  C6  1  0.002900  0.088800  0.308200  1.0
  C  C7  1  0.194700  0.780600  0.691800  1.0
  C  C8  1  0.502900  0.219400  0.308200  1.0
  C  C9  1  0.635700  0.819700  0.669600  1.0
  C  C10  1  0.966100  0.180300  0.330400  1.0
  C  C11  1  0.135700  0.849900  0.669600  1.0
  C  C12  1  0.466100  0.150100  0.330400  1.0
  C  C13  1  0.690900  0.758700  0.706600  1.0
  C  C14  1  0.984300  0.241300  0.293400  1.0
  C  C15  1  0.190900  0.947900  0.706600  1.0
  C  C16  1  0.484300  0.052100  0.293400  1.0
  C  C17  1  0.650300  0.979700  0.648600  1.0
  C  C18  1  0.001700  0.020300  0.351400  1.0
  C  C19  1  0.150300  0.668900  0.648600  1.0
  C  C20  1  0.501700  0.331100  0.351400  1.0
  C  C21  1  0.546100  0.957600  0.582800  1.0
  C  C22  1  0.963300  0.042400  0.417200  1.0
  C  C23  1  0.046100  0.625200  0.582800  1.0
  C  C24  1  0.463300  0.374800  0.417200  1.0
  C  C25  1  0.511600  0.023800  0.543800  1.0
  C  C26  1  0.967800  0.976200  0.456200  1.0
  C  C27  1  0.011600  0.520000  0.543800  1.0
  C  C28  1  0.467800  0.480000  0.456200  1.0
  C  C29  1  0.582300  0.108500  0.570600  1.0
  C  C30  1  0.011700  0.891500  0.429400  1.0
  C  C31  1  0.082300  0.462100  0.570600  1.0
  C  C32  1  0.511700  0.537900  0.429400  1.0
  C  C33  1  0.684000  0.126700  0.637000  1.0
  C  C34  1  0.047000  0.873300  0.363000  1.0
  C  C35  1  0.184000  0.510300  0.637000  1.0
  C  C36  1  0.547000  0.489700  0.363000  1.0
  C  C37  1  0.960800  0.072100  0.709000  1.0
  C  C38  1  0.251800  0.927900  0.291000  1.0
  C  C39  1  0.460800  0.636900  0.709000  1.0
  C  C40  1  0.751800  0.363100  0.291000  1.0
  C  C41  1  0.020500  0.114600  0.804400  1.0
  C  C42  1  0.216100  0.885400  0.195600  1.0
  C  C43  1  0.520500  0.689800  0.804400  1.0
  C  C44  1  0.716100  0.310200  0.195600  1.0
  C  C45  1  0.942100  0.201300  0.983200  1.0
  C  C46  1  0.958900  0.798700  0.016800  1.0
  C  C47  1  0.442100  0.781900  0.983200  1.0
  C  C48  1  0.458900  0.218100  0.016800  1.0
  C  C49  1  0.816300  0.663500  0.933200  1.0
  C  C50  1  0.883100  0.336500  0.066800  1.0
  C  C51  1  0.316300  0.269700  0.933200  1.0
  C  C52  1  0.383100  0.730300  0.066800  1.0
  C  C53  1  0.812600  0.681800  0.016400  1.0
  C  C54  1  0.796200  0.318200  0.983600  1.0
  C  C55  1  0.312600  0.334600  0.016400  1.0
  C  C56  1  0.296200  0.665400  0.983600  1.0
  C  C57  1  0.790800  0.241700  0.901800  1.0
  C  C58  1  0.889000  0.758300  0.098200  1.0
  C  C59  1  0.290800  0.660100  0.901800  1.0
  C  C60  1  0.389000  0.339900  0.098200  1.0
  C  C61  1  0.746700  0.576400  0.840400  1.0
  C  C62  1  0.906300  0.423600  0.159600  1.0
  C  C63  1  0.246700  0.264000  0.840400  1.0
  C  C64  1  0.406300  0.736000  0.159600  1.0
  C  C65  1  0.671300  0.504600  0.828200  1.0
  C  C66  1  0.843100  0.495400  0.171800  1.0
  C  C67  1  0.171300  0.323600  0.828200  1.0
  C  C68  1  0.343100  0.676400  0.171800  1.0
  C  C69  1  0.609200  0.425600  0.740000  1.0
  C  C70  1  0.869200  0.574400  0.260000  1.0
  C  C71  1  0.109200  0.314400  0.740000  1.0
  C  C72  1  0.369200  0.685600  0.260000  1.0
  C  C73  1  0.626000  0.419100  0.665800  1.0
  C  C74  1  0.960200  0.580900  0.334200  1.0
  C  C75  1  0.126000  0.246700  0.665800  1.0
  C  C76  1  0.460200  0.753300  0.334200  1.0
  C  C77  1  0.701300  0.492500  0.681400  1.0
  C  C78  1  0.019900  0.507500  0.318600  1.0
  C  C79  1  0.201300  0.188900  0.681400  1.0
  C  C80  1  0.519900  0.811100  0.318600  1.0
  C  C81  1  0.993900  0.605400  0.775600  1.0
  C  C82  1  0.218300  0.394600  0.224400  1.0
  C  C83  1  0.493900  0.170200  0.775600  1.0
  C  C84  1  0.718300  0.829800  0.224400  1.0
  C  C85  1  0.007400  0.698500  0.782600  1.0
  C  C86  1  0.224800  0.301500  0.217400  1.0
  C  C87  1  0.507400  0.084100  0.782600  1.0
  C  C88  1  0.724800  0.915900  0.217400  1.0
  Cu  Cu89  1  0.867370  0.087540  0.776860  1.0
  Cu  Cu90  1  0.090510  0.912460  0.223140  1.0
  Cu  Cu91  1  0.367370  0.689320  0.776860  1.0
  Cu  Cu92  1  0.590510  0.310680  0.223140  1.0
  Cu  Cu93  1  0.876350  0.681370  0.796660  1.0
  Cu  Cu94  1  0.079690  0.318630  0.203340  1.0
  Cu  Cu95  1  0.376350  0.115290  0.796660  1.0
  Cu  Cu96  1  0.579690  0.884710  0.203340  1.0
  F  F97  1  0.829900  0.000000  0.000000  1
  F  F98  1  0.329900  0.000000  0.000000  1
  F  F99  1  0.607800  0.000000  0.000000  1
  F  F100  1  0.107800  0.000000  0.000000  1
  F  F101  1  0.722820  0.712820  0.375840  1
  F  F102  1  0.346980  0.287180  0.624160  1
  F  F103  1  0.222820  0.663020  0.375840  1
  F  F104  1  0.846980  0.336980  0.624160  1
  F  F105  1  0.847760  0.783760  0.594920  1
  F  F106  1  0.252840  0.216240  0.405080  1
  F  F107  1  0.347760  0.811160  0.594920  1
  F  F108  1  0.752840  0.188840  0.405080  1
  F  F109  1  0.895500  0.765800  0.484000  1
  F  F110  1  0.411500  0.234200  0.516000  1
  F  F111  1  0.395500  0.718200  0.484000  1
  F  F112  1  0.911500  0.281800  0.516000  1
  F  F113  1  0.673400  0.731500  0.486600  1
  F  F114  1  0.186800  0.268500  0.513400  1
  F  F115  1  0.173400  0.755100  0.486600  1
  F  F116  1  0.686800  0.244900  0.513400  1
  F  F117  1  0.776100  0.863500  0.506600  1
  F  F118  1  0.269500  0.136500  0.493400  1
  F  F119  1  0.276100  0.643100  0.506600  1
  F  F120  1  0.769500  0.356900  0.493400  1
  F  F121  1  0.795700  0.633900  0.465000  1
  F  F122  1  0.330700  0.366100  0.535000  1
  F  F123  1  0.295700  0.831100  0.465000  1
  F  F124  1  0.830700  0.168900  0.535000  1
  F  F125  1  0.016000  0.378600  0.958600  1
  F  F126  1  0.057400  0.621400  0.041400  1
  F  F127  1  0.516000  0.580000  0.958600  1
  F  F128  1  0.557400  0.420000  0.041400  1
  F  F129  1  0.950200  0.509600  0.039400  1
  F  F130  1  0.910800  0.490400  0.960600  1
  F  F131  1  0.450200  0.529800  0.039400  1
  F  F132  1  0.410800  0.470200  0.960600  1
  F  F133  1  0.043700  0.501400  0.088600  1
  F  F134  1  0.955100  0.498600  0.911400  1
  F  F135  1  0.543700  0.587200  0.088600  1
  F  F136  1  0.455100  0.412800  0.911400  1
  F  F137  1  0.126000  0.525600  0.106000  1
  F  F138  1  0.020000  0.474400  0.894000  1
  F  F139  1  0.626000  0.580400  0.106000  1
  F  F140  1  0.520000  0.419600  0.894000  1
  F  F141  1  0.153500  0.494100  0.025600  1
  F  F142  1  0.127900  0.505900  0.974400  1
  F  F143  1  0.653500  0.531500  0.025600  1
  F  F144  1  0.627900  0.468500  0.974400  1
  F  F145  1  0.662300  0.946600  0.888800  1.0
  F  F146  1  0.773500  0.053400  0.111200  1.0
  F  F147  1  0.162300  0.942200  0.888800  1.0
  F  F148  1  0.273500  0.057800  0.111200  1.0
  F  F149  1  0.719800  0.109000  0.003200  1.0
  F  F150  1  0.716600  0.891000  0.996800  1.0
  F  F151  1  0.219800  0.894200  0.003200  1.0
  F  F152  1  0.216600  0.105800  0.996800  1.0
  H  H153  1  0.911900  0.898700  0.826600  1.0
  H  H154  1  0.085300  0.101300  0.173400  1.0
  H  H155  1  0.411900  0.927900  0.826600  1.0
  H  H156  1  0.585300  0.072100  0.173400  1.0
  H  H157  1  0.566700  0.801900  0.633800  1.0
  H  H158  1  0.932900  0.198100  0.366200  1.0
  H  H159  1  0.066700  0.831900  0.633800  1.0
  H  H160  1  0.432900  0.168100  0.366200  1.0
  H  H161  1  0.655500  0.699800  0.692800  1.0
  H  H162  1  0.962700  0.300200  0.307200  1.0
  H  H163  1  0.155500  0.993000  0.692800  1.0
  H  H164  1  0.462700  0.007000  0.307200  1.0
  H  H165  1  0.502100  0.902300  0.565800  1.0
  H  H166  1  0.936300  0.097700  0.434200  1.0
  H  H167  1  0.002100  0.663500  0.565800  1.0
  H  H168  1  0.436300  0.336500  0.434200  1.0
  H  H169  1  0.445100  0.011700  0.502400  1.0
  H  H170  1  0.942700  0.988300  0.497600  1.0
  H  H171  1  0.945100  0.490700  0.502400  1.0
  H  H172  1  0.442700  0.509300  0.497600  1.0
  H  H173  1  0.562500  0.150500  0.545400  1.0
  H  H174  1  0.017100  0.849500  0.454600  1.0
  H  H175  1  0.062500  0.394900  0.545400  1.0
  H  H176  1  0.517100  0.605100  0.454600  1.0
  H  H177  1  0.728900  0.182000  0.655000  1.0
  H  H178  1  0.073900  0.818000  0.345000  1.0
  H  H179  1  0.228900  0.473000  0.655000  1.0
  H  H180  1  0.573900  0.527000  0.345000  1.0
  H  H181  1  0.945400  0.004800  0.674600  1.0
  H  H182  1  0.270800  0.995200  0.325400  1.0
  H  H183  1  0.445400  0.669800  0.674600  1.0
  H  H184  1  0.770800  0.330200  0.325400  1.0
  H  H185  1  0.937800  0.112000  0.682000  1.0
  H  H186  1  0.255800  0.888000  0.318000  1.0
  H  H187  1  0.437800  0.570000  0.682000  1.0
  H  H188  1  0.755800  0.430000  0.318000  1.0
  H  H189  1  0.043500  0.074800  0.831600  1.0
  H  H190  1  0.211900  0.925200  0.168400  1.0
  H  H191  1  0.543500  0.756800  0.831600  1.0
  H  H192  1  0.711900  0.243200  0.168400  1.0
  H  H193  1  0.036000  0.182000  0.839000  1.0
  H  H194  1  0.197000  0.818000  0.161000  1.0
  H  H195  1  0.536000  0.657000  0.839000  1.0
  H  H196  1  0.697000  0.343000  0.161000  1.0
  H  H197  1  0.988700  0.161100  0.983600  1.0
  H  H198  1  0.005100  0.838900  0.016400  1.0
  H  H199  1  0.488700  0.822500  0.983600  1.0
  H  H200  1  0.505100  0.177500  0.016400  1.0
  H  H201  1  0.763000  0.645500  0.016800  1.0
  H  H202  1  0.746200  0.354500  0.983200  1.0
  H  H203  1  0.263000  0.371300  0.016800  1.0
  H  H204  1  0.246200  0.628700  0.983200  1.0
  H  H205  1  0.736800  0.230300  0.848200  1.0
  H  H206  1  0.888600  0.769700  0.151800  1.0
  H  H207  1  0.236800  0.617900  0.848200  1.0
  H  H208  1  0.388600  0.382100  0.151800  1.0
  H  H209  1  0.663100  0.509500  0.877200  1.0
  H  H210  1  0.785900  0.490500  0.122800  1.0
  H  H211  1  0.163100  0.367700  0.877200  1.0
  H  H212  1  0.285900  0.632300  0.122800  1.0
  H  H213  1  0.559700  0.380300  0.731200  1.0
  H  H214  1  0.828500  0.619700  0.268800  1.0
  H  H215  1  0.059700  0.350900  0.731200  1.0
  H  H216  1  0.328500  0.649100  0.268800  1.0
  H  H217  1  0.588700  0.368200  0.608800  1.0
  H  H218  1  0.979900  0.631800  0.391200  1.0
  H  H219  1  0.088700  0.240600  0.608800  1.0
  H  H220  1  0.479900  0.759400  0.391200  1.0
  H  H221  1  0.710700  0.488000  0.633000  1.0
  H  H222  1  0.077700  0.512000  0.367000  1.0
  H  H223  1  0.210700  0.145000  0.633000  1.0
  H  H224  1  0.577700  0.855000  0.367000  1.0
  H  H225  1  0.022600  0.596300  0.826400  1.0
  H  H226  1  0.196200  0.403700  0.173600  1.0
  H  H227  1  0.522600  0.230100  0.826400  1.0
  H  H228  1  0.696200  0.769900  0.173600  1.0
  H  H229  1  0.956300  0.552300  0.720200  1.0
  H  H230  1  0.236100  0.447700  0.279800  1.0
  H  H231  1  0.456300  0.167900  0.720200  1.0
  H  H232  1  0.736100  0.832100  0.279800  1.0
  H  H233  1  0.045000  0.751500  0.838000  1.0
  H  H234  1  0.207000  0.248500  0.162000  1.0
  H  H235  1  0.545000  0.086500  0.838000  1.0
  H  H236  1  0.707000  0.913500  0.162000  1.0
  H  H237  1  0.978700  0.707600  0.731800  1.0
  H  H238  1  0.246900  0.292400  0.268200  1.0
  H  H239  1  0.478700  0.024200  0.731800  1.0
  H  H240  1  0.746900  0.975800  0.268200  1.0
  N  N241  1  0.795800  0.784000  0.762600  1.0
  N  N242  1  0.033200  0.216000  0.237400  1.0
  N  N243  1  0.295800  0.978600  0.762600  1.0
  N  N244  1  0.533200  0.021400  0.237400  1.0
  N  N245  1  0.799000  0.940700  0.752400  1.0
  N  N246  1  0.046600  0.059300  0.247600  1.0
  N  N247  1  0.299000  0.811700  0.752400  1.0
  N  N248  1  0.546600  0.188300  0.247600  1.0
  N  N249  1  0.718600  0.063700  0.676200  1.0
  N  N250  1  0.042400  0.936300  0.323800  1.0
  N  N251  1  0.218600  0.612500  0.676200  1.0
  N  N252  1  0.542400  0.387500  0.323800  1.0
  N  N253  1  0.864000  0.182900  0.899200  1.0
  N  N254  1  0.964800  0.817100  0.100800  1.0
  N  N255  1  0.364000  0.716300  0.899200  1.0
  N  N256  1  0.464800  0.283700  0.100800  1.0
  N  N257  1  0.888600  0.724700  0.934200  1.0
  N  N258  1  0.954400  0.275300  0.065800  1.0
  N  N259  1  0.388600  0.209500  0.934200  1.0
  N  N260  1  0.454400  0.790500  0.065800  1.0
  N  N261  1  0.761200  0.570400  0.766200  1.0
  N  N262  1  0.995000  0.429600  0.233800  1.0
  N  N263  1  0.261200  0.195800  0.766200  1.0
  N  N264  1  0.495000  0.804200  0.233800  1.0
  P  P265  1  0.717700  0.000000  0.000000  1
  P  P266  1  0.217700  0.000000  0.000000  1
  P  P267  1  0.784530  0.748770  0.485020  1
  P  P268  1  0.299510  0.251230  0.514980  1
  P  P269  1  0.284530  0.736250  0.485020  1
  P  P270  1  0.799510  0.263750  0.514980  1
  P  P271  1  0.035900  0.500000  0.000000  1
  P  P272  1  0.535900  0.500000  0.000000  1
