# generated using pymatgen
data_CuPH7C10N3OF6
_symmetry_space_group_name_H-M   'P 1'
_cell_length_a   12.29840000
_cell_length_b   14.84550000
_cell_length_c   14.84550000
_cell_angle_alpha   90.00000000
_cell_angle_beta   90.00000000
_cell_angle_gamma   90.00000000
_symmetry_Int_Tables_number   1
_chemical_formula_structural   CuPH7C10N3OF6
_chemical_formula_sum   'Cu8 P8 H56 C80 N24 O8 F48'
_cell_volume   2710.43048188
_cell_formula_units_Z   8
loop_
 _symmetry_equiv_pos_site_id
 _symmetry_equiv_pos_as_xyz
  1  'x, y, z'
loop_
 _atom_site_type_symbol
 _atom_site_label
 _atom_site_symmetry_multiplicity
 _atom_site_fract_x
 _atom_site_fract_y
 _atom_site_fract_z
 _atom_site_occupancy
  Cu  Cu1  1  0.617830  0.378270  0.999230  1.0
  Cu  Cu2  1  0.617830  0.500770  0.378270  1.0
  Cu  Cu3  1  0.617830  0.999230  0.121730  1.0
  Cu  Cu4  1  0.617830  0.121730  0.500770  1.0
  Cu  Cu5  1  0.382170  0.621730  0.000770  1.0
  Cu  Cu6  1  0.382170  0.499230  0.621730  1.0
  Cu  Cu7  1  0.382170  0.000770  0.878270  1.0
  Cu  Cu8  1  0.382170  0.878270  0.499230  1.0
  P  P9  1  0.000000  0.750000  0.250000  1
  P  P10  1  0.000000  0.250000  0.750000  1
  P  P11  1  0.500000  0.750000  0.250000  1
  P  P12  1  0.500000  0.250000  0.750000  1
  P  P13  1  0.880200  0.250000  0.250000  1
  P  P14  1  0.119800  0.750000  0.750000  1
  P  P15  1  0.392500  0.250000  0.250000  1
  P  P16  1  0.607500  0.750000  0.750000  1
  H  H17  1  0.930000  0.584700  0.989900  1.0
  H  H18  1  0.930000  0.510100  0.584700  1.0
  H  H19  1  0.930000  0.989900  0.915300  1.0
  H  H20  1  0.930000  0.915300  0.510100  1.0
  H  H21  1  0.070000  0.415300  0.010100  1.0
  H  H22  1  0.070000  0.489900  0.415300  1.0
  H  H23  1  0.070000  0.010100  0.084700  1.0
  H  H24  1  0.070000  0.084700  0.489900  1.0
  H  H25  1  0.954000  0.591700  0.832900  1.0
  H  H26  1  0.954000  0.667100  0.591700  1.0
  H  H27  1  0.954000  0.832900  0.908300  1.0
  H  H28  1  0.954000  0.908300  0.667100  1.0
  H  H29  1  0.046000  0.408300  0.167100  1.0
  H  H30  1  0.046000  0.332900  0.408300  1.0
  H  H31  1  0.046000  0.167100  0.091700  1.0
  H  H32  1  0.046000  0.091700  0.332900  1.0
  H  H33  1  0.836200  0.509700  0.740300  1.0
  H  H34  1  0.836200  0.759700  0.509700  1.0
  H  H35  1  0.836200  0.740300  0.990300  1.0
  H  H36  1  0.836200  0.990300  0.759700  1.0
  H  H37  1  0.163800  0.490300  0.259700  1.0
  H  H38  1  0.163800  0.240300  0.490300  1.0
  H  H39  1  0.163800  0.259700  0.009700  1.0
  H  H40  1  0.163800  0.009700  0.240300  1.0
  H  H41  1  0.885100  0.134500  0.915500  1.0
  H  H42  1  0.885100  0.584500  0.134500  1.0
  H  H43  1  0.885100  0.915500  0.365500  1.0
  H  H44  1  0.885100  0.365500  0.584500  1.0
  H  H45  1  0.114900  0.865500  0.084500  1.0
  H  H46  1  0.114900  0.415500  0.865500  1.0
  H  H47  1  0.114900  0.084500  0.634500  1.0
  H  H48  1  0.114900  0.634500  0.415500  1.0
  H  H49  1  0.593600  0.408000  0.204800  1.0
  H  H50  1  0.593600  0.295200  0.408000  1.0
  H  H51  1  0.593600  0.204800  0.092000  1.0
  H  H52  1  0.593600  0.092000  0.295200  1.0
  H  H53  1  0.406400  0.592000  0.795200  1.0
  H  H54  1  0.406400  0.704800  0.592000  1.0
  H  H55  1  0.406400  0.795200  0.908000  1.0
  H  H56  1  0.406400  0.908000  0.704800  1.0
  H  H57  1  0.699900  0.423000  0.804900  1.0
  H  H58  1  0.699900  0.695100  0.423000  1.0
  H  H59  1  0.699900  0.804900  0.077000  1.0
  H  H60  1  0.699900  0.077000  0.695100  1.0
  H  H61  1  0.300100  0.577000  0.195100  1.0
  H  H62  1  0.300100  0.304900  0.577000  1.0
  H  H63  1  0.300100  0.195100  0.923000  1.0
  H  H64  1  0.300100  0.923000  0.304900  1.0
  H  H65  1  0.814100  0.279700  0.917600  1.0
  H  H66  1  0.814100  0.582400  0.279700  1.0
  H  H67  1  0.814100  0.917600  0.220300  1.0
  H  H68  1  0.814100  0.220300  0.582400  1.0
  H  H69  1  0.185900  0.720300  0.082400  1.0
  H  H70  1  0.185900  0.417600  0.720300  1.0
  H  H71  1  0.185900  0.082400  0.779700  1.0
  H  H72  1  0.185900  0.779700  0.417600  1.0
  C  C73  1  0.652700  0.446400  0.189900  1.0
  C  C74  1  0.652700  0.310100  0.446400  1.0
  C  C75  1  0.652700  0.189900  0.053600  1.0
  C  C76  1  0.652700  0.053600  0.310100  1.0
  C  C77  1  0.347300  0.553600  0.810100  1.0
  C  C78  1  0.347300  0.689900  0.553600  1.0
  C  C79  1  0.347300  0.810100  0.946400  1.0
  C  C80  1  0.347300  0.946400  0.689900  1.0
  C  C81  1  0.780800  0.234200  0.953300  1.0
  C  C82  1  0.780800  0.546700  0.234200  1.0
  C  C83  1  0.780800  0.953300  0.265800  1.0
  C  C84  1  0.780800  0.265800  0.546700  1.0
  C  C85  1  0.219200  0.765800  0.046700  1.0
  C  C86  1  0.219200  0.453300  0.765800  1.0
  C  C87  1  0.219200  0.046700  0.734200  1.0
  C  C88  1  0.219200  0.734200  0.453300  1.0
  C  C89  1  0.822900  0.148300  0.950800  1.0
  C  C90  1  0.822900  0.549200  0.148300  1.0
  C  C91  1  0.822900  0.950800  0.351700  1.0
  C  C92  1  0.822900  0.351700  0.549200  1.0
  C  C93  1  0.177100  0.851700  0.049200  1.0
  C  C94  1  0.177100  0.450800  0.851700  1.0
  C  C95  1  0.177100  0.049200  0.648300  1.0
  C  C96  1  0.177100  0.648300  0.450800  1.0
  C  C97  1  0.882700  0.552500  0.950800  1.0
  C  C98  1  0.882700  0.549200  0.552500  1.0
  C  C99  1  0.882700  0.950800  0.947500  1.0
  C  C100  1  0.882700  0.947500  0.549200  1.0
  C  C101  1  0.117300  0.447500  0.049200  1.0
  C  C102  1  0.117300  0.450800  0.447500  1.0
  C  C103  1  0.117300  0.049200  0.052500  1.0
  C  C104  1  0.117300  0.052500  0.450800  1.0
  C  C105  1  0.897300  0.556300  0.858200  1.0
  C  C106  1  0.897300  0.641800  0.556300  1.0
  C  C107  1  0.897300  0.858200  0.943700  1.0
  C  C108  1  0.897300  0.943700  0.641800  1.0
  C  C109  1  0.102700  0.443700  0.141800  1.0
  C  C110  1  0.102700  0.358200  0.443700  1.0
  C  C111  1  0.102700  0.141800  0.056300  1.0
  C  C112  1  0.102700  0.056300  0.358200  1.0
  C  C113  1  0.828100  0.508000  0.803900  1.0
  C  C114  1  0.828100  0.696100  0.508000  1.0
  C  C115  1  0.828100  0.803900  0.992000  1.0
  C  C116  1  0.828100  0.992000  0.696100  1.0
  C  C117  1  0.171900  0.492000  0.196100  1.0
  C  C118  1  0.171900  0.303900  0.492000  1.0
  C  C119  1  0.171900  0.196100  0.008000  1.0
  C  C120  1  0.171900  0.008000  0.303900  1.0
  C  C121  1  0.746700  0.457000  0.842800  1.0
  C  C122  1  0.746700  0.657200  0.457000  1.0
  C  C123  1  0.746700  0.842800  0.043000  1.0
  C  C124  1  0.746700  0.043000  0.657200  1.0
  C  C125  1  0.253300  0.543000  0.157200  1.0
  C  C126  1  0.253300  0.342800  0.543000  1.0
  C  C127  1  0.253300  0.157200  0.957000  1.0
  C  C128  1  0.253300  0.957000  0.342800  1.0
  C  C129  1  0.771600  0.498700  0.083000  1.0
  C  C130  1  0.771600  0.417000  0.498700  1.0
  C  C131  1  0.771600  0.083000  0.001300  1.0
  C  C132  1  0.771600  0.001300  0.417000  1.0
  C  C133  1  0.228400  0.501300  0.917000  1.0
  C  C134  1  0.228400  0.583000  0.501300  1.0
  C  C135  1  0.228400  0.917000  0.998700  1.0
  C  C136  1  0.228400  0.998700  0.583000  1.0
  C  C137  1  0.798400  0.501300  0.985600  1.0
  C  C138  1  0.798400  0.514400  0.501300  1.0
  C  C139  1  0.798400  0.985600  0.998700  1.0
  C  C140  1  0.798400  0.998700  0.514400  1.0
  C  C141  1  0.201600  0.498700  0.014400  1.0
  C  C142  1  0.201600  0.485600  0.498700  1.0
  C  C143  1  0.201600  0.014400  0.001300  1.0
  C  C144  1  0.201600  0.001300  0.485600  1.0
  C  C145  1  0.471700  0.368100  0.985600  1.0
  C  C146  1  0.471700  0.514400  0.368100  1.0
  C  C147  1  0.471700  0.985600  0.131900  1.0
  C  C148  1  0.471700  0.131900  0.514400  1.0
  C  C149  1  0.528300  0.631900  0.014400  1.0
  C  C150  1  0.528300  0.485600  0.631900  1.0
  C  C151  1  0.528300  0.014400  0.868100  1.0
  C  C152  1  0.528300  0.868100  0.485600  1.0
  N  N153  1  0.686500  0.446200  0.105300  1.0
  N  N154  1  0.686500  0.394700  0.446200  1.0
  N  N155  1  0.686500  0.105300  0.053800  1.0
  N  N156  1  0.686500  0.053800  0.394700  1.0
  N  N157  1  0.313500  0.553800  0.894700  1.0
  N  N158  1  0.313500  0.605300  0.553800  1.0
  N  N159  1  0.313500  0.894700  0.946200  1.0
  N  N160  1  0.313500  0.946200  0.605300  1.0
  N  N161  1  0.731200  0.453700  0.931900  1.0
  N  N162  1  0.731200  0.568100  0.453700  1.0
  N  N163  1  0.731200  0.931900  0.046300  1.0
  N  N164  1  0.731200  0.046300  0.568100  1.0
  N  N165  1  0.268800  0.546300  0.068100  1.0
  N  N166  1  0.268800  0.431900  0.546300  1.0
  N  N167  1  0.268800  0.068100  0.953700  1.0
  N  N168  1  0.268800  0.953700  0.431900  1.0
  N  N169  1  0.695100  0.256100  0.003700  1.0
  N  N170  1  0.695100  0.496300  0.256100  1.0
  N  N171  1  0.695100  0.003700  0.243900  1.0
  N  N172  1  0.695100  0.243900  0.496300  1.0
  N  N173  1  0.304900  0.743900  0.996300  1.0
  N  N174  1  0.304900  0.503700  0.743900  1.0
  N  N175  1  0.304900  0.996300  0.756100  1.0
  N  N176  1  0.304900  0.756100  0.503700  1.0
  O  O177  1  0.381900  0.356600  0.979500  1.0
  O  O178  1  0.381900  0.520500  0.356600  1.0
  O  O179  1  0.381900  0.979500  0.143400  1.0
  O  O180  1  0.381900  0.143400  0.520500  1.0
  O  O181  1  0.618100  0.643400  0.020500  1.0
  O  O182  1  0.618100  0.479500  0.643400  1.0
  O  O183  1  0.618100  0.020500  0.856600  1.0
  O  O184  1  0.618100  0.856600  0.479500  1.0
  F  F185  1  0.010000  0.250000  0.250000  1
  F  F186  1  0.990000  0.750000  0.750000  1
  F  F187  1  0.751100  0.250000  0.250000  1
  F  F188  1  0.248900  0.750000  0.750000  1
  F  F189  1  0.524000  0.250000  0.250000  1
  F  F190  1  0.476000  0.750000  0.750000  1
  F  F191  1  0.268200  0.250000  0.250000  1
  F  F192  1  0.731800  0.750000  0.750000  1
  F  F193  1  0.870300  0.750000  0.250000  1.0
  F  F194  1  0.870300  0.250000  0.750000  1.0
  F  F195  1  0.129700  0.250000  0.750000  1.0
  F  F196  1  0.129700  0.750000  0.250000  1.0
  F  F197  1  0.628100  0.750000  0.250000  1.0
  F  F198  1  0.628100  0.250000  0.750000  1.0
  F  F199  1  0.371900  0.250000  0.750000  1.0
  F  F200  1  0.371900  0.750000  0.250000  1.0
  F  F201  1  0.999500  0.851900  0.213100  1.0
  F  F202  1  0.999500  0.286900  0.851900  1.0
  F  F203  1  0.999500  0.213100  0.648100  1.0
  F  F204  1  0.999500  0.648100  0.286900  1.0
  F  F205  1  0.000500  0.148100  0.786900  1.0
  F  F206  1  0.000500  0.713100  0.148100  1.0
  F  F207  1  0.000500  0.786900  0.351900  1.0
  F  F208  1  0.000500  0.351900  0.713100  1.0
  F  F209  1  0.500500  0.714300  0.351600  1.0
  F  F210  1  0.500500  0.148400  0.714300  1.0
  F  F211  1  0.500500  0.351600  0.785700  1.0
  F  F212  1  0.500500  0.785700  0.148400  1.0
  F  F213  1  0.499500  0.285700  0.648400  1.0
  F  F214  1  0.499500  0.851600  0.285700  1.0
  F  F215  1  0.499500  0.648400  0.214300  1.0
  F  F216  1  0.499500  0.214300  0.851600  1.0
  F  F217  1  0.881300  0.204500  0.347100  1.0
  F  F218  1  0.881300  0.152900  0.204500  1.0
  F  F219  1  0.881300  0.347100  0.295500  1.0
  F  F220  1  0.881300  0.295500  0.152900  1.0
  F  F221  1  0.118700  0.795500  0.652900  1.0
  F  F222  1  0.118700  0.847100  0.795500  1.0
  F  F223  1  0.118700  0.652900  0.704500  1.0
  F  F224  1  0.118700  0.704500  0.847100  1.0
  F  F225  1  0.397100  0.345600  0.203200  1.0
  F  F226  1  0.397100  0.296800  0.345600  1.0
  F  F227  1  0.397100  0.203200  0.154400  1.0
  F  F228  1  0.397100  0.154400  0.296800  1.0
  F  F229  1  0.602900  0.654400  0.796800  1.0
  F  F230  1  0.602900  0.703200  0.654400  1.0
  F  F231  1  0.602900  0.796800  0.845600  1.0
  F  F232  1  0.602900  0.845600  0.703200  1.0
