# generated using pymatgen
data_H48Pd2C36N12Cl4O23
_symmetry_space_group_name_H-M   'P 1'
_cell_length_a   12.91307097
_cell_length_b   12.91307097
_cell_length_c   17.05990000
_cell_angle_alpha   90.00000000
_cell_angle_beta   90.00000000
_cell_angle_gamma   94.02964191
_symmetry_Int_Tables_number   1
_chemical_formula_structural   H48Pd2C36N12Cl4O23
_chemical_formula_sum   'H96 Pd4 C72 N24 Cl8 O46'
_cell_volume   2837.66142725
_cell_formula_units_Z   2
loop_
 _symmetry_equiv_pos_site_id
 _symmetry_equiv_pos_as_xyz
  1  'x, y, z'
loop_
 _atom_site_type_symbol
 _atom_site_label
 _atom_site_symmetry_multiplicity
 _atom_site_fract_x
 _atom_site_fract_y
 _atom_site_fract_z
 _atom_site_occupancy
  C  C1  1  0.292400  0.367600  0.347300  1.0
  C  C2  1  0.707600  0.632400  0.847300  1.0
  C  C3  1  0.367600  0.292400  0.347300  1.0
  C  C4  1  0.632400  0.707600  0.847300  1.0
  C  C5  1  0.448400  0.662600  0.498600  1.0
  C  C6  1  0.551600  0.337400  0.998600  1.0
  C  C7  1  0.662600  0.448400  0.498600  1.0
  C  C8  1  0.337400  0.551600  0.998600  1.0
  C  C9  1  0.421300  0.753700  0.527800  1.0
  C  C10  1  0.578700  0.246300  0.027800  1.0
  C  C11  1  0.753700  0.421300  0.527800  1.0
  C  C12  1  0.246300  0.578700  0.027800  1.0
  C  C13  1  0.360400  0.755400  0.591400  1.0
  C  C14  1  0.639600  0.244600  0.091400  1.0
  C  C15  1  0.755400  0.360400  0.591400  1.0
  C  C16  1  0.244600  0.639600  0.091400  1.0
  C  C17  1  0.328800  0.661600  0.620800  1.0
  C  C18  1  0.671200  0.338400  0.120800  1.0
  C  C19  1  0.661600  0.328800  0.620800  1.0
  C  C20  1  0.338400  0.671200  0.120800  1.0
  C  C21  1  0.357200  0.572800  0.585100  1.0
  C  C22  1  0.642800  0.427200  0.085100  1.0
  C  C23  1  0.572800  0.357200  0.585100  1.0
  C  C24  1  0.427200  0.642800  0.085100  1.0
  C  C25  1  0.324700  0.854500  0.626100  1.0
  C  C26  1  0.675300  0.145500  0.126100  1.0
  C  C27  1  0.854500  0.324700  0.626100  1.0
  C  C28  1  0.145500  0.675300  0.126100  1.0
  C  C29  1  0.480900  0.874500  0.710300  1.0
  C  C30  1  0.519100  0.125500  0.210300  1.0
  C  C31  1  0.874500  0.480900  0.710300  1.0
  C  C32  1  0.125500  0.519100  0.210300  1.0
  C  C33  1  0.567600  0.953000  0.699100  1.0
  C  C34  1  0.432400  0.047000  0.199100  1.0
  C  C35  1  0.953000  0.567600  0.699100  1.0
  C  C36  1  0.047000  0.432400  0.199100  1.0
  C  C37  1  0.444500  0.089100  0.691200  1.0
  C  C38  1  0.555500  0.910900  0.191200  1.0
  C  C39  1  0.089100  0.444500  0.691200  1.0
  C  C40  1  0.910900  0.555500  0.191200  1.0
  C  C41  1  0.355800  0.009200  0.704200  1.0
  C  C42  1  0.644200  0.990800  0.204200  1.0
  C  C43  1  0.009200  0.355800  0.704200  1.0
  C  C44  1  0.990800  0.644200  0.204200  1.0
  C  C45  1  0.589600  0.114000  0.780400  1.0
  C  C46  1  0.410400  0.886000  0.280400  1.0
  C  C47  1  0.114000  0.589600  0.780400  1.0
  C  C48  1  0.886000  0.410400  0.280400  1.0
  C  C49  1  0.685900  0.072900  0.818600  1.0
  C  C50  1  0.314100  0.927100  0.318600  1.0
  C  C51  1  0.072900  0.685900  0.818600  1.0
  C  C52  1  0.927100  0.314100  0.318600  1.0
  C  C53  1  0.783700  0.100100  0.789000  1.0
  C  C54  1  0.216300  0.899900  0.289000  1.0
  C  C55  1  0.100100  0.783700  0.789000  1.0
  C  C56  1  0.899900  0.216300  0.289000  1.0
  C  C57  1  0.869200  0.070000  0.829100  1.0
  C  C58  1  0.130800  0.930000  0.329100  1.0
  C  C59  1  0.070000  0.869200  0.829100  1.0
  C  C60  1  0.930000  0.130800  0.329100  1.0
  C  C61  1  0.766600  0.991600  0.923600  1.0
  C  C62  1  0.233400  0.008400  0.423600  1.0
  C  C63  1  0.991600  0.766600  0.923600  1.0
  C  C64  1  0.008400  0.233400  0.423600  1.0
  C  C65  1  0.677600  0.017400  0.885000  1.0
  C  C66  1  0.322400  0.982600  0.385000  1.0
  C  C67  1  0.017400  0.677600  0.885000  1.0
  C  C68  1  0.982600  0.322400  0.385000  1.0
  C  C69  1  0.102700  0.030900  0.100700  1.0
  C  C70  1  0.897300  0.969100  0.600700  1.0
  C  C71  1  0.030900  0.102700  0.100700  1.0
  C  C72  1  0.969100  0.897300  0.600700  1.0
  Cl  Cl73  1  0.712220  0.712220  0.624730  1
  Cl  Cl74  1  0.287780  0.287780  0.124730  1
  Cl  Cl75  1  0.242200  0.242200  0.586040  1
  Cl  Cl76  1  0.757800  0.757800  0.086040  1
  Cl  Cl77  1  0.379350  0.937330  0.959580  1
  Cl  Cl78  1  0.620650  0.062670  0.459580  1
  Cl  Cl79  1  0.937330  0.379350  0.959580  1
  Cl  Cl80  1  0.062670  0.620650  0.459580  1
  H  H81  1  0.224800  0.331800  0.356200  1.0
  H  H82  1  0.775200  0.668200  0.856200  1.0
  H  H83  1  0.331800  0.224800  0.356200  1.0
  H  H84  1  0.668200  0.775200  0.856200  1.0
  H  H85  1  0.291100  0.398100  0.295400  1.0
  H  H86  1  0.708900  0.601900  0.795400  1.0
  H  H87  1  0.398100  0.291100  0.295400  1.0
  H  H88  1  0.601900  0.708900  0.795400  1.0
  H  H89  1  0.495500  0.664900  0.457300  1.0
  H  H90  1  0.504500  0.335100  0.957300  1.0
  H  H91  1  0.664900  0.495500  0.457300  1.0
  H  H92  1  0.335100  0.504500  0.957300  1.0
  H  H93  1  0.444800  0.815600  0.503800  1.0
  H  H94  1  0.555200  0.184400  0.003800  1.0
  H  H95  1  0.815600  0.444800  0.503800  1.0
  H  H96  1  0.184400  0.555200  0.003800  1.0
  H  H97  1  0.287500  0.657100  0.665500  1.0
  H  H98  1  0.712500  0.342900  0.165500  1.0
  H  H99  1  0.657100  0.287500  0.665500  1.0
  H  H100  1  0.342900  0.712500  0.165500  1.0
  H  H101  1  0.333900  0.509300  0.606700  1.0
  H  H102  1  0.666100  0.490700  0.106700  1.0
  H  H103  1  0.509300  0.333900  0.606700  1.0
  H  H104  1  0.490700  0.666100  0.106700  1.0
  H  H105  1  0.498400  0.809200  0.687300  1.0
  H  H106  1  0.501600  0.190800  0.187300  1.0
  H  H107  1  0.809200  0.498400  0.687300  1.0
  H  H108  1  0.190800  0.501600  0.187300  1.0
  H  H109  1  0.469300  0.863300  0.765900  1.0
  H  H110  1  0.530700  0.136700  0.265900  1.0
  H  H111  1  0.863300  0.469300  0.765900  1.0
  H  H112  1  0.136700  0.530700  0.265900  1.0
  H  H113  1  0.585600  0.957400  0.643900  1.0
  H  H114  1  0.414400  0.042600  0.143900  1.0
  H  H115  1  0.957400  0.585600  0.643900  1.0
  H  H116  1  0.042600  0.414400  0.143900  1.0
  H  H117  1  0.627800  0.932600  0.727700  1.0
  H  H118  1  0.372200  0.067400  0.227700  1.0
  H  H119  1  0.932600  0.627800  0.727700  1.0
  H  H120  1  0.067400  0.372200  0.227700  1.0
  H  H121  1  0.455600  0.099200  0.635400  1.0
  H  H122  1  0.544400  0.900800  0.135400  1.0
  H  H123  1  0.099200  0.455600  0.635400  1.0
  H  H124  1  0.900800  0.544400  0.135400  1.0
  H  H125  1  0.427600  0.154800  0.713600  1.0
  H  H126  1  0.572400  0.845200  0.213600  1.0
  H  H127  1  0.154800  0.427600  0.713600  1.0
  H  H128  1  0.845200  0.572400  0.213600  1.0
  H  H129  1  0.340000  0.003800  0.759700  1.0
  H  H130  1  0.660000  0.996200  0.259700  1.0
  H  H131  1  0.003800  0.340000  0.759700  1.0
  H  H132  1  0.996200  0.660000  0.259700  1.0
  H  H133  1  0.294500  0.029700  0.677000  1.0
  H  H134  1  0.705500  0.970300  0.177000  1.0
  H  H135  1  0.029700  0.294500  0.677000  1.0
  H  H136  1  0.970300  0.705500  0.177000  1.0
  H  H137  1  0.791800  0.138200  0.742800  1.0
  H  H138  1  0.208200  0.861800  0.242800  1.0
  H  H139  1  0.138200  0.791800  0.742800  1.0
  H  H140  1  0.861800  0.208200  0.242800  1.0
  H  H141  1  0.934900  0.086300  0.808400  1.0
  H  H142  1  0.065100  0.913700  0.308400  1.0
  H  H143  1  0.086300  0.934900  0.808400  1.0
  H  H144  1  0.913700  0.065100  0.308400  1.0
  H  H145  1  0.760000  0.954200  0.970100  1.0
  H  H146  1  0.240000  0.045800  0.470100  1.0
  H  H147  1  0.954200  0.760000  0.970100  1.0
  H  H148  1  0.045800  0.240000  0.470100  1.0
  H  H149  1  0.612400  0.996400  0.905100  1.0
  H  H150  1  0.387600  0.003600  0.405100  1.0
  H  H151  1  0.996400  0.612400  0.905100  1.0
  H  H152  1  0.003600  0.387600  0.405100  1.0
  H  H153  1  0.092900  0.989700  0.148000  1.0
  H  H154  1  0.907100  0.010300  0.648000  1.0
  H  H155  1  0.989700  0.092900  0.148000  1.0
  H  H156  1  0.010300  0.907100  0.648000  1.0
  H  H157  1  0.170800  0.067600  0.104400  1.0
  H  H158  1  0.829200  0.932400  0.604400  1.0
  H  H159  1  0.067600  0.170800  0.104400  1.0
  H  H160  1  0.932400  0.829200  0.604400  1.0
  H  H161  1  0.098900  0.895900  0.054100  1.0
  H  H162  1  0.901100  0.104100  0.554100  1.0
  H  H163  1  0.895900  0.098900  0.054100  1.0
  H  H164  1  0.104100  0.901100  0.554100  1.0
  H  H165  1  0.165300  0.971900  0.010900  1.0
  H  H166  1  0.834700  0.028100  0.510900  1.0
  H  H167  1  0.971900  0.165300  0.010900  1.0
  H  H168  1  0.028100  0.834700  0.510900  1.0
  H  H169  1  0.333000  0.501000  0.367000  1.0
  H  H170  1  0.667000  0.499000  0.867000  1.0
  H  H171  1  0.501000  0.333000  0.367000  1.0
  H  H172  1  0.499000  0.667000  0.867000  1.0
  H  H173  1  0.253700  0.486300  0.427000  1.0
  H  H174  1  0.746300  0.513700  0.927000  1.0
  H  H175  1  0.486300  0.253700  0.427000  1.0
  H  H176  1  0.513700  0.746300  0.927000  1.0
  N  N177  1  0.305900  0.449700  0.402900  1.0
  N  N178  1  0.694100  0.550300  0.902900  1.0
  N  N179  1  0.449700  0.305900  0.402900  1.0
  N  N180  1  0.550300  0.694100  0.902900  1.0
  N  N181  1  0.414300  0.572300  0.523500  1.0
  N  N182  1  0.585700  0.427700  0.023500  1.0
  N  N183  1  0.572300  0.414300  0.523500  1.0
  N  N184  1  0.427700  0.585700  0.023500  1.0
  N  N185  1  0.385400  0.907400  0.674000  1.0
  N  N186  1  0.614600  0.092600  0.174000  1.0
  N  N187  1  0.907400  0.385400  0.674000  1.0
  N  N188  1  0.092600  0.614600  0.174000  1.0
  N  N189  1  0.539000  0.056000  0.727200  1.0
  N  N190  1  0.461000  0.944000  0.227200  1.0
  N  N191  1  0.056000  0.539000  0.727200  1.0
  N  N192  1  0.944000  0.461000  0.227200  1.0
  N  N193  1  0.861000  0.018200  0.896400  1.0
  N  N194  1  0.139000  0.981800  0.396400  1.0
  N  N195  1  0.018200  0.861000  0.896400  1.0
  N  N196  1  0.981800  0.139000  0.396400  1.0
  N  N197  1  0.104600  0.961800  0.036600  1.0
  N  N198  1  0.895400  0.038200  0.536600  1.0
  N  N199  1  0.961800  0.104600  0.036600  1.0
  N  N200  1  0.038200  0.895400  0.536600  1.0
  O  O201  1  0.638200  0.638200  0.653600  1
  O  O202  1  0.361800  0.361800  0.153600  1
  O  O203  1  0.763400  0.763400  0.689700  1
  O  O204  1  0.236600  0.236600  0.189700  1
  O  O205  1  0.271400  0.271400  0.660500  1
  O  O206  1  0.728600  0.728600  0.160500  1
  O  O207  1  0.161400  0.161400  0.587500  1
  O  O208  1  0.838600  0.838600  0.087500  1
  O  O209  1  0.294700  0.901500  0.919300  1
  O  O210  1  0.705300  0.098500  0.419300  1
  O  O211  1  0.901500  0.294700  0.919300  1
  O  O212  1  0.098500  0.705300  0.419300  1
  O  O213  1  0.458600  0.883400  0.947600  1
  O  O214  1  0.541400  0.116600  0.447600  1
  O  O215  1  0.883400  0.458600  0.947600  1
  O  O216  1  0.116600  0.541400  0.447600  1
  O  O217  1  0.421400  0.032400  0.930300  1
  O  O218  1  0.578600  0.967600  0.430300  1
  O  O219  1  0.032400  0.421400  0.930300  1
  O  O220  1  0.967600  0.578600  0.430300  1
  O  O221  1  0.343200  0.958400  0.027000  1
  O  O222  1  0.656800  0.041600  0.527000  1
  O  O223  1  0.958400  0.343200  0.027000  1
  O  O224  1  0.041600  0.656800  0.527000  1
  O  O225  1  0.712300  0.348100  0.835200  1
  O  O226  1  0.287700  0.651900  0.335200  1
  O  O227  1  0.348100  0.712300  0.835200  1
  O  O228  1  0.651900  0.287700  0.335200  1
  O  O229  1  0.115600  0.115600  0.782000  1
  O  O230  1  0.884400  0.884400  0.282000  1
  O  O231  1  0.238700  0.880300  0.608200  1.0
  O  O232  1  0.761300  0.119700  0.108200  1.0
  O  O233  1  0.880300  0.238700  0.608200  1.0
  O  O234  1  0.119700  0.761300  0.108200  1.0
  O  O235  1  0.564900  0.197900  0.802200  1.0
  O  O236  1  0.435100  0.802100  0.302200  1.0
  O  O237  1  0.197900  0.564900  0.802200  1.0
  O  O238  1  0.802100  0.435100  0.302200  1.0
  O  O239  1  0.670000  0.784800  0.578900  1.0
  O  O240  1  0.330000  0.215200  0.078900  1.0
  O  O241  1  0.784800  0.670000  0.578900  1.0
  O  O242  1  0.215200  0.330000  0.078900  1.0
  O  O243  1  0.202100  0.328300  0.545900  1.0
  O  O244  1  0.797900  0.671700  0.045900  1.0
  O  O245  1  0.328300  0.202100  0.545900  1.0
  O  O246  1  0.671700  0.797900  0.045900  1.0
  Pd  Pd247  1  0.438400  0.438400  0.465880  1
  Pd  Pd248  1  0.561600  0.561600  0.965880  1
  Pd  Pd249  1  0.985620  0.985620  0.962630  1
  Pd  Pd250  1  0.014380  0.014380  0.462630  1
