# generated using pymatgen
data_Sn3H114C60I(N2O5)3
_symmetry_space_group_name_H-M   'P 1'
_cell_length_a   16.74540799
_cell_length_b   16.74540799
_cell_length_c   16.74540799
_cell_angle_alpha   104.80321530
_cell_angle_beta   104.80321530
_cell_angle_gamma   104.80321530
_symmetry_Int_Tables_number   1
_chemical_formula_structural   Sn3H114C60I(N2O5)3
_chemical_formula_sum   'Sn6 H228 C120 I2 N12 O30'
_cell_volume   4122.47792993
_cell_formula_units_Z   2
loop_
 _symmetry_equiv_pos_site_id
 _symmetry_equiv_pos_as_xyz
  1  'x, y, z'
loop_
 _atom_site_type_symbol
 _atom_site_label
 _atom_site_symmetry_multiplicity
 _atom_site_fract_x
 _atom_site_fract_y
 _atom_site_fract_z
 _atom_site_occupancy
  C  C1  1  0.864600  0.642900  0.950900  1
  C  C2  1  0.950900  0.864600  0.642900  1
  C  C3  1  0.642900  0.950900  0.864600  1
  C  C4  1  0.135400  0.357100  0.049100  1
  C  C5  1  0.049100  0.135400  0.357100  1
  C  C6  1  0.357100  0.049100  0.135400  1
  C  C7  1  0.723400  0.517100  0.075700  1.0
  C  C8  1  0.075700  0.723400  0.517100  1.0
  C  C9  1  0.517100  0.075700  0.723400  1.0
  C  C10  1  0.276600  0.482900  0.924300  1.0
  C  C11  1  0.924300  0.276600  0.482900  1.0
  C  C12  1  0.482900  0.924300  0.276600  1.0
  C  C13  1  0.679000  0.418300  0.037400  1.0
  C  C14  1  0.037400  0.679000  0.418300  1.0
  C  C15  1  0.418300  0.037400  0.679000  1.0
  C  C16  1  0.321000  0.581700  0.962600  1.0
  C  C17  1  0.962600  0.321000  0.581700  1.0
  C  C18  1  0.581700  0.962600  0.321000  1.0
  C  C19  1  0.685400  0.355300  0.073600  1.0
  C  C20  1  0.073600  0.685400  0.355300  1.0
  C  C21  1  0.355300  0.073600  0.685400  1.0
  C  C22  1  0.314600  0.644700  0.926400  1.0
  C  C23  1  0.926400  0.314600  0.644700  1.0
  C  C24  1  0.644700  0.926400  0.314600  1.0
  C  C25  1  0.596000  0.290300  0.935200  1.0
  C  C26  1  0.935200  0.596000  0.290300  1.0
  C  C27  1  0.290300  0.935200  0.596000  1.0
  C  C28  1  0.404000  0.709700  0.064800  1.0
  C  C29  1  0.064800  0.404000  0.709700  1.0
  C  C30  1  0.709700  0.064800  0.404000  1.0
  C  C31  1  0.594600  0.417400  0.887200  1.0
  C  C32  1  0.887200  0.594600  0.417400  1.0
  C  C33  1  0.417400  0.887200  0.594600  1.0
  C  C34  1  0.405400  0.582600  0.112800  1.0
  C  C35  1  0.112800  0.405400  0.582600  1.0
  C  C36  1  0.582600  0.112800  0.405400  1.0
  C  C37  1  0.615200  0.185100  0.012800  1.0
  C  C38  1  0.012800  0.615200  0.185100  1.0
  C  C39  1  0.185100  0.012800  0.615200  1.0
  C  C40  1  0.384800  0.814900  0.987200  1.0
  C  C41  1  0.987200  0.384800  0.814900  1.0
  C  C42  1  0.814900  0.987200  0.384800  1.0
  C  C43  1  0.734000  0.364600  0.166000  1.0
  C  C44  1  0.166000  0.734000  0.364600  1.0
  C  C45  1  0.364600  0.166000  0.734000  1.0
  C  C46  1  0.266000  0.635400  0.834000  1.0
  C  C47  1  0.834000  0.266000  0.635400  1.0
  C  C48  1  0.635400  0.834000  0.266000  1.0
  C  C49  1  0.665200  0.619200  0.244800  1.0
  C  C50  1  0.244800  0.665200  0.619200  1.0
  C  C51  1  0.619200  0.244800  0.665200  1.0
  C  C52  1  0.334800  0.380800  0.755200  1.0
  C  C53  1  0.755200  0.334800  0.380800  1.0
  C  C54  1  0.380800  0.755200  0.334800  1.0
  C  C55  1  0.681200  0.662200  0.340900  1.0
  C  C56  1  0.340900  0.681200  0.662200  1.0
  C  C57  1  0.662200  0.340900  0.681200  1.0
  C  C58  1  0.318800  0.337800  0.659100  1.0
  C  C59  1  0.659100  0.318800  0.337800  1.0
  C  C60  1  0.337800  0.659100  0.318800  1.0
  C  C61  1  0.651200  0.594500  0.383400  1.0
  C  C62  1  0.383400  0.651200  0.594500  1.0
  C  C63  1  0.594500  0.383400  0.651200  1.0
  C  C64  1  0.348800  0.405500  0.616600  1.0
  C  C65  1  0.616600  0.348800  0.405500  1.0
  C  C66  1  0.405500  0.616600  0.348800  1.0
  C  C67  1  0.669700  0.632000  0.481300  1.0
  C  C68  1  0.481300  0.669700  0.632000  1.0
  C  C69  1  0.632000  0.481300  0.669700  1.0
  C  C70  1  0.330300  0.368000  0.518700  1.0
  C  C71  1  0.518700  0.330300  0.368000  1.0
  C  C72  1  0.368000  0.518700  0.330300  1.0
  C  C73  1  0.830900  0.759900  0.179600  1.0
  C  C74  1  0.179600  0.830900  0.759900  1.0
  C  C75  1  0.759900  0.179600  0.830900  1.0
  C  C76  1  0.169100  0.240100  0.820400  1.0
  C  C77  1  0.820400  0.169100  0.240100  1.0
  C  C78  1  0.240100  0.820400  0.169100  1.0
  C  C79  1  0.893900  0.799100  0.274200  1.0
  C  C80  1  0.274200  0.893900  0.799100  1.0
  C  C81  1  0.799100  0.274200  0.893900  1.0
  C  C82  1  0.106100  0.200900  0.725800  1.0
  C  C83  1  0.725800  0.106100  0.200900  1.0
  C  C84  1  0.200900  0.725800  0.106100  1.0
  C  C85  1  0.985700  0.856000  0.285100  1.0
  C  C86  1  0.285100  0.985700  0.856000  1.0
  C  C87  1  0.856000  0.285100  0.985700  1.0
  C  C88  1  0.014300  0.144000  0.714900  1.0
  C  C89  1  0.714900  0.014300  0.144000  1.0
  C  C90  1  0.144000  0.714900  0.014300  1.0
  C  C91  1  0.045300  0.901900  0.381500  1.0
  C  C92  1  0.381500  0.045300  0.901900  1.0
  C  C93  1  0.901900  0.381500  0.045300  1.0
  C  C94  1  0.954700  0.098100  0.618500  1.0
  C  C95  1  0.618500  0.954700  0.098100  1.0
  C  C96  1  0.098100  0.618500  0.954700  1.0
  C  C97  1  0.599800  0.699400  0.055400  1.0
  C  C98  1  0.055400  0.599800  0.699400  1.0
  C  C99  1  0.699400  0.055400  0.599800  1.0
  C  C100  1  0.400200  0.300600  0.944600  1.0
  C  C101  1  0.944600  0.400200  0.300600  1.0
  C  C102  1  0.300600  0.944600  0.400200  1.0
  C  C103  1  0.632700  0.710300  0.979800  1.0
  C  C104  1  0.979800  0.632700  0.710300  1.0
  C  C105  1  0.710300  0.979800  0.632700  1.0
  C  C106  1  0.367300  0.289700  0.020200  1.0
  C  C107  1  0.020200  0.367300  0.289700  1.0
  C  C108  1  0.289700  0.020200  0.367300  1.0
  C  C109  1  0.561300  0.699600  0.897500  1.0
  C  C110  1  0.897500  0.561300  0.699600  1.0
  C  C111  1  0.699600  0.897500  0.561300  1.0
  C  C112  1  0.438700  0.300400  0.102500  1.0
  C  C113  1  0.102500  0.438700  0.300400  1.0
  C  C114  1  0.300400  0.102500  0.438700  1.0
  C  C115  1  0.499100  0.604100  0.849700  1.0
  C  C116  1  0.849700  0.499100  0.604100  1.0
  C  C117  1  0.604100  0.849700  0.499100  1.0
  C  C118  1  0.500900  0.395900  0.150300  1.0
  C  C119  1  0.150300  0.500900  0.395900  1.0
  C  C120  1  0.395900  0.150300  0.500900  1.0
  H  H121  1  0.892800  0.764900  0.967200  1
  H  H122  1  0.967200  0.892800  0.764900  1
  H  H123  1  0.764900  0.967200  0.892800  1
  H  H124  1  0.107200  0.235100  0.032800  1
  H  H125  1  0.032800  0.107200  0.235100  1
  H  H126  1  0.235100  0.032800  0.107200  1
  H  H127  1  0.920900  0.635900  0.968800  1
  H  H128  1  0.968800  0.920900  0.635900  1
  H  H129  1  0.635900  0.968800  0.920900  1
  H  H130  1  0.079100  0.364100  0.031200  1
  H  H131  1  0.031200  0.079100  0.364100  1
  H  H132  1  0.364100  0.031200  0.079100  1
  H  H133  1  0.824000  0.591500  0.902500  1
  H  H134  1  0.902500  0.824000  0.591500  1
  H  H135  1  0.591500  0.902500  0.824000  1
  H  H136  1  0.176000  0.408500  0.097500  1
  H  H137  1  0.097500  0.176000  0.408500  1
  H  H138  1  0.408500  0.097500  0.176000  1
  H  H139  1  0.843000  0.650400  0.999200  1
  H  H140  1  0.999200  0.843000  0.650400  1
  H  H141  1  0.650400  0.999200  0.843000  1
  H  H142  1  0.157000  0.349600  0.000800  1
  H  H143  1  0.000800  0.157000  0.349600  1
  H  H144  1  0.349600  0.000800  0.157000  1
  H  H145  1  0.557800  0.247800  0.881800  1.0
  H  H146  1  0.881800  0.557800  0.247800  1.0
  H  H147  1  0.247800  0.881800  0.557800  1.0
  H  H148  1  0.442200  0.752200  0.118200  1.0
  H  H149  1  0.118200  0.442200  0.752200  1.0
  H  H150  1  0.752200  0.118200  0.442200  1.0
  H  H151  1  0.553200  0.372800  0.833400  1.0
  H  H152  1  0.833400  0.553200  0.372800  1.0
  H  H153  1  0.372800  0.833400  0.553200  1.0
  H  H154  1  0.446800  0.627200  0.166600  1.0
  H  H155  1  0.166600  0.446800  0.627200  1.0
  H  H156  1  0.627200  0.166600  0.446800  1.0
  H  H157  1  0.644800  0.448800  0.876100  1.0
  H  H158  1  0.876100  0.644800  0.448800  1.0
  H  H159  1  0.448800  0.876100  0.644800  1.0
  H  H160  1  0.355200  0.551200  0.123900  1.0
  H  H161  1  0.123900  0.355200  0.551200  1.0
  H  H162  1  0.551200  0.123900  0.355200  1.0
  H  H163  1  0.567300  0.457600  0.910000  1.0
  H  H164  1  0.910000  0.567300  0.457600  1.0
  H  H165  1  0.457600  0.910000  0.567300  1.0
  H  H166  1  0.432700  0.542400  0.090000  1.0
  H  H167  1  0.090000  0.432700  0.542400  1.0
  H  H168  1  0.542400  0.090000  0.432700  1.0
  H  H169  1  0.574300  0.142700  0.957500  1.0
  H  H170  1  0.957500  0.574300  0.142700  1.0
  H  H171  1  0.142700  0.957500  0.574300  1.0
  H  H172  1  0.425700  0.857300  0.042500  1.0
  H  H173  1  0.042500  0.425700  0.857300  1.0
  H  H174  1  0.857300  0.042500  0.425700  1.0
  H  H175  1  0.590900  0.181600  0.058300  1.0
  H  H176  1  0.058300  0.590900  0.181600  1.0
  H  H177  1  0.181600  0.058300  0.590900  1.0
  H  H178  1  0.409100  0.818400  0.941700  1.0
  H  H179  1  0.941700  0.409100  0.818400  1.0
  H  H180  1  0.818400  0.941700  0.409100  1.0
  H  H181  1  0.669300  0.173100  0.025900  1.0
  H  H182  1  0.025900  0.669300  0.173100  1.0
  H  H183  1  0.173100  0.025900  0.669300  1.0
  H  H184  1  0.330700  0.826900  0.974100  1.0
  H  H185  1  0.974100  0.330700  0.826900  1.0
  H  H186  1  0.826900  0.974100  0.330700  1.0
  H  H187  1  0.603100  0.584200  0.217100  1.0
  H  H188  1  0.217100  0.603100  0.584200  1.0
  H  H189  1  0.584200  0.217100  0.603100  1.0
  H  H190  1  0.396900  0.415800  0.782900  1.0
  H  H191  1  0.782900  0.396900  0.415800  1.0
  H  H192  1  0.415800  0.782900  0.396900  1.0
  H  H193  1  0.697200  0.578500  0.240900  1.0
  H  H194  1  0.240900  0.697200  0.578500  1.0
  H  H195  1  0.578500  0.240900  0.697200  1.0
  H  H196  1  0.302800  0.421500  0.759100  1.0
  H  H197  1  0.759100  0.302800  0.421500  1.0
  H  H198  1  0.421500  0.759100  0.302800  1.0
  H  H199  1  0.649600  0.703400  0.347200  1.0
  H  H200  1  0.347200  0.649600  0.703400  1.0
  H  H201  1  0.703400  0.347200  0.649600  1.0
  H  H202  1  0.350400  0.296600  0.652800  1.0
  H  H203  1  0.652800  0.350400  0.296600  1.0
  H  H204  1  0.296600  0.652800  0.350400  1.0
  H  H205  1  0.743400  0.695300  0.371300  1.0
  H  H206  1  0.371300  0.743400  0.695300  1.0
  H  H207  1  0.695300  0.371300  0.743400  1.0
  H  H208  1  0.256600  0.304700  0.628700  1.0
  H  H209  1  0.628700  0.256600  0.304700  1.0
  H  H210  1  0.304700  0.628700  0.256600  1.0
  H  H211  1  0.588400  0.563800  0.354200  1.0
  H  H212  1  0.354200  0.588400  0.563800  1.0
  H  H213  1  0.563800  0.354200  0.588400  1.0
  H  H214  1  0.411600  0.436200  0.645800  1.0
  H  H215  1  0.645800  0.411600  0.436200  1.0
  H  H216  1  0.436200  0.645800  0.411600  1.0
  H  H217  1  0.680100  0.551300  0.373100  1.0
  H  H218  1  0.373100  0.680100  0.551300  1.0
  H  H219  1  0.551300  0.373100  0.680100  1.0
  H  H220  1  0.319900  0.448700  0.626900  1.0
  H  H221  1  0.626900  0.319900  0.448700  1.0
  H  H222  1  0.448700  0.626900  0.319900  1.0
  H  H223  1  0.731800  0.662100  0.511200  1.0
  H  H224  1  0.511200  0.731800  0.662100  1.0
  H  H225  1  0.662100  0.511200  0.731800  1.0
  H  H226  1  0.268200  0.337900  0.488800  1.0
  H  H227  1  0.488800  0.268200  0.337900  1.0
  H  H228  1  0.337900  0.488800  0.268200  1.0
  H  H229  1  0.650000  0.585100  0.502600  1.0
  H  H230  1  0.502600  0.650000  0.585100  1.0
  H  H231  1  0.585100  0.502600  0.650000  1.0
  H  H232  1  0.350000  0.414900  0.497400  1.0
  H  H233  1  0.497400  0.350000  0.414900  1.0
  H  H234  1  0.414900  0.497400  0.350000  1.0
  H  H235  1  0.639100  0.672500  0.492400  1.0
  H  H236  1  0.492400  0.639100  0.672500  1.0
  H  H237  1  0.672500  0.492400  0.639100  1.0
  H  H238  1  0.360900  0.327500  0.507600  1.0
  H  H239  1  0.507600  0.360900  0.327500  1.0
  H  H240  1  0.327500  0.507600  0.360900  1.0
  H  H241  1  0.850700  0.717800  0.145800  1.0
  H  H242  1  0.145800  0.850700  0.717800  1.0
  H  H243  1  0.717800  0.145800  0.850700  1.0
  H  H244  1  0.149300  0.282200  0.854200  1.0
  H  H245  1  0.854200  0.149300  0.282200  1.0
  H  H246  1  0.282200  0.854200  0.149300  1.0
  H  H247  1  0.833300  0.806600  0.154800  1.0
  H  H248  1  0.154800  0.833300  0.806600  1.0
  H  H249  1  0.806600  0.154800  0.833300  1.0
  H  H250  1  0.166700  0.193400  0.845200  1.0
  H  H251  1  0.845200  0.166700  0.193400  1.0
  H  H252  1  0.193400  0.845200  0.166700  1.0
  H  H253  1  0.898700  0.751600  0.296200  1.0
  H  H254  1  0.296200  0.898700  0.751600  1.0
  H  H255  1  0.751600  0.296200  0.898700  1.0
  H  H256  1  0.101300  0.248400  0.703800  1.0
  H  H257  1  0.703800  0.101300  0.248400  1.0
  H  H258  1  0.248400  0.703800  0.101300  1.0
  H  H259  1  0.869500  0.834300  0.309900  1.0
  H  H260  1  0.309900  0.869500  0.834300  1.0
  H  H261  1  0.834300  0.309900  0.869500  1.0
  H  H262  1  0.130500  0.165700  0.690100  1.0
  H  H263  1  0.690100  0.130500  0.165700  1.0
  H  H264  1  0.165700  0.690100  0.130500  1.0
  H  H265  1  0.980700  0.900000  0.258100  1.0
  H  H266  1  0.258100  0.980700  0.900000  1.0
  H  H267  1  0.900000  0.258100  0.980700  1.0
  H  H268  1  0.019300  0.100000  0.741900  1.0
  H  H269  1  0.741900  0.019300  0.100000  1.0
  H  H270  1  0.100000  0.741900  0.019300  1.0
  H  H271  1  0.012600  0.819400  0.254300  1.0
  H  H272  1  0.254300  0.012600  0.819400  1.0
  H  H273  1  0.819400  0.254300  0.012600  1.0
  H  H274  1  0.987400  0.180600  0.745700  1.0
  H  H275  1  0.745700  0.987400  0.180600  1.0
  H  H276  1  0.180600  0.745700  0.987400  1.0
  H  H277  1  0.018600  0.937500  0.412500  1.0
  H  H278  1  0.412500  0.018600  0.937500  1.0
  H  H279  1  0.937500  0.412500  0.018600  1.0
  H  H280  1  0.981400  0.062500  0.587500  1.0
  H  H281  1  0.587500  0.981400  0.062500  1.0
  H  H282  1  0.062500  0.587500  0.981400  1.0
  H  H283  1  0.101300  0.938500  0.384600  1.0
  H  H284  1  0.384600  0.101300  0.938500  1.0
  H  H285  1  0.938500  0.384600  0.101300  1.0
  H  H286  1  0.898700  0.061500  0.615400  1.0
  H  H287  1  0.615400  0.898700  0.061500  1.0
  H  H288  1  0.061500  0.615400  0.898700  1.0
  H  H289  1  0.053400  0.858400  0.407600  1.0
  H  H290  1  0.407600  0.053400  0.858400  1.0
  H  H291  1  0.858400  0.407600  0.053400  1.0
  H  H292  1  0.946600  0.141600  0.592400  1.0
  H  H293  1  0.592400  0.946600  0.141600  1.0
  H  H294  1  0.141600  0.592400  0.946600  1.0
  H  H295  1  0.549800  0.645400  0.033100  1.0
  H  H296  1  0.033100  0.549800  0.645400  1.0
  H  H297  1  0.645400  0.033100  0.549800  1.0
  H  H298  1  0.450200  0.354600  0.966900  1.0
  H  H299  1  0.966900  0.450200  0.354600  1.0
  H  H300  1  0.354600  0.966900  0.450200  1.0
  H  H301  1  0.579700  0.747700  0.075800  1.0
  H  H302  1  0.075800  0.579700  0.747700  1.0
  H  H303  1  0.747700  0.075800  0.579700  1.0
  H  H304  1  0.420300  0.252300  0.924200  1.0
  H  H305  1  0.924200  0.420300  0.252300  1.0
  H  H306  1  0.252300  0.924200  0.420300  1.0
  H  H307  1  0.676900  0.768200  0.999800  1.0
  H  H308  1  0.999800  0.676900  0.768200  1.0
  H  H309  1  0.768200  0.999800  0.676900  1.0
  H  H310  1  0.323100  0.231800  0.000200  1.0
  H  H311  1  0.000200  0.323100  0.231800  1.0
  H  H312  1  0.231800  0.000200  0.323100  1.0
  H  H313  1  0.660700  0.667100  0.965300  1.0
  H  H314  1  0.965300  0.660700  0.667100  1.0
  H  H315  1  0.667100  0.965300  0.660700  1.0
  H  H316  1  0.339300  0.332900  0.034700  1.0
  H  H317  1  0.034700  0.339300  0.332900  1.0
  H  H318  1  0.332900  0.034700  0.339300  1.0
  H  H319  1  0.588300  0.719500  0.858100  1.0
  H  H320  1  0.858100  0.588300  0.719500  1.0
  H  H321  1  0.719500  0.858100  0.588300  1.0
  H  H322  1  0.411700  0.280500  0.141900  1.0
  H  H323  1  0.141900  0.411700  0.280500  1.0
  H  H324  1  0.280500  0.141900  0.411700  1.0
  H  H325  1  0.527500  0.736400  0.913100  1.0
  H  H326  1  0.913100  0.527500  0.736400  1.0
  H  H327  1  0.736400  0.913100  0.527500  1.0
  H  H328  1  0.472500  0.263600  0.086900  1.0
  H  H329  1  0.086900  0.472500  0.263600  1.0
  H  H330  1  0.263600  0.086900  0.472500  1.0
  H  H331  1  0.531900  0.567700  0.832300  1.0
  H  H332  1  0.832300  0.531900  0.567700  1.0
  H  H333  1  0.567700  0.832300  0.531900  1.0
  H  H334  1  0.468100  0.432300  0.167700  1.0
  H  H335  1  0.167700  0.468100  0.432300  1.0
  H  H336  1  0.432300  0.167700  0.468100  1.0
  H  H337  1  0.454500  0.600800  0.798600  1.0
  H  H338  1  0.798600  0.454500  0.600800  1.0
  H  H339  1  0.600800  0.798600  0.454500  1.0
  H  H340  1  0.545500  0.399200  0.201400  1.0
  H  H341  1  0.201400  0.545500  0.399200  1.0
  H  H342  1  0.399200  0.201400  0.545500  1.0
  H  H343  1  0.472100  0.584200  0.888500  1.0
  H  H344  1  0.888500  0.472100  0.584200  1.0
  H  H345  1  0.584200  0.888500  0.472100  1.0
  H  H346  1  0.527900  0.415800  0.111500  1.0
  H  H347  1  0.111500  0.527900  0.415800  1.0
  H  H348  1  0.415800  0.111500  0.527900  1.0
  I  I349  1  0.908767  0.908767  0.908767  1
  I  I350  1  0.091233  0.091233  0.091233  1
  N  N351  1  0.622700  0.376200  0.951600  1.0
  N  N352  1  0.951600  0.622700  0.376200  1.0
  N  N353  1  0.376200  0.951600  0.622700  1.0
  N  N354  1  0.377300  0.623800  0.048400  1.0
  N  N355  1  0.048400  0.377300  0.623800  1.0
  N  N356  1  0.623800  0.048400  0.377300  1.0
  N  N357  1  0.632500  0.274400  0.007300  1.0
  N  N358  1  0.007300  0.632500  0.274400  1.0
  N  N359  1  0.274400  0.007300  0.632500  1.0
  N  N360  1  0.367500  0.725600  0.992700  1.0
  N  N361  1  0.992700  0.367500  0.725600  1.0
  N  N362  1  0.725600  0.992700  0.367500  1.0
  O  O363  1  0.873500  0.720500  0.923500  1
  O  O364  1  0.923500  0.873500  0.720500  1
  O  O365  1  0.720500  0.923500  0.873500  1
  O  O366  1  0.126500  0.279500  0.076500  1
  O  O367  1  0.076500  0.126500  0.279500  1
  O  O368  1  0.279500  0.076500  0.126500  1
  O  O369  1  0.672700  0.560600  0.064900  1.0
  O  O370  1  0.064900  0.672700  0.560600  1.0
  O  O371  1  0.560600  0.064900  0.672700  1.0
  O  O372  1  0.327300  0.439400  0.935100  1.0
  O  O373  1  0.935100  0.327300  0.439400  1.0
  O  O374  1  0.439400  0.935100  0.327300  1.0
  O  O375  1  0.803300  0.545500  0.114700  1.0
  O  O376  1  0.114700  0.803300  0.545500  1.0
  O  O377  1  0.545500  0.114700  0.803300  1.0
  O  O378  1  0.196700  0.454500  0.885300  1.0
  O  O379  1  0.885300  0.196700  0.454500  1.0
  O  O380  1  0.454500  0.885300  0.196700  1.0
  O  O381  1  0.745600  0.293900  0.174700  1.0
  O  O382  1  0.174700  0.745600  0.293900  1.0
  O  O383  1  0.293900  0.174700  0.745600  1.0
  O  O384  1  0.254400  0.706100  0.825300  1.0
  O  O385  1  0.825300  0.254400  0.706100  1.0
  O  O386  1  0.706100  0.825300  0.254400  1.0
  O  O387  1  0.759000  0.437000  0.223400  1.0
  O  O388  1  0.223400  0.759000  0.437000  1.0
  O  O389  1  0.437000  0.223400  0.759000  1.0
  O  O390  1  0.241000  0.563000  0.776600  1.0
  O  O391  1  0.776600  0.241000  0.563000  1.0
  O  O392  1  0.563000  0.776600  0.241000  1.0
  Sn  Sn393  1  0.697140  0.696080  0.164840  1.0
  Sn  Sn394  1  0.164840  0.697140  0.696080  1.0
  Sn  Sn395  1  0.696080  0.164840  0.697140  1.0
  Sn  Sn396  1  0.302860  0.303920  0.835160  1.0
  Sn  Sn397  1  0.835160  0.302860  0.303920  1.0
  Sn  Sn398  1  0.303920  0.835160  0.302860  1.0
