# generated using pymatgen
data_Ag9H72C149S22N24O49F30
_symmetry_space_group_name_H-M   'P 1'
_cell_length_a   21.21940000
_cell_length_b   21.30550000
_cell_length_c   24.46320000
_cell_angle_alpha   89.32500000
_cell_angle_beta   79.31000000
_cell_angle_gamma   63.26300000
_symmetry_Int_Tables_number   1
_chemical_formula_structural   Ag9H72C149S22N24O49F30
_chemical_formula_sum   'Ag18 H144 C298 S44 N48 O98 F60'
_cell_volume   9673.25084838
_cell_formula_units_Z   2
loop_
 _symmetry_equiv_pos_site_id
 _symmetry_equiv_pos_as_xyz
  1  'x, y, z'
loop_
 _atom_site_type_symbol
 _atom_site_label
 _atom_site_symmetry_multiplicity
 _atom_site_fract_x
 _atom_site_fract_y
 _atom_site_fract_z
 _atom_site_occupancy
  Ag  Ag1  1  0.816410  0.838210  0.708550  1
  Ag  Ag2  1  0.183590  0.161790  0.291450  1
  Ag  Ag3  1  0.081330  0.883200  0.719120  1
  Ag  Ag4  1  0.918670  0.116800  0.280880  1
  Ag  Ag5  1  0.926800  0.815060  0.933350  1
  Ag  Ag6  1  0.073200  0.184940  0.066650  1
  Ag  Ag7  1  0.252670  0.689500  0.453940  1
  Ag  Ag8  1  0.747330  0.310500  0.546060  1
  Ag  Ag9  1  0.285720  0.565400  0.998970  1
  Ag  Ag10  1  0.714280  0.434600  0.001030  1
  Ag  Ag11  1  0.772350  0.506690  0.781730  1
  Ag  Ag12  1  0.227650  0.493310  0.218270  1
  Ag  Ag13  1  0.250680  0.352770  0.550570  1
  Ag  Ag14  1  0.749320  0.647230  0.449430  1
  Ag  Ag15  1  0.422800  0.370220  0.718520  1
  Ag  Ag16  1  0.577200  0.629780  0.281480  1
  Ag  Ag17  1  0.193370  0.277000  0.792630  1
  Ag  Ag18  1  0.806630  0.723000  0.207370  1
  H  H19  1  0.560700  0.978700  0.827300  1
  H  H20  1  0.439300  0.021300  0.172700  1
  H  H21  1  0.653100  0.888700  0.755600  1
  H  H22  1  0.346900  0.111300  0.244400  1
  H  H23  1  0.715300  0.034200  0.605500  1
  H  H24  1  0.284700  0.965800  0.394500  1
  H  H25  1  0.834600  0.930500  0.588900  1
  H  H26  1  0.165400  0.069500  0.411100  1
  H  H27  1  0.975000  0.107300  0.623500  1
  H  H28  1  0.025000  0.892700  0.376500  1
  H  H29  1  0.067600  0.993900  0.631300  1
  H  H30  1  0.932400  0.006100  0.368700  1
  H  H31  1  0.105600  0.044700  0.828200  1
  H  H32  1  0.894400  0.955300  0.171800  1
  H  H33  1  0.135100  0.927300  0.852300  1
  H  H34  1  0.864900  0.072700  0.147700  1
  H  H35  1  0.923100  0.020800  0.040500  1
  H  H36  1  0.076900  0.979200  0.959500  1
  H  H37  1  0.952100  0.897800  0.026600  1
  H  H38  1  0.047900  0.102200  0.973400  1
  H  H39  1  0.670000  0.937500  0.023800  1
  H  H40  1  0.330000  0.062500  0.976200  1
  H  H41  1  0.715500  0.842700  0.957000  1
  H  H42  1  0.284500  0.157300  0.043000  1
  H  H43  1  0.006500  0.665100  0.535000  1
  H  H44  1  0.993500  0.334900  0.465000  1
  H  H45  1  0.867600  0.750200  0.578900  1
  H  H46  1  0.132400  0.249800  0.421100  1
  H  H47  1  0.985200  0.833000  0.658500  1
  H  H48  1  0.014800  0.167000  0.341500  1
  H  H49  1  0.022300  0.883500  0.581100  1
  H  H50  1  0.977700  0.116500  0.418900  1
  H  H51  1  0.224800  0.720100  0.566000  1
  H  H52  1  0.775200  0.279900  0.434000  1
  H  H53  1  0.185700  0.676500  0.643400  1
  H  H54  1  0.814300  0.323500  0.356600  1
  H  H55  1  0.123200  0.967900  0.446000  1
  H  H56  1  0.876800  0.032100  0.554000  1
  H  H57  1  0.241300  0.844700  0.401600  1
  H  H58  1  0.758700  0.155300  0.598400  1
  H  H59  1  0.288700  0.690900  0.810900  1
  H  H60  1  0.711300  0.309100  0.189100  1
  H  H61  1  0.253800  0.804200  0.745000  1
  H  H62  1  0.746200  0.195800  0.255000  1
  H  H63  1  0.067300  0.806400  0.862900  1
  H  H64  1  0.932700  0.193600  0.137100  1
  H  H65  1  0.101500  0.811500  0.949000  1
  H  H66  1  0.898500  0.188500  0.051000  1
  H  H67  1  0.152700  0.601500  0.959200  1
  H  H68  1  0.847300  0.398500  0.040800  1
  H  H69  1  0.110900  0.602000  0.875200  1
  H  H70  1  0.889100  0.398000  0.124800  1
  H  H71  1  0.101300  0.792400  0.135300  1
  H  H72  1  0.898700  0.207600  0.864700  1
  H  H73  1  0.228600  0.663800  0.116900  1
  H  H74  1  0.771400  0.336200  0.883100  1
  H  H75  1  0.914900  0.573000  0.936500  1
  H  H76  1  0.085100  0.427000  0.063500  1
  H  H77  1  0.868700  0.697400  0.986100  1
  H  H78  1  0.131300  0.302600  0.013900  1
  H  H79  1  0.836400  0.773000  0.829400  1
  H  H80  1  0.163600  0.227000  0.170600  1
  H  H81  1  0.726200  0.766400  0.832100  1
  H  H82  1  0.273800  0.233600  0.167900  1
  H  H83  1  0.836900  0.587400  0.725900  1
  H  H84  1  0.163100  0.412600  0.274100  1
  H  H85  1  0.941400  0.603900  0.714500  1
  H  H86  1  0.058600  0.396100  0.285500  1
  H  H87  1  0.533300  0.741400  0.818000  1
  H  H88  1  0.466700  0.258600  0.182000  1
  H  H89  1  0.601100  0.603900  0.774100  1
  H  H90  1  0.398900  0.396100  0.225900  1
  H  H91  1  0.334500  0.409700  0.601900  1
  H  H92  1  0.665500  0.590300  0.398100  1
  H  H93  1  0.378200  0.424700  0.507200  1
  H  H94  1  0.621800  0.575300  0.492800  1
  H  H95  1  0.195200  0.602500  0.508900  1
  H  H96  1  0.804800  0.397500  0.491100  1
  H  H97  1  0.140700  0.581500  0.594500  1
  H  H98  1  0.859300  0.418500  0.405500  1
  H  H99  1  0.430200  0.453400  0.327700  1
  H  H100  1  0.569800  0.546600  0.672300  1
  H  H101  1  0.364800  0.595900  0.340700  1
  H  H102  1  0.635200  0.404100  0.659300  1
  H  H103  1  0.346400  0.615600  0.632500  1
  H  H104  1  0.653600  0.384400  0.367500  1
  H  H105  1  0.445200  0.511600  0.677200  1
  H  H106  1  0.554800  0.488400  0.322800  1
  H  H107  1  0.306400  0.353000  0.801700  1
  H  H108  1  0.693600  0.647000  0.198300  1
  H  H109  1  0.370700  0.339300  0.869900  1
  H  H110  1  0.629300  0.660700  0.130100  1
  H  H111  1  0.315600  0.550300  0.877400  1
  H  H112  1  0.684400  0.449700  0.122600  1
  H  H113  1  0.245300  0.562400  0.811000  1
  H  H114  1  0.754700  0.437600  0.189000  1
  H  H115  1  0.537600  0.339500  0.970300  1
  H  H116  1  0.462400  0.660500  0.029700  1
  H  H117  1  0.448900  0.461900  0.028600  1
  H  H118  1  0.551100  0.538100  0.971400  1
  H  H119  1  0.121600  0.469800  0.960600  1
  H  H120  1  0.878400  0.530200  0.039400  1
  H  H121  1  0.145100  0.335300  0.931500  1
  H  H122  1  0.854900  0.664700  0.068500  1
  H  H123  1  0.129500  0.332900  0.689000  1
  H  H124  1  0.870500  0.667100  0.311000  1
  H  H125  1  0.043500  0.291800  0.708500  1
  H  H126  1  0.956500  0.708200  0.291500  1
  H  H127  1  0.907800  0.469400  0.812200  1
  H  H128  1  0.092200  0.530600  0.187800  1
  H  H129  1  0.993500  0.507200  0.800200  1
  H  H130  1  0.006500  0.492800  0.199800  1
  H  H131  1  0.866500  0.232400  0.749100  1
  H  H132  1  0.133500  0.767600  0.250900  1
  H  H133  1  0.752200  0.366300  0.766100  1
  H  H134  1  0.247800  0.633700  0.233900  1
  H  H135  1  0.966500  0.486100  0.599600  1
  H  H136  1  0.033500  0.513900  0.400400  1
  H  H137  1  0.084700  0.427600  0.517100  1
  H  H138  1  0.915300  0.572400  0.482900  1
  H  H139  1  0.485900  0.227600  0.409200  1
  H  H140  1  0.514100  0.772400  0.590800  1
  H  H141  1  0.363100  0.314500  0.435900  1
  H  H142  1  0.636900  0.685500  0.564100  1
  H  H143  1  0.644400  0.261400  0.572500  1
  H  H144  1  0.355600  0.738600  0.427500  1
  H  H145  1  0.526000  0.368200  0.574800  1
  H  H146  1  0.474000  0.631800  0.425200  1
  H  H147  1  0.589100  0.167800  0.815600  1
  H  H148  1  0.410900  0.832200  0.184400  1
  H  H149  1  0.525100  0.289400  0.794700  1
  H  H150  1  0.474900  0.710600  0.205300  1
  H  H151  1  0.387100  0.071500  0.882300  1
  H  H152  1  0.612900  0.928500  0.117700  1
  H  H153  1  0.338700  0.199700  0.897500  1
  H  H154  1  0.661300  0.800300  0.102500  1
  H  H155  1  0.171800  0.071800  0.709800  1
  H  H156  1  0.828200  0.928200  0.290200  1
  H  H157  1  0.128900  0.176900  0.768200  1
  H  H158  1  0.871100  0.823100  0.231800  1
  H  H159  1  0.233500  0.152300  0.475300  1
  H  H160  1  0.766500  0.847700  0.524700  1
  H  H161  1  0.144800  0.237300  0.547900  1
  H  H162  1  0.855200  0.762700  0.452100  1
  C  C163  1  0.795700  0.966600  0.810600  1
  C  C164  1  0.204300  0.033400  0.189400  1
  C  C165  1  0.835100  0.983200  0.765100  1
  C  C166  1  0.164900  0.016800  0.234900  1
  C  C167  1  0.894800  0.993900  0.771300  1
  C  C168  1  0.105200  0.006100  0.228700  1
  C  C169  1  0.914400  0.986500  0.823100  1
  C  C170  1  0.085600  0.013500  0.176900  1
  C  C171  1  0.877200  0.972900  0.866500  1
  C  C172  1  0.122800  0.027100  0.133500  1
  C  C173  1  0.820500  0.959600  0.863900  1
  C  C174  1  0.179500  0.040400  0.136100  1
  C  C175  1  0.731800  0.959100  0.805900  1
  C  C176  1  0.268200  0.040900  0.194100  1
  C  C177  1  0.609900  0.969000  0.818200  1
  C  C178  1  0.390100  0.031000  0.181800  1
  C  C179  1  0.663200  0.918100  0.777700  1
  C  C180  1  0.336800  0.081900  0.222300  1
  C  C181  1  0.809100  0.991300  0.711800  1
  C  C182  1  0.190900  0.008700  0.288200  1
  C  C183  1  0.745600  0.017300  0.631900  1
  C  C184  1  0.254400  0.982700  0.368100  1
  C  C185  1  0.813200  0.959400  0.623100  1
  C  C186  1  0.186800  0.040600  0.376900  1
  C  C187  1  0.932000  0.012900  0.721900  1
  C  C188  1  0.068000  0.987100  0.278100  1
  C  C189  1  0.968600  0.075700  0.649100  1
  C  C190  1  0.031400  0.924300  0.350900  1
  C  C191  1  0.020900  0.013300  0.654400  1
  C  C192  1  0.979100  0.986700  0.345600  1
  C  C193  1  0.979200  0.995100  0.825800  1
  C  C194  1  0.020800  0.004900  0.174200  1
  C  C195  1  0.073600  0.024500  0.829600  1
  C  C196  1  0.926400  0.975500  0.170400  1
  C  C197  1  0.090900  0.958000  0.842100  1
  C  C198  1  0.909100  0.042000  0.157900  1
  C  C199  1  0.895800  0.968700  0.921900  1
  C  C200  1  0.104200  0.031300  0.078100  1
  C  C201  1  0.917800  0.000800  0.008200  1
  C  C202  1  0.082200  0.999200  0.991800  1
  C  C203  1  0.933300  0.931600  0.000700  1
  C  C204  1  0.066700  0.068400  0.999300  1
  C  C205  1  0.779900  0.938900  0.908700  1
  C  C206  1  0.220100  0.061100  0.091300  1
  C  C207  1  0.700800  0.933900  0.989200  1
  C  C208  1  0.299200  0.066100  0.010800  1
  C  C209  1  0.727300  0.880800  0.952000  1
  C  C210  1  0.272700  0.119200  0.048000  1
  C  C211  1  0.995700  0.714300  0.716100  1
  C  C212  1  0.004300  0.285700  0.283900  1
  C  C213  1  0.056400  0.727900  0.713100  1
  C  C214  1  0.943600  0.272100  0.286900  1
  C  C215  1  0.084700  0.722400  0.762400  1
  C  C216  1  0.915300  0.277600  0.237600  1
  C  C217  1  0.054100  0.706600  0.810400  1
  C  C218  1  0.945900  0.293400  0.189600  1
  C  C219  1  0.995400  0.694600  0.813800  1
  C  C220  1  0.004600  0.305400  0.186200  1
  C  C221  1  0.965200  0.698400  0.766100  1
  C  C222  1  0.034800  0.301600  0.233900  1
  C  C223  1  0.968300  0.713900  0.663300  1
  C  C224  1  0.031700  0.286100  0.336700  1
  C  C225  1  0.984800  0.682800  0.572800  1
  C  C226  1  0.015200  0.317200  0.427200  1
  C  C227  1  0.907400  0.734700  0.596900  1
  C  C228  1  0.092600  0.265300  0.403100  1
  C  C229  1  0.081200  0.753600  0.661000  1
  C  C230  1  0.918800  0.246400  0.339000  1
  C  C231  1  0.034500  0.811600  0.640400  1
  C  C232  1  0.965500  0.188400  0.359600  1
  C  C233  1  0.055600  0.841400  0.593700  1
  C  C234  1  0.944400  0.158600  0.406300  1
  C  C235  1  0.125700  0.807400  0.567300  1
  C  C236  1  0.874300  0.192600  0.432700  1
  C  C237  1  0.176200  0.743900  0.585500  1
  C  C238  1  0.823800  0.256100  0.414500  1
  C  C239  1  0.152900  0.718900  0.630900  1
  C  C240  1  0.847100  0.281100  0.369100  1
  C  C241  1  0.151500  0.835200  0.516000  1
  C  C242  1  0.848500  0.164800  0.484000  1
  C  C243  1  0.141200  0.923500  0.461500  1
  C  C244  1  0.858800  0.076500  0.538500  1
  C  C245  1  0.206800  0.852600  0.435000  1
  C  C246  1  0.793200  0.147400  0.565000  1
  C  C247  1  0.146800  0.734800  0.760300  1
  C  C248  1  0.853200  0.265200  0.239700  1
  C  C249  1  0.252600  0.708900  0.789100  1
  C  C250  1  0.747400  0.291100  0.210900  1
  C  C251  1  0.229000  0.777200  0.756500  1
  C  C252  1  0.771000  0.222800  0.243500  1
  C  C253  1  0.083800  0.703900  0.863800  1
  C  C254  1  0.916200  0.296100  0.136200  1
  C  C255  1  0.082600  0.766100  0.883700  1
  C  C256  1  0.917400  0.233900  0.116300  1
  C  C257  1  0.104100  0.769100  0.934400  1
  C  C258  1  0.895900  0.230900  0.065600  1
  C  C259  1  0.129000  0.708700  0.962000  1
  C  C260  1  0.871000  0.291300  0.038000  1
  C  C261  1  0.133800  0.643200  0.940400  1
  C  C262  1  0.866200  0.356800  0.059600  1
  C  C263  1  0.109400  0.643600  0.890300  1
  C  C264  1  0.890600  0.356400  0.109700  1
  C  C265  1  0.148600  0.709700  0.015600  1
  C  C266  1  0.851400  0.290300  0.984400  1
  C  C267  1  0.125300  0.761700  0.102200  1
  C  C268  1  0.874700  0.238300  0.897800  1
  C  C269  1  0.196400  0.685700  0.092300  1
  C  C270  1  0.803600  0.314300  0.907700  1
  C  C271  1  0.959200  0.677400  0.866500  1
  C  C272  1  0.040800  0.322600  0.133500  1
  C  C273  1  0.921700  0.611600  0.921900  1
  C  C274  1  0.078300  0.388400  0.078100  1
  C  C275  1  0.897600  0.680200  0.949800  1
  C  C276  1  0.102400  0.319800  0.050200  1
  C  C277  1  0.896600  0.689200  0.771600  1
  C  C278  1  0.103400  0.310800  0.228400  1
  C  C279  1  0.835100  0.737600  0.807100  1
  C  C280  1  0.164900  0.262400  0.192900  1
  C  C281  1  0.770100  0.733000  0.809400  1
  C  C282  1  0.229900  0.267000  0.190600  1
  C  C283  1  0.772500  0.677300  0.777100  1
  C  C284  1  0.227500  0.322700  0.222900  1
  C  C285  1  0.835900  0.626800  0.744500  1
  C  C286  1  0.164100  0.373200  0.255500  1
  C  C287  1  0.898400  0.634900  0.739500  1
  C  C288  1  0.101600  0.365100  0.260500  1
  C  C289  1  0.707600  0.667500  0.784900  1
  C  C290  1  0.292400  0.332500  0.215100  1
  C  C291  1  0.583000  0.712400  0.803100  1
  C  C292  1  0.417000  0.287600  0.196900  1
  C  C293  1  0.621200  0.633100  0.783500  1
  C  C294  1  0.378800  0.366900  0.216500  1
  C  C295  1  0.202700  0.482800  0.663800  1
  C  C296  1  0.797300  0.517200  0.336200  1
  C  C297  1  0.239800  0.484500  0.707300  1
  C  C298  1  0.760200  0.515500  0.292700  1
  C  C299  1  0.223800  0.465400  0.761000  1
  C  C300  1  0.776200  0.534600  0.239000  1
  C  C301  1  0.165300  0.447500  0.771800  1
  C  C302  1  0.834700  0.552500  0.228200  1
  C  C303  1  0.125500  0.448900  0.730200  1
  C  C304  1  0.874500  0.551100  0.269800  1
  C  C305  1  0.149100  0.463500  0.679500  1
  C  C306  1  0.850900  0.536500  0.320500  1
  C  C307  1  0.230700  0.496300  0.607200  1
  C  C308  1  0.769300  0.503700  0.392800  1
  C  C309  1  0.305200  0.446800  0.582300  1
  C  C310  1  0.694800  0.553200  0.417700  1
  C  C311  1  0.331500  0.457800  0.526200  1
  C  C312  1  0.668500  0.542200  0.473800  1
  C  C313  1  0.291000  0.515300  0.499000  1
  C  C314  1  0.709000  0.484700  0.501000  1
  C  C315  1  0.222000  0.561600  0.526400  1
  C  C316  1  0.778000  0.438400  0.473600  1
  C  C317  1  0.189800  0.551200  0.578800  1
  C  C318  1  0.810200  0.448800  0.421200  1
  C  C319  1  0.323400  0.524300  0.445000  1
  C  C320  1  0.676600  0.475700  0.555000  1
  C  C321  1  0.397500  0.483400  0.359300  1
  C  C322  1  0.602500  0.516600  0.640700  1
  C  C323  1  0.359500  0.564400  0.366800  1
  C  C324  1  0.640500  0.435600  0.633200  1
  C  C325  1  0.296400  0.509100  0.693600  1
  C  C326  1  0.703600  0.490900  0.306400  1
  C  C327  1  0.340900  0.581000  0.654900  1
  C  C328  1  0.659100  0.419000  0.345100  1
  C  C329  1  0.397700  0.519400  0.676100  1
  C  C330  1  0.602300  0.480600  0.323900  1
  C  C331  1  0.267900  0.460000  0.803700  1
  C  C332  1  0.732100  0.540000  0.196300  1
  C  C333  1  0.307000  0.392600  0.818600  1
  C  C334  1  0.693000  0.607400  0.181400  1
  C  C335  1  0.346100  0.385100  0.857800  1
  C  C336  1  0.653900  0.614900  0.142200  1
  C  C337  1  0.353100  0.443000  0.883200  1
  C  C338  1  0.646900  0.557000  0.116800  1
  C  C339  1  0.313400  0.510100  0.863400  1
  C  C340  1  0.686600  0.489900  0.136600  1
  C  C341  1  0.271400  0.517400  0.823900  1
  C  C342  1  0.728600  0.482600  0.176100  1
  C  C343  1  0.399200  0.433500  0.923200  1
  C  C344  1  0.600800  0.566500  0.076800  1
  C  C345  1  0.494100  0.374700  0.961800  1
  C  C346  1  0.505900  0.625300  0.038200  1
  C  C347  1  0.443500  0.443900  0.995300  1
  C  C348  1  0.556500  0.556100  0.004700  1
  C  C349  1  0.150700  0.429800  0.830100  1
  C  C350  1  0.849300  0.570200  0.169900  1
  C  C351  1  0.128000  0.449300  0.924500  1
  C  C352  1  0.872000  0.550700  0.075500  1
  C  C353  1  0.145300  0.370900  0.907900  1
  C  C354  1  0.854700  0.629100  0.092100  1
  C  C355  1  0.071500  0.425400  0.744100  1
  C  C356  1  0.928500  0.574600  0.255900  1
  C  C357  1  0.085200  0.359500  0.714400  1
  C  C358  1  0.914800  0.640500  0.285600  1
  C  C359  1  0.033300  0.337000  0.723700  1
  C  C360  1  0.966700  0.663000  0.276300  1
  C  C361  1  0.963500  0.381900  0.756400  1
  C  C362  1  0.036500  0.618100  0.243600  1
  C  C363  1  0.952200  0.443200  0.786800  1
  C  C364  1  0.047800  0.556800  0.213200  1
  C  C365  1  0.003000  0.464800  0.780400  1
  C  C366  1  0.997000  0.535200  0.219600  1
  C  C367  1  0.908600  0.356900  0.761300  1
  C  C368  1  0.091400  0.643100  0.238700  1
  C  C369  1  0.868000  0.275900  0.753700  1
  C  C370  1  0.132000  0.724100  0.246300  1
  C  C371  1  0.802000  0.352300  0.763700  1
  C  C372  1  0.198000  0.647700  0.236300  1
  C  C373  1  0.113200  0.460500  0.633600  1
  C  C374  1  0.886800  0.539500  0.366400  1
  C  C375  1  0.014300  0.478100  0.599800  1
  C  C376  1  0.985700  0.521900  0.400200  1
  C  C377  1  0.081000  0.438500  0.555400  1
  C  C378  1  0.919000  0.561500  0.444600  1
  C  C379  1  0.394900  0.217100  0.601200  1
  C  C380  1  0.605100  0.782900  0.398800  1
  C  C381  1  0.436300  0.223800  0.638000  1
  C  C382  1  0.563700  0.776200  0.362000  1
  C  C383  1  0.423300  0.207000  0.692900  1
  C  C384  1  0.576700  0.793000  0.307100  1
  C  C385  1  0.370900  0.185100  0.711300  1
  C  C386  1  0.629100  0.814900  0.288700  1
  C  C387  1  0.325600  0.179800  0.675300  1
  C  C388  1  0.674400  0.820200  0.324700  1
  C  C389  1  0.339700  0.197600  0.618700  1
  C  C390  1  0.660300  0.802400  0.381300  1
  C  C391  1  0.409600  0.232600  0.543900  1
  C  C392  1  0.590400  0.767400  0.456100  1
  C  C393  1  0.458100  0.234100  0.445800  1
  C  C394  1  0.541900  0.765900  0.554200  1
  C  C395  1  0.389300  0.283000  0.460600  1
  C  C396  1  0.610700  0.717000  0.539400  1
  C  C397  1  0.486900  0.249600  0.617200  1
  C  C398  1  0.513100  0.750400  0.382800  1
  C  C399  1  0.598400  0.263200  0.584400  1
  C  C400  1  0.401600  0.736800  0.415600  1
  C  C401  1  0.529400  0.324300  0.586300  1
  C  C402  1  0.470600  0.675700  0.413700  1
  C  C403  1  0.466200  0.209000  0.730900  1
  C  C404  1  0.533800  0.791000  0.269100  1
  C  C405  1  0.554700  0.184400  0.792300  1
  C  C406  1  0.445300  0.815600  0.207700  1
  C  C407  1  0.517900  0.252700  0.779900  1
  C  C408  1  0.482100  0.747300  0.220100  1
  C  C409  1  0.364700  0.161100  0.768500  1
  C  C410  1  0.635300  0.838900  0.231500  1
  C  C411  1  0.378100  0.102700  0.853400  1
  C  C412  1  0.621900  0.897300  0.146600  1
  C  C413  1  0.351400  0.175600  0.861700  1
  C  C414  1  0.648600  0.824400  0.138300  1
  C  C415  1  0.272600  0.157200  0.694300  1
  C  C416  1  0.727400  0.842800  0.305700  1
  C  C417  1  0.195600  0.100600  0.708400  1
  C  C418  1  0.804400  0.899400  0.291600  1
  C  C419  1  0.172900  0.159000  0.741600  1
  C  C420  1  0.827100  0.841000  0.258400  1
  C  C421  1  0.297800  0.192200  0.581500  1
  C  C422  1  0.702200  0.807800  0.418500  1
  C  C423  1  0.244100  0.167100  0.507400  1
  C  C424  1  0.755900  0.832900  0.492600  1
  C  C425  1  0.194900  0.215500  0.547700  1
  C  C426  1  0.805100  0.784500  0.452300  1
  C  C427  1  0.166800  0.502100  0.391700  1
  C  C428  1  0.833200  0.497900  0.608300  1
  C  C429  1  0.828500  0.838300  0.090300  1
  C  C430  1  0.171500  0.161700  0.909700  1
  C  C431  1  0.676000  0.203300  0.898700  1
  C  C432  1  0.324000  0.796700  0.101300  1
  C  C433  1  0.030700  0.721000  0.399200  1
  C  C434  1  0.969300  0.279000  0.600800  1
  C  C435  1  0.507100  0.993400  0.593700  1
  C  C436  1  0.492900  0.006600  0.406300  1
  C  C437  1  0.300400  0.880300  0.580600  1
  C  C438  1  0.699600  0.119700  0.419400  1
  C  C439  1  0.423800  0.704800  0.910300  1
  C  C440  1  0.576200  0.295200  0.089700  1
  C  C441  1  0.300400  0.348500  0.046200  1
  C  C442  1  0.699600  0.651500  0.953800  1
  C  C443  1  0.493900  0.840000  0.020900  1
  C  C444  1  0.506100  0.160000  0.979100  1
  C  C445  1  0.709600  0.790600  0.642600  1
  C  C446  1  0.290400  0.209400  0.357400  1
  C  C447  1  0.857100  0.921600  0.459400  1
  C  C448  1  0.142900  0.078400  0.540600  1
  C  C449  1  0.697700  0.261200  0.695000  1
  C  C450  1  0.302300  0.738800  0.305000  1
  C  C451  1  0.499200  0.456400  0.781800  1
  C  C452  1  0.500800  0.543600  0.218200  1
  C  C453  1  0.058300  0.577500  0.066500  1
  C  C454  1  0.941700  0.422500  0.933500  1
  C  C455  1  0.255200  0.885000  0.917900  1
  C  C456  1  0.744800  0.115000  0.082100  1
  C  C457  1  0.617900  0.444200  0.870600  1
  C  C458  1  0.382100  0.555800  0.129400  1
  C  C459  1  0.550200  0.387900  0.455700  1
  C  C460  1  0.449800  0.612100  0.544300  1
  S  S461  1  0.647900  0.010400  0.848300  1
  S  S462  1  0.352100  0.989600  0.151700  1
  S  S463  1  0.726100  0.053600  0.700400  1
  S  S464  1  0.273900  0.946400  0.299600  1
  S  S465  1  0.888300  0.094400  0.692700  1
  S  S466  1  0.111700  0.905600  0.307300  1
  S  S467  1  0.990500  0.068600  0.816500  1
  S  S468  1  0.009500  0.931400  0.183500  1
  S  S469  1  0.888300  0.046400  0.954300  1
  S  S470  1  0.111700  0.953600  0.045700  1
  S  S471  1  0.727400  0.995300  0.969200  1
  S  S472  1  0.272600  0.004700  0.030800  1
  S  S473  1  0.491700  0.184200  0.498800  1
  S  S474  1  0.508300  0.815800  0.501200  1
  S  S475  1  0.582000  0.196100  0.607200  1
  S  S476  1  0.418000  0.803900  0.392800  1
  S  S477  1  0.527300  0.134600  0.758100  1
  S  S478  1  0.472700  0.865400  0.241900  1
  S  S479  1  0.392600  0.077200  0.785200  1
  S  S480  1  0.607400  0.922800  0.214800  1
  S  S481  1  0.271100  0.085500  0.664400  1
  S  S482  1  0.728900  0.914500  0.335600  1
  S  S483  1  0.331000  0.134800  0.522200  1
  S  S484  1  0.669000  0.865200  0.477800  1
  S  S485  1  0.207600  0.407300  0.404400  1
  S  S486  1  0.792400  0.592700  0.595600  1
  S  S487  1  0.920200  0.785200  0.096400  1
  S  S488  1  0.079800  0.214800  0.903600  1
  S  S489  1  0.746600  0.179100  0.836000  1
  S  S490  1  0.253400  0.820900  0.164000  1
  S  S491  1  0.083600  0.752900  0.429700  1
  S  S492  1  0.916400  0.247100  0.570300  1
  S  S493  1  0.572900  0.996400  0.631200  1
  S  S494  1  0.427100  0.003600  0.368800  1
  S  S495  1  0.235200  0.910900  0.644300  1
  S  S496  1  0.764800  0.089100  0.355700  1
  S  S497  1  0.376600  0.653000  0.920000  1
  S  S498  1  0.623400  0.347000  0.080000  1
  S  S499  1  0.245200  0.439300  0.069400  1
  S  S500  1  0.754800  0.560700  0.930600  1
  S  S501  1  0.540900  0.892100  0.014000  1
  S  S502  1  0.459100  0.107900  0.986000  1
  S  S503  1  0.516500  0.474500  0.488000  1
  S  S504  1  0.483500  0.525500  0.512000  1
  N  N505  1  0.732200  0.912600  0.771500  1
  N  N506  1  0.267800  0.087400  0.228500  1
  N  N507  1  0.846900  0.947000  0.667900  1
  N  N508  1  0.153100  0.053000  0.332100  1
  N  N509  1  0.000500  0.978900  0.697200  1
  N  N510  1  0.999500  0.021100  0.302800  1
  N  N511  1  0.039000  0.939200  0.838700  1
  N  N512  1  0.961000  0.060800  0.161300  1
  N  N513  1  0.918700  0.916400  0.951400  1
  N  N514  1  0.081300  0.083600  0.048600  1
  N  N515  1  0.771600  0.882300  0.906600  1
  N  N516  1  0.228400  0.117700  0.093400  1
  N  N517  1  0.906700  0.756800  0.655500  1
  N  N518  1  0.093300  0.243200  0.344500  1
  N  N519  1  0.202500  0.801000  0.473500  1
  N  N520  1  0.797500  0.199000  0.526500  1
  N  N521  1  0.154800  0.788300  0.748600  1
  N  N522  1  0.845200  0.211700  0.251400  1
  N  N523  1  0.199400  0.658400  0.036400  1
  N  N524  1  0.800600  0.341600  0.963600  1
  N  N525  1  0.927000  0.718700  0.910400  1
  N  N526  1  0.073000  0.281300  0.089600  1
  N  N527  1  0.697800  0.614500  0.783300  1
  N  N528  1  0.302200  0.385500  0.216700  1
  N  N529  1  0.313200  0.583100  0.422800  1
  N  N530  1  0.686800  0.416900  0.577200  1
  N  N531  1  0.364800  0.474300  0.694700  1
  N  N532  1  0.635200  0.525700  0.305300  1
  N  N533  1  0.381600  0.478600  0.964100  1
  N  N534  1  0.618400  0.521400  0.035900  1
  N  N535  1  0.161900  0.367000  0.845500  1
  N  N536  1  0.838100  0.633000  0.154500  1
  N  N537  1  0.839900  0.396500  0.768400  1
  N  N538  1  0.160100  0.603500  0.231600  1
  N  N539  1  0.140800  0.420200  0.587700  1
  N  N540  1  0.859200  0.579800  0.412300  1
  N  N541  1  0.360100  0.282300  0.517100  1
  N  N542  1  0.639900  0.717700  0.482900  1
  N  N543  1  0.466700  0.315000  0.606300  1
  N  N544  1  0.533300  0.685000  0.393700  1
  N  N545  1  0.471100  0.265700  0.745800  1
  N  N546  1  0.528900  0.734300  0.254200  1
  N  N547  1  0.345100  0.209400  0.813100  1
  N  N548  1  0.654900  0.790600  0.186900  1
  N  N549  1  0.216200  0.192300  0.735500  1
  N  N550  1  0.783800  0.807700  0.264500  1
  N  N551  1  0.224400  0.231300  0.590100  1
  N  N552  1  0.775600  0.768700  0.409900  1
  O  O553  1  0.018700  0.666300  0.622800  1
  O  O554  1  0.981300  0.333700  0.377200  1
  O  O555  1  0.114500  0.905900  0.515000  1
  O  O556  1  0.885500  0.094100  0.485000  1
  O  O557  1  0.204200  0.679400  0.777400  1
  O  O558  1  0.795800  0.320600  0.222600  1
  O  O559  1  0.108400  0.770300  0.047500  1
  O  O560  1  0.891600  0.229700  0.952500  1
  O  O561  1  0.959600  0.615000  0.864900  1
  O  O562  1  0.040400  0.385000  0.135100  1
  O  O563  1  0.645300  0.733400  0.792600  1
  O  O564  1  0.354700  0.266600  0.207400  1
  O  O565  1  0.370600  0.463700  0.413600  1
  O  O566  1  0.629400  0.536300  0.586400  1
  O  O567  1  0.272700  0.575300  0.677700  1
  O  O568  1  0.727300  0.424700  0.322300  1
  O  O569  1  0.463300  0.372200  0.914100  1
  O  O570  1  0.536700  0.627800  0.085900  1
  O  O571  1  0.124000  0.483300  0.872100  1
  O  O572  1  0.876000  0.516700  0.127900  1
  O  O573  1  0.932100  0.286100  0.753100  1
  O  O574  1  0.067900  0.713900  0.246900  1
  O  O575  1  0.040000  0.501400  0.642900  1
  O  O576  1  0.960000  0.498600  0.357100  1
  O  O577  1  0.234700  0.405600  0.455800  1
  O  O578  1  0.765300  0.594400  0.544200  1
  O  O579  1  0.146900  0.392000  0.408300  1
  O  O580  1  0.853100  0.608000  0.591700  1
  O  O581  1  0.264900  0.374800  0.356400  1
  O  O582  1  0.735100  0.625200  0.643600  1
  O  O583  1  0.939200  0.833900  0.118500  1
  O  O584  1  0.060800  0.166100  0.881500  1
  O  O585  1  0.952700  0.760900  0.038300  1
  O  O586  1  0.047300  0.239100  0.961700  1
  O  O587  1  0.916400  0.731100  0.131700  1
  O  O588  1  0.083600  0.268900  0.868300  1
  O  O589  1  0.738100  0.247700  0.820800  1
  O  O590  1  0.261900  0.752300  0.179200  1
  O  O591  1  0.722500  0.142800  0.801100  1
  O  O592  1  0.277500  0.857200  0.198900  1
  O  O593  1  0.814100  0.135600  0.850100  1
  O  O594  1  0.185900  0.864400  0.149900  1
  O  O595  1  0.133200  0.756300  0.382100  1
  O  O596  1  0.866800  0.243700  0.617900  1
  O  O597  1  0.116600  0.699100  0.465400  1
  O  O598  1  0.883400  0.300900  0.534600  1
  O  O599  1  0.031900  0.819700  0.458300  1
  O  O600  1  0.968100  0.180300  0.541700  1
  O  O601  1  0.640700  0.952200  0.593000  1
  O  O602  1  0.359300  0.047800  0.407000  1
  O  O603  1  0.554400  0.070200  0.636000  1
  O  O604  1  0.445600  0.929800  0.364000  1
  O  O605  1  0.560200  0.965900  0.684700  1
  O  O606  1  0.439800  0.034100  0.315300  1
  O  O607  1  0.279200  0.893500  0.685800  1
  O  O608  1  0.720800  0.106500  0.314200  1
  O  O609  1  0.195100  0.985200  0.638700  1
  O  O610  1  0.804900  0.014800  0.361300  1
  O  O611  1  0.195700  0.871000  0.643100  1
  O  O612  1  0.804300  0.129000  0.356900  1
  O  O613  1  0.394800  0.619300  0.970100  1
  O  O614  1  0.605200  0.380700  0.029900  1
  O  O615  1  0.302700  0.705000  0.925000  1
  O  O616  1  0.697300  0.295000  0.075000  1
  O  O617  1  0.406600  0.606200  0.869700  1
  O  O618  1  0.593400  0.393800  0.130300  1
  O  O619  1  0.295900  0.460800  0.083600  1
  O  O620  1  0.704100  0.539200  0.916400  1
  O  O621  1  0.193900  0.437100  0.116300  1
  O  O622  1  0.806100  0.562900  0.883700  1
  O  O623  1  0.215400  0.469500  0.021600  1
  O  O624  1  0.784600  0.530500  0.978400  1
  O  O625  1  0.613400  0.841400  0.016600  1
  O  O626  1  0.386600  0.158600  0.983400  1
  O  O627  1  0.504000  0.943600  0.061300  1
  O  O628  1  0.496000  0.056400  0.938700  1
  O  O629  1  0.531300  0.919300  0.960500  1
  O  O630  1  0.468700  0.080700  0.039500  1
  O  O631  1  0.736500  0.841000  0.643600  1
  O  O632  1  0.263500  0.159000  0.356400  1
  O  O633  1  0.884700  0.875200  0.500000  1
  O  O634  1  0.115300  0.124800  0.500000  1
  O  O635  1  0.660000  0.314600  0.740200  1
  O  O636  1  0.340000  0.685400  0.259800  1
  O  O637  1  0.520700  0.403900  0.738000  1
  O  O638  1  0.479300  0.596100  0.262000  1
  O  O639  1  0.021800  0.601100  0.022400  1
  O  O640  1  0.978200  0.398900  0.977600  1
  O  O641  1  0.214200  0.848600  0.913100  1
  O  O642  1  0.785800  0.151400  0.086900  1
  O  O643  1  0.656900  0.472300  0.835500  1
  O  O644  1  0.343100  0.527700  0.164500  1
  O  O645  1  0.565800  0.498700  0.458600  1
  O  O646  1  0.434200  0.501300  0.541400  1
  O  O647  1  0.520900  0.462600  0.545500  1
  O  O648  1  0.479100  0.537400  0.454500  1
  O  O649  1  0.444700  0.509600  0.477300  1
  O  O650  1  0.555300  0.490400  0.522700  1
  F  F651  1  0.217400  0.524800  0.383700  1
  F  F652  1  0.782600  0.475200  0.616300  1
  F  F653  1  0.116900  0.540300  0.434600  1
  F  F654  1  0.883100  0.459700  0.565400  1
  F  F655  1  0.138700  0.512500  0.346000  1
  F  F656  1  0.861300  0.487500  0.654000  1
  F  F657  1  0.818600  0.891900  0.059900  1
  F  F658  1  0.181400  0.108100  0.940100  1
  F  F659  1  0.801000  0.801600  0.067700  1
  F  F660  1  0.199000  0.198400  0.932300  1
  F  F661  1  0.786600  0.865400  0.140800  1
  F  F662  1  0.213400  0.134600  0.859200  1
  F  F663  1  0.615500  0.236900  0.897100  1
  F  F664  1  0.384500  0.763100  0.102900  1
  F  F665  1  0.688800  0.140800  0.921300  1
  F  F666  1  0.311200  0.859200  0.078700  1
  F  F667  1  0.697500  0.231000  0.937800  1
  F  F668  1  0.302500  0.769000  0.062200  1
  F  F669  1  0.072900  0.663600  0.365200  1
  F  F670  1  0.927100  0.336400  0.634800  1
  F  F671  1  0.987100  0.705600  0.438200  1
  F  F672  1  0.012900  0.294400  0.561800  1
  F  F673  1  0.986900  0.770400  0.370700  1
  F  F674  1  0.013100  0.229600  0.629300  1
  F  F675  1  0.503400  0.028600  0.550800  1
  F  F676  1  0.496600  0.971400  0.449200  1
  F  F677  1  0.437800  0.028900  0.630400  1
  F  F678  1  0.562200  0.971100  0.369600  1
  F  F679  1  0.517000  0.929300  0.583600  1
  F  F680  1  0.483000  0.070700  0.416400  1
  F  F681  1  0.342500  0.911800  0.571500  1
  F  F682  1  0.657500  0.088200  0.428500  1
  F  F683  1  0.271600  0.888600  0.535600  1
  F  F684  1  0.728400  0.111400  0.464400  1
  F  F685  1  0.344800  0.812000  0.578300  1
  F  F686  1  0.655200  0.188000  0.421700  1
  F  F687  1  0.401800  0.753400  0.952300  1
  F  F688  1  0.598200  0.246600  0.047700  1
  F  F689  1  0.416700  0.739700  0.864800  1
  F  F690  1  0.583300  0.260300  0.135200  1
  F  F691  1  0.494300  0.667400  0.906800  1
  F  F692  1  0.505700  0.332600  0.093200  1
  F  F693  1  0.332300  0.308900  0.084600  1
  F  F694  1  0.667700  0.691100  0.915400  1
  F  F695  1  0.264800  0.317600  0.028600  1
  F  F696  1  0.735200  0.682400  0.971400  1
  F  F697  1  0.353200  0.339200  0.003400  1
  F  F698  1  0.646800  0.660800  0.996600  1
  F  F699  1  0.520300  0.786800  0.982100  1
  F  F700  1  0.479700  0.213200  0.017900  1
  F  F701  1  0.425200  0.877600  0.017900  1
  F  F702  1  0.574800  0.122400  0.982100  1
  F  F703  1  0.493100  0.811300  0.069300  1
  F  F704  1  0.506900  0.188700  0.930700  1
  F  F705  1  0.553300  0.385400  0.401000  1
  F  F706  1  0.446700  0.614600  0.599000  1
  F  F707  1  0.616200  0.344400  0.462300  1
  F  F708  1  0.383800  0.655600  0.537700  1
  F  F709  1  0.510000  0.356900  0.476300  1
  F  F710  1  0.490000  0.643100  0.523700  1
