# generated using pymatgen
data_AgBH14C20(NF)4
_symmetry_space_group_name_H-M   'P 1'
_cell_length_a   7.55750000
_cell_length_b   13.24360000
_cell_length_c   18.78640000
_cell_angle_alpha   90.00000000
_cell_angle_beta   90.00000000
_cell_angle_gamma   91.85500000
_symmetry_Int_Tables_number   1
_chemical_formula_structural   AgBH14C20(NF)4
_chemical_formula_sum   'Ag4 B4 H56 C80 N16 F16'
_cell_volume   1879.31735094
_cell_formula_units_Z   4
loop_
 _symmetry_equiv_pos_site_id
 _symmetry_equiv_pos_as_xyz
  1  'x, y, z'
loop_
 _atom_site_type_symbol
 _atom_site_label
 _atom_site_symmetry_multiplicity
 _atom_site_fract_x
 _atom_site_fract_y
 _atom_site_fract_z
 _atom_site_occupancy
  Ag  Ag1  1  0.781656  0.213805  0.488900  1.0
  Ag  Ag2  1  0.218344  0.286195  0.988900  1.0
  Ag  Ag3  1  0.218344  0.786195  0.511100  1.0
  Ag  Ag4  1  0.781656  0.713805  0.011100  1.0
  B  B5  1  0.476700  0.299750  0.376930  1.0
  B  B6  1  0.523300  0.200250  0.876930  1.0
  B  B7  1  0.523300  0.700250  0.623070  1.0
  B  B8  1  0.476700  0.799750  0.123070  1.0
  H  H9  1  0.764300  0.830900  0.546800  1.0
  H  H10  1  0.235700  0.669100  0.046800  1.0
  H  H11  1  0.235700  0.169100  0.453200  1.0
  H  H12  1  0.764300  0.330900  0.953200  1.0
  H  H13  1  0.817500  0.766700  0.432700  1.0
  H  H14  1  0.182500  0.733300  0.932700  1.0
  H  H15  1  0.182500  0.233300  0.567300  1.0
  H  H16  1  0.817500  0.266700  0.067300  1.0
  H  H17  1  0.840200  0.877900  0.336200  1.0
  H  H18  1  0.159800  0.622100  0.836200  1.0
  H  H19  1  0.159800  0.122100  0.663800  1.0
  H  H20  1  0.840200  0.377900  0.163800  1.0
  H  H21  1  0.815100  0.049800  0.356400  1.0
  H  H22  1  0.184900  0.450200  0.856400  1.0
  H  H23  1  0.184900  0.950200  0.643600  1.0
  H  H24  1  0.815100  0.549800  0.143600  1.0
  H  H25  1  0.731100  0.912100  0.664900  1.0
  H  H26  1  0.268900  0.587900  0.164900  1.0
  H  H27  1  0.268900  0.087900  0.335100  1.0
  H  H28  1  0.731100  0.412100  0.835100  1.0
  H  H29  1  0.656600  0.053300  0.747900  1.0
  H  H30  1  0.343400  0.446700  0.247900  1.0
  H  H31  1  0.343400  0.946700  0.252100  1.0
  H  H32  1  0.656600  0.553300  0.752100  1.0
  H  H33  1  0.596900  0.244000  0.732200  1.0
  H  H34  1  0.403100  0.256000  0.232200  1.0
  H  H35  1  0.403100  0.756000  0.267800  1.0
  H  H36  1  0.596900  0.744000  0.767800  1.0
  H  H37  1  0.473500  0.246300  0.663100  1.0
  H  H38  1  0.526500  0.253700  0.163100  1.0
  H  H39  1  0.526500  0.753700  0.336900  1.0
  H  H40  1  0.473500  0.746300  0.836900  1.0
  H  H41  1  0.515700  0.377500  0.585700  1.0
  H  H42  1  0.484300  0.122500  0.085700  1.0
  H  H43  1  0.484300  0.622500  0.414300  1.0
  H  H44  1  0.515700  0.877500  0.914300  1.0
  H  H45  1  0.672400  0.520900  0.542500  1.0
  H  H46  1  0.327600  0.979100  0.042500  1.0
  H  H47  1  0.327600  0.479100  0.457500  1.0
  H  H48  1  0.672400  0.020900  0.957500  1.0
  H  H49  1  0.222000  0.511200  0.654700  1.0
  H  H50  1  0.778000  0.988800  0.154700  1.0
  H  H51  1  0.778000  0.488800  0.345300  1.0
  H  H52  1  0.222000  0.011200  0.845300  1.0
  H  H53  1  0.349500  0.405500  0.736400  1.0
  H  H54  1  0.650500  0.094500  0.236400  1.0
  H  H55  1  0.650500  0.594500  0.263600  1.0
  H  H56  1  0.349500  0.905500  0.763600  1.0
  H  H57  1  0.188900  0.265700  0.782900  1.0
  H  H58  1  0.811100  0.234300  0.282900  1.0
  H  H59  1  0.811100  0.734300  0.217100  1.0
  H  H60  1  0.188900  0.765700  0.717100  1.0
  H  H61  1  0.902000  0.230400  0.745900  1.0
  H  H62  1  0.098000  0.269600  0.245900  1.0
  H  H63  1  0.098000  0.769600  0.254100  1.0
  H  H64  1  0.902000  0.730400  0.754100  1.0
  C  C65  1  0.759800  0.978840  0.515500  1.0
  C  C66  1  0.240200  0.521160  0.015500  1.0
  C  C67  1  0.240200  0.021160  0.484500  1.0
  C  C68  1  0.759800  0.478840  0.984500  1.0
  C  C69  1  0.775000  0.875010  0.507040  1.0
  C  C70  1  0.225000  0.624990  0.007040  1.0
  C  C71  1  0.225000  0.124990  0.492960  1.0
  C  C72  1  0.775000  0.375010  0.992960  1.0
  C  C73  1  0.806100  0.837230  0.439660  1.0
  C  C74  1  0.193900  0.662770  0.939660  1.0
  C  C75  1  0.193900  0.162770  0.560340  1.0
  C  C76  1  0.806100  0.337230  0.060340  1.0
  C  C77  1  0.820300  0.902450  0.382990  1.0
  C  C78  1  0.179700  0.597550  0.882990  1.0
  C  C79  1  0.179700  0.097550  0.617010  1.0
  C  C80  1  0.820300  0.402450  0.117010  1.0
  C  C81  1  0.805100  0.004610  0.395570  1.0
  C  C82  1  0.194900  0.495390  0.895570  1.0
  C  C83  1  0.194900  0.995390  0.604430  1.0
  C  C84  1  0.805100  0.504610  0.104430  1.0
  C  C85  1  0.722900  0.024430  0.584950  1.0
  C  C86  1  0.277100  0.475570  0.084950  1.0
  C  C87  1  0.277100  0.975570  0.415050  1.0
  C  C88  1  0.722900  0.524430  0.915050  1.0
  C  C89  1  0.713400  0.980700  0.652760  1.0
  C  C90  1  0.286600  0.519300  0.152760  1.0
  C  C91  1  0.286600  0.019300  0.347240  1.0
  C  C92  1  0.713400  0.480700  0.847240  1.0
  C  C93  1  0.673300  0.058010  0.697840  1.0
  C  C94  1  0.326700  0.441990  0.197840  1.0
  C  C95  1  0.326700  0.941990  0.302160  1.0
  C  C96  1  0.673300  0.558010  0.802160  1.0
  C  C97  1  0.597300  0.240570  0.679590  1.0
  C  C98  1  0.402700  0.259430  0.179590  1.0
  C  C99  1  0.402700  0.759430  0.320410  1.0
  C  C100  1  0.597300  0.740570  0.820410  1.0
  C  C101  1  0.706700  0.328940  0.650850  1.0
  C  C102  1  0.293300  0.171060  0.150850  1.0
  C  C103  1  0.293300  0.671060  0.349150  1.0
  C  C104  1  0.706700  0.828940  0.849150  1.0
  C  C105  1  0.632700  0.391980  0.602150  1.0
  C  C106  1  0.367300  0.108020  0.102150  1.0
  C  C107  1  0.367300  0.608020  0.397850  1.0
  C  C108  1  0.632700  0.891980  0.897850  1.0
  C  C109  1  0.726200  0.477750  0.575960  1.0
  C  C110  1  0.273800  0.022250  0.075960  1.0
  C  C111  1  0.273800  0.522250  0.424040  1.0
  C  C112  1  0.726200  0.977750  0.924040  1.0
  C  C113  1  0.895700  0.498530  0.599090  1.0
  C  C114  1  0.104300  0.001470  0.099090  1.0
  C  C115  1  0.104300  0.501470  0.400910  1.0
  C  C116  1  0.895700  0.998530  0.900910  1.0
  C  C117  1  0.980500  0.434500  0.648770  1.0
  C  C118  1  0.019500  0.065500  0.148770  1.0
  C  C119  1  0.019500  0.565500  0.351230  1.0
  C  C120  1  0.980500  0.934500  0.851230  1.0
  C  C121  1  0.883100  0.348930  0.675520  1.0
  C  C122  1  0.116900  0.151070  0.175520  1.0
  C  C123  1  0.116900  0.651070  0.324480  1.0
  C  C124  1  0.883100  0.848930  0.824480  1.0
  C  C125  1  0.990300  0.587100  0.572400  1.0
  C  C126  1  0.009700  0.912900  0.072400  1.0
  C  C127  1  0.009700  0.412900  0.427600  1.0
  C  C128  1  0.990300  0.087100  0.927600  1.0
  C  C129  1  0.156200  0.454330  0.672560  1.0
  C  C130  1  0.843800  0.045670  0.172560  1.0
  C  C131  1  0.843800  0.545670  0.327440  1.0
  C  C132  1  0.156200  0.954330  0.827440  1.0
  C  C133  1  0.231200  0.391990  0.721120  1.0
  C  C134  1  0.768800  0.108010  0.221120  1.0
  C  C135  1  0.768800  0.608010  0.278880  1.0
  C  C136  1  0.231200  0.891990  0.778880  1.0
  C  C137  1  0.135500  0.308010  0.748780  1.0
  C  C138  1  0.864500  0.191990  0.248780  1.0
  C  C139  1  0.864500  0.691990  0.251220  1.0
  C  C140  1  0.135500  0.808010  0.751220  1.0
  C  C141  1  0.965700  0.287130  0.726680  1.0
  C  C142  1  0.034300  0.212870  0.226680  1.0
  C  C143  1  0.034300  0.712870  0.273320  1.0
  C  C144  1  0.965700  0.787130  0.773320  1.0
  N  N145  1  0.776800  0.042910  0.460330  1.0
  N  N146  1  0.223200  0.457090  0.960330  1.0
  N  N147  1  0.223200  0.957090  0.539670  1.0
  N  N148  1  0.776800  0.542910  0.039670  1.0
  N  N149  1  0.662010  0.142530  0.657590  1.0
  N  N150  1  0.337990  0.357470  0.157590  1.0
  N  N151  1  0.337990  0.857470  0.342410  1.0
  N  N152  1  0.662010  0.642530  0.842410  1.0
  N  N153  1  0.690620  0.123370  0.588260  1.0
  N  N154  1  0.309380  0.376630  0.088260  1.0
  N  N155  1  0.309380  0.876630  0.411740  1.0
  N  N156  1  0.690620  0.623370  0.911740  1.0
  N  N157  1  0.933400  0.343950  0.449480  1.0
  N  N158  1  0.066600  0.156050  0.949480  1.0
  N  N159  1  0.066600  0.656050  0.550520  1.0
  N  N160  1  0.933400  0.843950  0.050520  1.0
  F  F161  1  0.554470  0.374640  0.335050  1.0
  F  F162  1  0.445530  0.125360  0.835050  1.0
  F  F163  1  0.445530  0.625360  0.664950  1.0
  F  F164  1  0.554470  0.874640  0.164950  1.0
  F  F165  1  0.489280  0.324710  0.448690  1.0
  F  F166  1  0.510720  0.175290  0.948690  1.0
  F  F167  1  0.510720  0.675290  0.551310  1.0
  F  F168  1  0.489280  0.824710  0.051310  1.0
  F  F169  1  0.561580  0.209760  0.365810  1.0
  F  F170  1  0.438420  0.290240  0.865810  1.0
  F  F171  1  0.438420  0.790240  0.634190  1.0
  F  F172  1  0.561580  0.709760  0.134190  1.0
  F  F173  1  0.299650  0.287710  0.357700  1.0
  F  F174  1  0.700350  0.212290  0.857700  1.0
  F  F175  1  0.700350  0.712290  0.642300  1.0
  F  F176  1  0.299650  0.787710  0.142300  1.0
