# generated using pymatgen
data_AgH14C20N5O3
_symmetry_space_group_name_H-M   'P 1'
_cell_length_a   7.50510000
_cell_length_b   12.87520000
_cell_length_c   18.87290000
_cell_angle_alpha   90.00000000
_cell_angle_beta   90.00000000
_cell_angle_gamma   96.36100000
_symmetry_Int_Tables_number   1
_chemical_formula_structural   AgH14C20N5O3
_chemical_formula_sum   'Ag4 H56 C80 N20 O12'
_cell_volume   1812.45459424
_cell_formula_units_Z   4
loop_
 _symmetry_equiv_pos_site_id
 _symmetry_equiv_pos_as_xyz
  1  'x, y, z'
loop_
 _atom_site_type_symbol
 _atom_site_label
 _atom_site_symmetry_multiplicity
 _atom_site_fract_x
 _atom_site_fract_y
 _atom_site_fract_z
 _atom_site_occupancy
  Ag  Ag1  1  0.710900  0.714390  0.508966  1.0
  Ag  Ag2  1  0.289100  0.785610  0.008966  1.0
  Ag  Ag3  1  0.289100  0.285610  0.491034  1.0
  Ag  Ag4  1  0.710900  0.214390  0.991034  1.0
  H  H5  1  0.819700  0.329600  0.452000  1.0
  H  H6  1  0.180300  0.170400  0.952000  1.0
  H  H7  1  0.180300  0.670400  0.548000  1.0
  H  H8  1  0.819700  0.829600  0.048000  1.0
  H  H9  1  0.881200  0.273700  0.567000  1.0
  H  H10  1  0.118800  0.226300  0.067000  1.0
  H  H11  1  0.118800  0.726300  0.433000  1.0
  H  H12  1  0.881200  0.773700  0.933000  1.0
  H  H13  1  0.853000  0.386300  0.662700  1.0
  H  H14  1  0.147000  0.113700  0.162700  1.0
  H  H15  1  0.147000  0.613700  0.337300  1.0
  H  H16  1  0.853000  0.886300  0.837300  1.0
  H  H17  1  0.760600  0.549600  0.641800  1.0
  H  H18  1  0.239400  0.950400  0.141800  1.0
  H  H19  1  0.239400  0.450400  0.358200  1.0
  H  H20  1  0.760600  0.049600  0.858200  1.0
  H  H21  1  0.747700  0.401200  0.333333  1.0
  H  H22  1  0.252300  0.098800  0.833333  1.0
  H  H23  1  0.252300  0.598800  0.666667  1.0
  H  H24  1  0.747700  0.901200  0.166667  1.0
  H  H25  1  0.665900  0.539000  0.248700  1.0
  H  H26  1  0.334100  0.961000  0.748700  1.0
  H  H27  1  0.334100  0.461000  0.751300  1.0
  H  H28  1  0.665900  0.039000  0.251300  1.0
  H  H29  1  0.455800  0.727400  0.329100  1.0
  H  H30  1  0.544200  0.772600  0.829100  1.0
  H  H31  1  0.544200  0.272600  0.670900  1.0
  H  H32  1  0.455800  0.227400  0.170900  1.0
  H  H33  1  0.588200  0.731300  0.262400  1.0
  H  H34  1  0.411800  0.768700  0.762400  1.0
  H  H35  1  0.411800  0.268700  0.737600  1.0
  H  H36  1  0.588200  0.231300  0.237600  1.0
  H  H37  1  0.492900  0.862300  0.408400  1.0
  H  H38  1  0.507100  0.637700  0.908400  1.0
  H  H39  1  0.507100  0.137700  0.591600  1.0
  H  H40  1  0.492900  0.362300  0.091600  1.0
  H  H41  1  0.650100  0.013700  0.456600  1.0
  H  H42  1  0.349900  0.486300  0.956600  1.0
  H  H43  1  0.349900  0.986300  0.543400  1.0
  H  H44  1  0.650100  0.513700  0.043400  1.0
  H  H45  1  0.218000  0.029400  0.353400  1.0
  H  H46  1  0.782000  0.470600  0.853400  1.0
  H  H47  1  0.782000  0.970600  0.646600  1.0
  H  H48  1  0.218000  0.529400  0.146600  1.0
  H  H49  1  0.353400  0.927600  0.273300  1.0
  H  H50  1  0.646600  0.572400  0.773300  1.0
  H  H51  1  0.646600  0.072400  0.726700  1.0
  H  H52  1  0.353400  0.427600  0.226700  1.0
  H  H53  1  0.192900  0.779500  0.222500  1.0
  H  H54  1  0.807100  0.720500  0.722500  1.0
  H  H55  1  0.807100  0.220500  0.777500  1.0
  H  H56  1  0.192900  0.279500  0.277500  1.0
  H  H57  1  0.896900  0.731600  0.253000  1.0
  H  H58  1  0.103100  0.768400  0.753000  1.0
  H  H59  1  0.103100  0.268400  0.747000  1.0
  H  H60  1  0.896900  0.231600  0.247000  1.0
  C  C61  1  0.755200  0.473490  0.482490  1.0
  C  C62  1  0.244800  0.026510  0.982490  1.0
  C  C63  1  0.244800  0.526510  0.517510  1.0
  C  C64  1  0.755200  0.973490  0.017510  1.0
  C  C65  1  0.808500  0.374010  0.491610  1.0
  C  C66  1  0.191500  0.125990  0.991610  1.0
  C  C67  1  0.191500  0.625990  0.508390  1.0
  C  C68  1  0.808500  0.874010  0.008390  1.0
  C  C69  1  0.844900  0.341210  0.559410  1.0
  C  C70  1  0.155100  0.158790  0.059410  1.0
  C  C71  1  0.155100  0.658790  0.440590  1.0
  C  C72  1  0.844900  0.841210  0.940590  1.0
  C  C73  1  0.828000  0.407190  0.615790  1.0
  C  C74  1  0.172000  0.092810  0.115790  1.0
  C  C75  1  0.172000  0.592810  0.384210  1.0
  C  C76  1  0.828000  0.907190  0.884210  1.0
  C  C77  1  0.773700  0.504500  0.602710  1.0
  C  C78  1  0.226300  0.995500  0.102710  1.0
  C  C79  1  0.226300  0.495500  0.397290  1.0
  C  C80  1  0.773700  0.004500  0.897290  1.0
  C  C81  1  0.716000  0.514940  0.412460  1.0
  C  C82  1  0.284000  0.985060  0.912460  1.0
  C  C83  1  0.284000  0.485060  0.587540  1.0
  C  C84  1  0.716000  0.014940  0.087540  1.0
  C  C85  1  0.720000  0.469460  0.344820  1.0
  C  C86  1  0.280000  0.030540  0.844820  1.0
  C  C87  1  0.280000  0.530540  0.655180  1.0
  C  C88  1  0.720000  0.969460  0.155180  1.0
  C  C89  1  0.675400  0.545000  0.298800  1.0
  C  C90  1  0.324600  0.955000  0.798800  1.0
  C  C91  1  0.324600  0.455000  0.701200  1.0
  C  C92  1  0.675400  0.045000  0.201200  1.0
  C  C93  1  0.582700  0.727350  0.314750  1.0
  C  C94  1  0.417300  0.772650  0.814750  1.0
  C  C95  1  0.417300  0.272650  0.685250  1.0
  C  C96  1  0.582700  0.227350  0.185250  1.0
  C  C97  1  0.691600  0.822330  0.345690  1.0
  C  C98  1  0.308400  0.677670  0.845690  1.0
  C  C99  1  0.308400  0.177670  0.654310  1.0
  C  C100  1  0.691600  0.322330  0.154310  1.0
  C  C101  1  0.613300  0.882310  0.394270  1.0
  C  C102  1  0.386700  0.617690  0.894270  1.0
  C  C103  1  0.386700  0.117690  0.605730  1.0
  C  C104  1  0.613300  0.382310  0.105730  1.0
  C  C105  1  0.707100  0.972650  0.423480  1.0
  C  C106  1  0.292900  0.527350  0.923480  1.0
  C  C107  1  0.292900  0.027350  0.576520  1.0
  C  C108  1  0.707100  0.472650  0.076520  1.0
  C  C109  1  0.881500  0.001230  0.403870  1.0
  C  C110  1  0.118500  0.498770  0.903870  1.0
  C  C111  1  0.118500  0.998770  0.596130  1.0
  C  C112  1  0.881500  0.501230  0.096130  1.0
  C  C113  1  0.970900  0.941130  0.354410  1.0
  C  C114  1  0.029100  0.558870  0.854410  1.0
  C  C115  1  0.029100  0.058870  0.645590  1.0
  C  C116  1  0.970900  0.441130  0.145590  1.0
  C  C117  1  0.873600  0.850590  0.324590  1.0
  C  C118  1  0.126400  0.649410  0.824590  1.0
  C  C119  1  0.126400  0.149410  0.675410  1.0
  C  C120  1  0.873600  0.350590  0.175410  1.0
  C  C121  1  0.977600  0.093550  0.434100  1.0
  C  C122  1  0.022400  0.406450  0.934100  1.0
  C  C123  1  0.022400  0.906450  0.565900  1.0
  C  C124  1  0.977600  0.593550  0.065900  1.0
  C  C125  1  0.152000  0.968880  0.333840  1.0
  C  C126  1  0.848000  0.531120  0.833840  1.0
  C  C127  1  0.848000  0.031120  0.666160  1.0
  C  C128  1  0.152000  0.468880  0.166160  1.0
  C  C129  1  0.231700  0.908900  0.286120  1.0
  C  C130  1  0.768300  0.591100  0.786120  1.0
  C  C131  1  0.768300  0.091100  0.713880  1.0
  C  C132  1  0.231700  0.408900  0.213880  1.0
  C  C133  1  0.135900  0.820040  0.255860  1.0
  C  C134  1  0.864100  0.679960  0.755860  1.0
  C  C135  1  0.864100  0.179960  0.744140  1.0
  C  C136  1  0.135900  0.320040  0.244140  1.0
  C  C137  1  0.960800  0.791490  0.274170  1.0
  C  C138  1  0.039200  0.708510  0.774170  1.0
  C  C139  1  0.039200  0.208510  0.725830  1.0
  C  C140  1  0.960800  0.291490  0.225830  1.0
  N  N141  1  0.738800  0.538190  0.537640  1.0
  N  N142  1  0.261200  0.961810  0.037640  1.0
  N  N143  1  0.261200  0.461810  0.462360  1.0
  N  N144  1  0.738800  0.038190  0.962360  1.0
  N  N145  1  0.647300  0.629760  0.338080  1.0
  N  N146  1  0.352700  0.870240  0.838080  1.0
  N  N147  1  0.352700  0.370240  0.661920  1.0
  N  N148  1  0.647300  0.129760  0.161920  1.0
  N  N149  1  0.670600  0.612700  0.407620  1.0
  N  N150  1  0.329400  0.887300  0.907620  1.0
  N  N151  1  0.329400  0.387300  0.592380  1.0
  N  N152  1  0.670600  0.112700  0.092380  1.0
  N  N153  1  0.940800  0.834980  0.541350  1.0
  N  N154  1  0.059200  0.665020  0.041350  1.0
  N  N155  1  0.059200  0.165020  0.458650  1.0
  N  N156  1  0.940800  0.334980  0.958650  1.0
  N  N157  1  0.460400  0.792810  0.613580  1.0
  N  N158  1  0.539600  0.707190  0.113580  1.0
  N  N159  1  0.539600  0.207190  0.386420  1.0
  N  N160  1  0.460400  0.292810  0.886420  1.0
  O  O161  1  0.323700  0.812110  0.646230  1.0
  O  O162  1  0.676300  0.687890  0.146230  1.0
  O  O163  1  0.676300  0.187890  0.353770  1.0
  O  O164  1  0.323700  0.312110  0.853770  1.0
  O  O165  1  0.577100  0.747950  0.643450  1.0
  O  O166  1  0.422900  0.752050  0.143450  1.0
  O  O167  1  0.422900  0.252050  0.356550  1.0
  O  O168  1  0.577100  0.247950  0.856550  1.0
  O  O169  1  0.478000  0.815340  0.548710  1.0
  O  O170  1  0.522000  0.684660  0.048710  1.0
  O  O171  1  0.522000  0.184660  0.451290  1.0
  O  O172  1  0.478000  0.315340  0.951290  1.0
