# generated using pymatgen
data_Ni2B4H78C74N26O19F24
_symmetry_space_group_name_H-M   'P 1'
_cell_length_a   13.02550000
_cell_length_b   19.79880000
_cell_length_c   20.03730000
_cell_angle_alpha   112.17200000
_cell_angle_beta   98.86400000
_cell_angle_gamma   94.26800000
_symmetry_Int_Tables_number   1
_chemical_formula_structural   Ni2B4H78C74N26O19F24
_chemical_formula_sum   'Ni4 B8 H156 C148 N52 O38 F48'
_cell_volume   4678.25777211
_cell_formula_units_Z   2
loop_
 _symmetry_equiv_pos_site_id
 _symmetry_equiv_pos_as_xyz
  1  'x, y, z'
loop_
 _atom_site_type_symbol
 _atom_site_label
 _atom_site_symmetry_multiplicity
 _atom_site_fract_x
 _atom_site_fract_y
 _atom_site_fract_z
 _atom_site_occupancy
  Ni  Ni1  1  0.821040  0.645320  0.371420  1.0
  Ni  Ni2  1  0.178960  0.354680  0.628580  1.0
  Ni  Ni3  1  0.719690  0.788560  0.858620  1.0
  Ni  Ni4  1  0.280310  0.211440  0.141380  1.0
  B  B5  1  0.411700  0.604600  0.435900  1
  B  B6  1  0.588300  0.395400  0.564100  1
  B  B7  1  0.264800  0.789500  0.741500  1
  B  B8  1  0.735200  0.210500  0.258500  1
  B  B9  1  0.848500  0.250700  0.020500  1
  B  B10  1  0.151500  0.749300  0.979500  1
  B  B11  1  0.169600  0.954900  0.310500  1
  B  B12  1  0.830400  0.045100  0.689500  1
  H  H13  1  0.247800  0.784900  0.349600  1
  H  H14  1  0.752200  0.215100  0.650400  1
  H  H15  1  0.346200  0.746700  0.368200  1
  H  H16  1  0.653800  0.253300  0.631800  1
  H  H17  1  0.244900  0.742500  0.403500  1
  H  H18  1  0.755100  0.257500  0.596500  1
  H  H19  1  0.410100  0.968700  0.738900  1
  H  H20  1  0.589900  0.031300  0.261100  1
  H  H21  1  0.337300  0.957700  0.792600  1
  H  H22  1  0.662700  0.042300  0.207400  1
  H  H23  1  0.371100  0.038400  0.795900  1
  H  H24  1  0.628900  0.961600  0.204100  1
  H  H25  1  0.234500  0.745100  0.180900  1
  H  H26  1  0.765500  0.254900  0.819100  1
  H  H27  1  0.227500  0.805200  0.145400  1
  H  H28  1  0.772500  0.194800  0.854600  1
  H  H29  1  0.286400  0.828900  0.228800  1
  H  H30  1  0.713600  0.171100  0.771200  1
  H  H31  1  0.543700  0.593100  0.068300  1
  H  H32  1  0.456300  0.406900  0.931700  1
  H  H33  1  0.574600  0.590800  0.993300  1
  H  H34  1  0.425400  0.409200  0.006700  1
  H  H35  1  0.531800  0.661700  0.045400  1
  H  H36  1  0.468200  0.338300  0.954600  1
  H  H37  1  0.955100  0.745400  0.069300  1
  H  H38  1  0.044900  0.254600  0.930700  1
  H  H39  1  0.028500  0.779100  0.149500  1
  H  H40  1  0.971500  0.220900  0.850500  1
  H  H41  1  0.905400  0.755000  0.140000  1
  H  H42  1  0.094600  0.245000  0.860000  1
  H  H43  1  0.450000  0.985700  0.335700  1
  H  H44  1  0.550000  0.014300  0.664300  1
  H  H45  1  0.513500  0.012700  0.418500  1
  H  H46  1  0.486500  0.987300  0.581500  1
  H  H47  1  0.405100  0.957800  0.392300  1
  H  H48  1  0.594900  0.042200  0.607700  1
  H  H49  1  0.160000  0.942400  0.940700  1
  H  H50  1  0.840000  0.057600  0.059300  1
  H  H51  1  0.201100  0.870200  0.946300  1
  H  H52  1  0.798900  0.129800  0.053700  1
  H  H53  1  0.178700  0.877200  0.868500  1
  H  H54  1  0.821300  0.122800  0.131500  1
  H  H55  1  0.139000  0.516100  0.027100  1
  H  H56  1  0.861000  0.483900  0.972900  1
  H  H57  1  0.178500  0.595700  0.029700  1
  H  H58  1  0.821500  0.404300  0.970300  1
  H  H59  1  0.183400  0.583300  0.104500  1
  H  H60  1  0.816600  0.416700  0.895500  1
  H  H61  1  0.910600  0.610900  0.228900  1.0
  H  H62  1  0.089400  0.389100  0.771100  1.0
  H  H63  1  0.944900  0.506000  0.132700  1.0
  H  H64  1  0.055100  0.494000  0.867300  1.0
  H  H65  1  0.908900  0.389300  0.137900  1.0
  H  H66  1  0.091100  0.610700  0.862100  1.0
  H  H67  1  0.827400  0.380700  0.230500  1.0
  H  H68  1  0.172600  0.619300  0.769500  1.0
  H  H69  1  0.740500  0.381800  0.339900  1.0
  H  H70  1  0.259500  0.618200  0.660100  1.0
  H  H71  1  0.688900  0.444500  0.459200  1.0
  H  H72  1  0.311100  0.555500  0.540800  1.0
  H  H73  1  0.670400  0.581500  0.540000  1.0
  H  H74  1  0.329600  0.418500  0.460000  1.0
  H  H75  1  0.707800  0.643300  0.511800  1.0
  H  H76  1  0.292200  0.356700  0.488200  1.0
  H  H77  1  0.553400  0.893300  0.906300  1.0
  H  H78  1  0.446600  0.106700  0.093700  1.0
  H  H79  1  0.521000  0.010400  0.913500  1.0
  H  H80  1  0.479000  0.989600  0.086500  1.0
  H  H81  1  0.639700  0.078200  0.875100  1.0
  H  H82  1  0.360300  0.921800  0.124900  1.0
  H  H83  1  0.781700  0.025700  0.831600  1.0
  H  H84  1  0.218300  0.974300  0.168400  1.0
  H  H85  1  0.923800  0.956900  0.774000  1.0
  H  H86  1  0.076200  0.043100  0.226000  1.0
  H  H87  1  0.019200  0.847200  0.734100  1.0
  H  H88  1  0.980800  0.152800  0.265900  1.0
  H  H89  1  0.906500  0.702300  0.787300  1.0
  H  H90  1  0.093500  0.297700  0.212700  1.0
  H  H91  1  0.022500  0.731300  0.783500  1.0
  H  H92  1  0.977500  0.268700  0.216500  1.0
  H  H93  1  0.946600  0.567400  0.526200  1.0
  H  H94  1  0.053400  0.432600  0.473800  1.0
  H  H95  1  0.061700  0.639900  0.653600  1.0
  H  H96  1  0.938300  0.360100  0.346400  1.0
  H  H97  1  0.026100  0.572900  0.377400  1.0
  H  H98  1  0.973900  0.427100  0.622600  1.0
  H  H99  1  0.192400  0.601800  0.452500  1.0
  H  H100  1  0.807600  0.398200  0.547500  1.0
  H  H101  1  0.234300  0.711600  0.556800  1.0
  H  H102  1  0.765700  0.288400  0.443200  1.0
  H  H103  1  0.106800  0.788800  0.585500  1.0
  H  H104  1  0.893200  0.211200  0.414500  1.0
  H  H105  1  0.957000  0.871100  0.595000  1.0
  H  H106  1  0.043000  0.128900  0.405000  1.0
  H  H107  1  0.767800  0.889400  0.575100  1.0
  H  H108  1  0.232200  0.110600  0.424900  1.0
  H  H109  1  0.612400  0.712700  0.437300  1.0
  H  H110  1  0.387600  0.287300  0.562700  1.0
  H  H111  1  0.614000  0.788700  0.426100  1.0
  H  H112  1  0.386000  0.211300  0.573900  1.0
  H  H113  1  0.854200  0.704900  0.937900  1.0
  H  H114  1  0.145800  0.295100  0.062100  1.0
  H  H115  1  0.896500  0.585700  0.909800  1.0
  H  H116  1  0.103500  0.414300  0.090200  1.0
  H  H117  1  0.818700  0.493000  0.794500  1.0
  H  H118  1  0.181300  0.507000  0.205500  1.0
  H  H119  1  0.698600  0.520800  0.713600  1.0
  H  H120  1  0.301400  0.479200  0.286400  1.0
  H  H121  1  0.559800  0.560900  0.635400  1.0
  H  H122  1  0.440200  0.439100  0.364600  1.0
  H  H123  1  0.480500  0.657100  0.599400  1.0
  H  H124  1  0.519500  0.342900  0.400600  1.0
  H  H125  1  0.610000  0.841400  0.729600  1.0
  H  H126  1  0.390000  0.158600  0.270400  1.0
  H  H127  1  0.487100  0.819800  0.723900  1.0
  H  H128  1  0.512900  0.180200  0.276100  1.0
  H  H129  1  0.449800  0.844800  0.490300  1.0
  H  H130  1  0.550200  0.155200  0.509700  1.0
  H  H131  1  0.393300  0.854900  0.610400  1.0
  H  H132  1  0.606700  0.145100  0.389600  1.0
  H  H133  1  0.020300  0.746600  0.367800  1.0
  H  H134  1  0.979700  0.253400  0.632200  1.0
  H  H135  1  0.054300  0.849900  0.344400  1.0
  H  H136  1  0.945700  0.150100  0.655600  1.0
  H  H137  1  0.912800  0.895000  0.295200  1.0
  H  H138  1  0.087200  0.105000  0.704800  1.0
  H  H139  1  0.742400  0.831400  0.266700  1.0
  H  H140  1  0.257600  0.168600  0.733300  1.0
  H  H141  1  0.566700  0.747400  0.232700  1.0
  H  H142  1  0.433300  0.252600  0.767300  1.0
  H  H143  1  0.449600  0.637700  0.224600  1.0
  H  H144  1  0.550400  0.362300  0.775400  1.0
  H  H145  1  0.468800  0.538800  0.279800  1.0
  H  H146  1  0.531200  0.461200  0.720200  1.0
  H  H147  1  0.580400  0.543100  0.328800  1.0
  H  H148  1  0.419600  0.456900  0.671200  1.0
  H  H149  1  0.952900  0.862000  0.944400  1.0
  H  H150  1  0.047100  0.138000  0.055600  1.0
  H  H151  1  0.041900  0.918800  0.063600  1.0
  H  H152  1  0.958100  0.081200  0.936400  1.0
  H  H153  1  0.952000  0.932300  0.159200  1.0
  H  H154  1  0.048000  0.067700  0.840800  1.0
  H  H155  1  0.774900  0.881100  0.131600  1.0
  H  H156  1  0.225100  0.118900  0.868400  1.0
  H  H157  1  0.580600  0.841200  0.090700  1.0
  H  H158  1  0.419400  0.158800  0.909300  1.0
  H  H159  1  0.414300  0.776200  0.997700  1.0
  H  H160  1  0.585700  0.223800  0.002300  1.0
  H  H161  1  0.462600  0.717700  0.810200  1.0
  H  H162  1  0.537400  0.282300  0.189800  1.0
  H  H163  1  0.366300  0.730500  0.852300  1.0
  H  H164  1  0.633700  0.269500  0.147700  1.0
  H  H165  1  0.631000  0.517300  0.146100  1.0
  H  H166  1  0.369000  0.482700  0.853900  1.0
  H  H167  1  0.641200  0.381400  0.076300  1.0
  H  H168  1  0.358800  0.618600  0.923700  1.0
  C  C169  1  0.269400  0.742800  0.359700  1
  C  C170  1  0.730600  0.257200  0.640300  1
  C  C171  1  0.352000  0.986100  0.763500  1
  C  C172  1  0.648000  0.013900  0.236500  1
  C  C173  1  0.271500  0.789400  0.179500  1
  C  C174  1  0.728500  0.210600  0.820500  1
  C  C175  1  0.574100  0.622500  0.044400  1
  C  C176  1  0.425900  0.377500  0.955600  1
  C  C177  1  0.967300  0.743300  0.118000  1
  C  C178  1  0.032700  0.256700  0.882000  1
  C  C179  1  0.469000  0.971300  0.377200  1
  C  C180  1  0.531000  0.028700  0.622800  1
  C  C181  1  0.204200  0.904400  0.921500  1
  C  C182  1  0.795800  0.095600  0.078500  1
  C  C183  1  0.190600  0.560700  0.053000  1
  C  C184  1  0.809400  0.439300  0.947000  1
  C  C185  1  0.894200  0.563400  0.229100  1.0
  C  C186  1  0.105800  0.436600  0.770900  1.0
  C  C187  1  0.915800  0.501100  0.171600  1.0
  C  C188  1  0.084200  0.498900  0.828400  1.0
  C  C189  1  0.892800  0.432300  0.174100  1.0
  C  C190  1  0.107200  0.567700  0.825900  1.0
  C  C191  1  0.846600  0.427500  0.229600  1.0
  C  C192  1  0.153400  0.572500  0.770400  1.0
  C  C193  1  0.828100  0.490100  0.283500  1.0
  C  C194  1  0.171900  0.509900  0.716500  1.0
  C  C195  1  0.783300  0.490500  0.346500  1.0
  C  C196  1  0.216700  0.509500  0.653500  1.0
  C  C197  1  0.745100  0.433400  0.366500  1.0
  C  C198  1  0.254900  0.566600  0.633500  1.0
  C  C199  1  0.717100  0.467900  0.431000  1.0
  C  C200  1  0.282900  0.532100  0.569000  1.0
  C  C201  1  0.726700  0.599000  0.519800  1.0
  C  C202  1  0.273300  0.401000  0.480200  1.0
  C  C203  1  0.600300  0.920900  0.890900  1.0
  C  C204  1  0.399700  0.079100  0.109100  1.0
  C  C205  1  0.580200  0.990700  0.895500  1.0
  C  C206  1  0.419800  0.009300  0.104500  1.0
  C  C207  1  0.650100  0.030400  0.872800  1.0
  C  C208  1  0.349900  0.969600  0.127200  1.0
  C  C209  1  0.733400  0.999400  0.847300  1.0
  C  C210  1  0.266600  0.000600  0.152700  1.0
  C  C211  1  0.748200  0.930100  0.844100  1.0
  C  C212  1  0.251800  0.069900  0.155900  1.0
  C  C213  1  0.831200  0.891300  0.811500  1.0
  C  C214  1  0.168800  0.108700  0.188500  1.0
  C  C215  1  0.909600  0.911800  0.779700  1.0
  C  C216  1  0.090400  0.088200  0.220300  1.0
  C  C217  1  0.961400  0.851500  0.758400  1.0
  C  C218  1  0.038600  0.148500  0.241600  1.0
  C  C219  1  0.947100  0.726300  0.762300  1.0
  C  C220  1  0.052900  0.273700  0.237700  1.0
  C  C221  1  0.828600  0.618500  0.573400  1.0
  C  C222  1  0.171400  0.381500  0.426600  1.0
  C  C223  1  0.925100  0.600200  0.568400  1.0
  C  C224  1  0.074900  0.399800  0.431600  1.0
  C  C225  1  0.988700  0.640300  0.639600  1.0
  C  C226  1  0.011300  0.359700  0.360400  1.0
  C  C227  1  0.927800  0.678100  0.682500  1.0
  C  C228  1  0.072200  0.321900  0.317500  1.0
  C  C229  1  0.042100  0.617400  0.420200  1.0
  C  C230  1  0.957900  0.382600  0.579800  1.0
  C  C231  1  0.142000  0.634500  0.464800  1.0
  C  C232  1  0.858000  0.365500  0.535200  1.0
  C  C233  1  0.166500  0.698700  0.526200  1.0
  C  C234  1  0.833500  0.301300  0.473800  1.0
  C  C235  1  0.091600  0.744100  0.542900  1.0
  C  C236  1  0.908400  0.255900  0.457100  1.0
  C  C237  1  0.993100  0.724100  0.497000  1.0
  C  C238  1  0.006900  0.275900  0.503000  1.0
  C  C239  1  0.905500  0.766600  0.511100  1.0
  C  C240  1  0.094500  0.233400  0.488900  1.0
  C  C241  1  0.900300  0.836700  0.560200  1.0
  C  C242  1  0.099700  0.163300  0.439800  1.0
  C  C243  1  0.796900  0.847000  0.548800  1.0
  C  C244  1  0.203100  0.153000  0.451200  1.0
  C  C245  1  0.631500  0.766900  0.462800  1.0
  C  C246  1  0.368500  0.233100  0.537200  1.0
  C  C247  1  0.822800  0.667000  0.891600  1.0
  C  C248  1  0.177200  0.333000  0.108400  1.0
  C  C249  1  0.848500  0.596200  0.875500  1.0
  C  C250  1  0.151500  0.403800  0.124500  1.0
  C  C251  1  0.801900  0.541700  0.807700  1.0
  C  C252  1  0.198100  0.458300  0.192300  1.0
  C  C253  1  0.731500  0.558000  0.759900  1.0
  C  C254  1  0.268500  0.442000  0.240100  1.0
  C  C255  1  0.708500  0.629300  0.779600  1.0
  C  C256  1  0.291500  0.370700  0.220400  1.0
  C  C257  1  0.639100  0.652800  0.731000  1.0
  C  C258  1  0.360900  0.347200  0.269000  1.0
  C  C259  1  0.572100  0.612800  0.662400  1.0
  C  C260  1  0.427900  0.387200  0.337600  1.0
  C  C261  1  0.528600  0.665800  0.643600  1.0
  C  C262  1  0.471400  0.334200  0.356400  1.0
  C  C263  1  0.547400  0.804800  0.699900  1.0
  C  C264  1  0.452600  0.195200  0.300100  1.0
  C  C265  1  0.568800  0.795300  0.521600  1.0
  C  C266  1  0.431200  0.204700  0.478400  1.0
  C  C267  1  0.483700  0.828300  0.525600  1.0
  C  C268  1  0.516300  0.171700  0.474400  1.0
  C  C269  1  0.452500  0.834700  0.592700  1.0
  C  C270  1  0.547500  0.165300  0.407300  1.0
  C  C271  1  0.525800  0.805400  0.626300  1.0
  C  C272  1  0.474200  0.194600  0.373700  1.0
  C  C273  1  0.963000  0.764900  0.347900  1.0
  C  C274  1  0.037000  0.235100  0.652100  1.0
  C  C275  1  0.984400  0.825800  0.334100  1.0
  C  C276  1  0.015600  0.174200  0.665900  1.0
  C  C277  1  0.900800  0.851700  0.304400  1.0
  C  C278  1  0.099200  0.148300  0.695600  1.0
  C  C279  1  0.800100  0.814800  0.288100  1.0
  C  C280  1  0.199900  0.185200  0.711900  1.0
  C  C281  1  0.785500  0.752200  0.304100  1.0
  C  C282  1  0.214500  0.247800  0.695900  1.0
  C  C283  1  0.684100  0.707100  0.287200  1.0
  C  C284  1  0.315900  0.292900  0.712800  1.0
  C  C285  1  0.585300  0.711100  0.250800  1.0
  C  C286  1  0.414700  0.288900  0.749200  1.0
  C  C287  1  0.521800  0.651600  0.247200  1.0
  C  C288  1  0.478200  0.348400  0.752800  1.0
  C  C289  1  0.545600  0.545000  0.282100  1.0
  C  C290  1  0.454400  0.455000  0.717900  1.0
  C  C291  1  0.915800  0.866900  0.982900  1.0
  C  C292  1  0.084200  0.133100  0.017100  1.0
  C  C293  1  0.969200  0.900500  0.053200  1.0
  C  C294  1  0.030800  0.099500  0.946800  1.0
  C  C295  1  0.916400  0.907600  0.109500  1.0
  C  C296  1  0.083600  0.092400  0.890500  1.0
  C  C297  1  0.811600  0.878900  0.093500  1.0
  C  C298  1  0.188400  0.121100  0.906500  1.0
  C  C299  1  0.760100  0.845900  0.018500  1.0
  C  C300  1  0.239900  0.154100  0.981500  1.0
  C  C301  1  0.649800  0.815900  0.997200  1.0
  C  C302  1  0.350200  0.184100  0.002800  1.0
  C  C303  1  0.572800  0.819200  0.038700  1.0
  C  C304  1  0.427200  0.180800  0.961300  1.0
  C  C305  1  0.482200  0.783200  0.987400  1.0
  C  C306  1  0.517800  0.216800  0.012600  1.0
  C  C307  1  0.435700  0.713200  0.852100  1.0
  C  C308  1  0.564300  0.286800  0.147900  1.0
  C  C309  1  0.571200  0.484200  0.219800  1.0
  C  C310  1  0.428800  0.515800  0.780200  1.0
  C  C311  1  0.610400  0.478000  0.159800  1.0
  C  C312  1  0.389600  0.522000  0.840200  1.0
  C  C313  1  0.615600  0.402300  0.120500  1.0
  C  C314  1  0.384400  0.597700  0.879500  1.0
  C  C315  1  0.422900  0.633900  0.842100  1.0
  C  C316  1  0.577100  0.366100  0.157900  1.0
  N  N317  1  0.223500  0.674000  0.296400  1
  N  N318  1  0.776500  0.326000  0.703600  1
  N  N319  1  0.262900  0.977000  0.710900  1
  N  N320  1  0.737100  0.023000  0.289100  1
  N  N321  1  0.367800  0.773400  0.155500  1
  N  N322  1  0.632200  0.226600  0.844500  1
  N  N323  1  0.683100  0.655700  0.084000  1
  N  N324  1  0.316900  0.344300  0.916000  1
  N  N325  1  0.986400  0.669500  0.110600  1
  N  N326  1  0.013600  0.330500  0.889400  1
  N  N327  1  0.525000  0.909700  0.355700  1
  N  N328  1  0.475000  0.090300  0.644300  1
  N  N329  1  0.306200  0.936900  0.934200  1
  N  N330  1  0.693800  0.063100  0.065800  1
  N  N331  1  0.294900  0.541800  0.049800  1
  N  N332  1  0.705100  0.458200  0.950200  1
  N  N333  1  0.851700  0.557600  0.283200  1.0
  N  N334  1  0.148300  0.442400  0.716800  1.0
  N  N335  1  0.735300  0.541300  0.449600  1.0
  N  N336  1  0.264700  0.458700  0.550400  1.0
  N  N337  1  0.775600  0.556600  0.397800  1.0
  N  N338  1  0.224400  0.443400  0.602200  1.0
  N  N339  1  0.681000  0.891800  0.866100  1.0
  N  N340  1  0.319000  0.108200  0.133900  1.0
  N  N341  1  0.917900  0.800500  0.777200  1.0
  N  N342  1  0.082100  0.199500  0.222800  1.0
  N  N343  1  0.836900  0.822700  0.810200  1.0
  N  N344  1  0.163100  0.177300  0.189800  1.0
  N  N345  1  0.968400  0.661300  0.435600  1.0
  N  N346  1  0.031600  0.338700  0.564400  1.0
  N  N347  1  0.744300  0.784800  0.492900  1.0
  N  N348  1  0.255700  0.215200  0.507100  1.0
  N  N349  1  0.810800  0.734000  0.469300  1.0
  N  N350  1  0.189200  0.266000  0.530700  1.0
  N  N351  1  0.755700  0.683800  0.844600  1.0
  N  N352  1  0.244300  0.316200  0.155400  1.0
  N  N353  1  0.565800  0.732400  0.698500  1.0
  N  N354  1  0.434200  0.267600  0.301500  1.0
  N  N355  1  0.632500  0.725000  0.753300  1.0
  N  N356  1  0.367500  0.275000  0.246700  1.0
  N  N357  1  0.865500  0.728300  0.335400  1.0
  N  N358  1  0.134500  0.271700  0.664600  1.0
  N  N359  1  0.579400  0.616100  0.281200  1.0
  N  N360  1  0.420600  0.383900  0.718800  1.0
  N  N361  1  0.679800  0.649600  0.305800  1.0
  N  N362  1  0.320200  0.350400  0.694200  1.0
  N  N363  1  0.812300  0.840000  0.964700  1.0
  N  N364  1  0.187700  0.160000  0.035300  1.0
  N  N365  1  0.506900  0.759400  0.919900  1.0
  N  N366  1  0.493100  0.240600  0.080100  1.0
  N  N367  1  0.610500  0.779100  0.925000  1.0
  N  N368  1  0.389500  0.220900  0.075000  1.0
  O  O369  1  0.266000  0.651800  0.243100  1
  O  O370  1  0.734000  0.348200  0.756900  1
  O  O371  1  0.144700  0.639900  0.300800  1
  O  O372  1  0.855300  0.360100  0.699200  1
  O  O373  1  0.249300  0.936800  0.646700  1
  O  O374  1  0.750700  0.063200  0.353300  1
  O  O375  1  0.187900  0.010800  0.733200  1
  O  O376  1  0.812100  0.989200  0.266800  1
  O  O377  1  0.377900  0.709500  0.121400  1
  O  O378  1  0.622100  0.290500  0.878600  1
  O  O379  1  0.439100  0.825100  0.171200  1
  O  O380  1  0.560900  0.174900  0.828800  1
  O  O381  1  0.734600  0.629800  0.121400  1
  O  O382  1  0.265400  0.370200  0.878600  1
  O  O383  1  0.711700  0.725100  0.112400  1
  O  O384  1  0.288300  0.274900  0.887600  1
  O  O385  1  0.038400  0.664100  0.163600  1
  O  O386  1  0.961600  0.335900  0.836400  1
  O  O387  1  0.950700  0.616400  0.056000  1
  O  O388  1  0.049300  0.383600  0.944000  1
  O  O389  1  0.600800  0.913800  0.325100  1
  O  O390  1  0.399200  0.086200  0.674900  1
  O  O391  1  0.492900  0.856100  0.365500  1
  O  O392  1  0.507100  0.143900  0.634500  1
  O  O393  1  0.377000  0.901000  0.951800  1
  O  O394  1  0.623000  0.099000  0.048200  1
  O  O395  1  0.324300  0.994200  0.930200  1
  O  O396  1  0.675700  0.005800  0.069800  1
  O  O397  1  0.330700  0.538300  0.995600  1
  O  O398  1  0.669300  0.461700  0.004400  1
  O  O399  1  0.343500  0.528400  0.098000  1
  O  O400  1  0.656500  0.471600  0.902000  1
  O  O401  1  0.826500  0.666000  0.643700  1.0
  O  O402  1  0.173500  0.334000  0.356300  1.0
  O  O403  1  0.598100  0.780700  0.583000  1.0
  O  O404  1  0.401900  0.219300  0.417000  1.0
  O  O405  1  0.549000  0.415100  0.219100  1.0
  O  O406  1  0.451000  0.584900  0.780900  1.0
  F  F407  1  0.347800  0.538400  0.420700  1
  F  F408  1  0.652200  0.461600  0.579300  1
  F  F409  1  0.384000  0.621700  0.374300  1
  F  F410  1  0.616000  0.378300  0.625700  1
  F  F411  1  0.513200  0.592800  0.446100  1
  F  F412  1  0.486800  0.407200  0.553900  1
  F  F413  1  0.387900  0.659800  0.493800  1
  F  F414  1  0.612100  0.340200  0.506200  1
  F  F415  1  0.304800  0.746200  0.681900  1
  F  F416  1  0.695200  0.253800  0.318100  1
  F  F417  1  0.348500  0.835600  0.795200  1
  F  F418  1  0.651500  0.164400  0.204800  1
  F  F419  1  0.212600  0.744100  0.766800  1
  F  F420  1  0.787400  0.255900  0.233200  1
  F  F421  1  0.196100  0.830800  0.721000  1
  F  F422  1  0.803900  0.169200  0.279000  1
  F  F423  1  0.813200  0.182200  0.963600  1
  F  F424  1  0.186800  0.817800  0.036400  1
  F  F425  1  0.920300  0.246900  0.076500  1
  F  F426  1  0.079700  0.753100  0.923500  1
  F  F427  1  0.759700  0.274300  0.043000  1
  F  F428  1  0.240300  0.725700  0.957000  1
  F  F429  1  0.896600  0.300300  0.996800  1
  F  F430  1  0.103400  0.699700  0.003200  1
  F  F431  1  0.214900  0.903600  0.332600  1
  F  F432  1  0.785100  0.096400  0.667400  1
  F  F433  1  0.249300  0.009000  0.315700  1
  F  F434  1  0.750700  0.991000  0.684300  1
  F  F435  1  0.113300  0.922100  0.239900  1
  F  F436  1  0.886700  0.077900  0.760100  1
  F  F437  1  0.104700  0.985700  0.359900  1
  F  F438  1  0.895300  0.014300  0.640100  1
  F  F439  1  0.522600  0.623300  0.439300  1
  F  F440  1  0.477400  0.376700  0.560700  1
  F  F441  1  0.383200  0.650700  0.507200  1
  F  F442  1  0.616800  0.349300  0.492800  1
  F  F443  1  0.846000  0.181200  0.958500  1
  F  F444  1  0.154000  0.818800  0.041500  1
  F  F445  1  0.940700  0.253100  0.055600  1
  F  F446  1  0.059300  0.746900  0.944400  1
  F  F447  1  0.854000  0.306300  0.989300  1
  F  F448  1  0.146000  0.693700  0.010700  1
  F  F449  1  0.770900  0.264300  0.069100  1
  F  F450  1  0.229100  0.735700  0.930900  1
  F  F451  1  0.133000  0.909600  0.229000  1
  F  F452  1  0.867000  0.090400  0.771000  1
  F  F453  1  0.085000  0.987500  0.337000  1
  F  F454  1  0.915000  0.012500  0.663000  1
