# generated using pymatgen
data_H4RhC8O5
_symmetry_space_group_name_H-M   'P 1'
_cell_length_a   22.54300000
_cell_length_b   24.36900000
_cell_length_c   24.84500000
_cell_angle_alpha   97.04900000
_cell_angle_beta   114.10700000
_cell_angle_gamma   111.84900000
_symmetry_Int_Tables_number   1
_chemical_formula_structural   H4RhC8O5
_chemical_formula_sum   'H96 Rh24 C192 O120'
_cell_volume   10938.51686105
_cell_formula_units_Z   24
loop_
 _symmetry_equiv_pos_site_id
 _symmetry_equiv_pos_as_xyz
  1  'x, y, z'
loop_
 _atom_site_type_symbol
 _atom_site_label
 _atom_site_symmetry_multiplicity
 _atom_site_fract_x
 _atom_site_fract_y
 _atom_site_fract_z
 _atom_site_occupancy
  H  H1  1  0.592400  0.961500  0.919500  1.0
  H  H2  1  0.407600  0.038500  0.080500  1.0
  H  H3  1  0.663600  0.917100  0.977900  1.0
  H  H4  1  0.336400  0.082900  0.022100  1.0
  H  H5  1  0.786800  0.982700  0.052400  1.0
  H  H6  1  0.213200  0.017300  0.947600  1.0
  H  H7  1  0.769000  0.131200  0.003500  1.0
  H  H8  1  0.231000  0.868800  0.996500  1.0
  H  H9  1  0.445400  0.125300  0.995400  1.0
  H  H10  1  0.554600  0.874700  0.004600  1.0
  H  H11  1  0.447200  0.163200  0.085400  1.0
  H  H12  1  0.552800  0.836800  0.914600  1.0
  H  H13  1  0.550200  0.249100  0.167000  1.0
  H  H14  1  0.449800  0.750900  0.833000  1.0
  H  H15  1  0.649200  0.269600  0.062100  1.0
  H  H16  1  0.350800  0.730400  0.937900  1.0
  H  H17  1  0.333500  0.137500  0.727000  1.0
  H  H18  1  0.666500  0.862500  0.273000  1.0
  H  H19  1  0.266100  0.179500  0.659300  1.0
  H  H20  1  0.733900  0.820500  0.340700  1.0
  H  H21  1  0.332800  0.282400  0.659000  1.0
  H  H22  1  0.667200  0.717600  0.341000  1.0
  H  H23  1  0.525800  0.293400  0.781900  1.0
  H  H24  1  0.474200  0.706600  0.218100  1.0
  H  H25  1  0.468600  0.984300  0.667000  1.0
  H  H26  1  0.531400  0.015700  0.333000  1.0
  H  H27  1  0.473500  0.951000  0.575900  1.0
  H  H28  1  0.526500  0.049000  0.424100  1.0
  H  H29  1  0.558700  0.021800  0.553500  1.0
  H  H30  1  0.441300  0.978200  0.446500  1.0
  H  H31  1  0.646100  0.153500  0.721300  1.0
  H  H32  1  0.353900  0.846500  0.278700  1.0
  H  H33  1  0.240300  0.216700  0.331500  1.0
  H  H34  1  0.759700  0.783300  0.668500  1.0
  H  H35  1  0.370100  0.278100  0.399200  1.0
  H  H36  1  0.629900  0.721900  0.600800  1.0
  H  H37  1  0.432200  0.372100  0.381500  1.0
  H  H38  1  0.567800  0.627900  0.618500  1.0
  H  H39  1  0.240900  0.353700  0.251900  1.0
  H  H40  1  0.759100  0.646300  0.748100  1.0
  H  H41  1  0.947600  0.174300  0.332100  1.0
  H  H42  1  0.052400  0.825700  0.667900  1.0
  H  H43  1  0.890300  0.198500  0.384500  1.0
  H  H44  1  0.109700  0.801500  0.615500  1.0
  H  H45  1  0.845800  0.267500  0.362700  1.0
  H  H46  1  0.154200  0.732500  0.637300  1.0
  H  H47  1  0.915900  0.296200  0.238500  1.0
  H  H48  1  0.084100  0.703800  0.761500  1.0
  H  H49  1  0.066100  0.030300  0.067700  1.0
  H  H50  1  0.933900  0.969700  0.932300  1.0
  H  H51  1  0.122000  0.007400  0.013000  1.0
  H  H52  1  0.878000  0.992600  0.987000  1.0
  H  H53  1  0.148700  0.067900  0.955600  1.0
  H  H54  1  0.851300  0.932100  0.044400  1.0
  H  H55  1  0.099000  0.190600  0.026500  1.0
  H  H56  1  0.901000  0.809400  0.973500  1.0
  H  H57  1  0.975300  0.535400  0.479500  1.0
  H  H58  1  0.024700  0.464600  0.520500  1.0
  H  H59  1  0.087500  0.613800  0.560700  1.0
  H  H60  1  0.912500  0.386200  0.439300  1.0
  H  H61  1  0.171500  0.687600  0.539500  1.0
  H  H62  1  0.828500  0.312400  0.460500  1.0
  H  H63  1  0.029300  0.598000  0.355500  1.0
  H  H64  1  0.970700  0.402000  0.644500  1.0
  H  H65  1  0.675700  0.531100  0.286900  1.0
  H  H66  1  0.324300  0.468900  0.713100  1.0
  H  H67  1  0.642300  0.612500  0.281000  1.0
  H  H68  1  0.357700  0.387500  0.719000  1.0
  H  H69  1  0.663700  0.668000  0.213600  1.0
  H  H70  1  0.336300  0.332000  0.786400  1.0
  H  H71  1  0.769300  0.574600  0.182000  1.0
  H  H72  1  0.230700  0.425400  0.818000  1.0
  H  H73  1  0.459200  0.314400  0.048800  1.0
  H  H74  1  0.540800  0.685600  0.951200  1.0
  H  H75  1  0.563300  0.369300  0.148000  1.0
  H  H76  1  0.436700  0.630700  0.852000  1.0
  H  H77  1  0.565600  0.437200  0.223600  1.0
  H  H78  1  0.434400  0.562800  0.776400  1.0
  H  H79  1  0.360600  0.405900  0.099100  1.0
  H  H80  1  0.639400  0.594100  0.900900  1.0
  H  H81  1  0.034700  0.083600  0.706100  1.0
  H  H82  1  0.965300  0.916400  0.293900  1.0
  H  H83  1  0.935500  0.037300  0.603300  1.0
  H  H84  1  0.064500  0.962700  0.396700  1.0
  H  H85  1  0.847400  0.073900  0.574100  1.0
  H  H86  1  0.152600  0.926100  0.425900  1.0
  H  H87  1  0.969500  0.211800  0.741000  1.0
  H  H88  1  0.030500  0.788200  0.259000  1.0
  H  H89  1  0.569700  0.255700  0.448000  1.0
  H  H90  1  0.430300  0.744300  0.552000  1.0
  H  H91  1  0.487200  0.294500  0.416300  1.0
  H  H92  1  0.512800  0.705500  0.583700  1.0
  H  H93  1  0.485500  0.362500  0.490200  1.0
  H  H94  1  0.514500  0.637500  0.509800  1.0
  H  H95  1  0.647000  0.343500  0.629000  1.0
  H  H96  1  0.353000  0.656500  0.371000  1.0
  Rh  Rh97  1  0.608940  0.177910  0.879790  1.0
  Rh  Rh98  1  0.391060  0.822090  0.120210  1.0
  Rh  Rh99  1  0.497170  0.083980  0.844290  1.0
  Rh  Rh100  1  0.502830  0.916020  0.155710  1.0
  Rh  Rh101  1  0.006510  0.214050  0.144380  1.0
  Rh  Rh102  1  0.993490  0.785950  0.855620  1.0
  Rh  Rh103  1  0.007750  0.131150  0.187160  1.0
  Rh  Rh104  1  0.992250  0.868850  0.812840  1.0
  Rh  Rh105  1  0.822180  0.425980  0.231160  1.0
  Rh  Rh106  1  0.177820  0.574020  0.768840  1.0
  Rh  Rh107  1  0.774680  0.405830  0.301030  1.0
  Rh  Rh108  1  0.225320  0.594170  0.698970  1.0
  Rh  Rh109  1  0.182130  0.286200  0.912100  1.0
  Rh  Rh110  1  0.817870  0.713800  0.087900  1.0
  Rh  Rh111  1  0.231040  0.222210  0.884070  1.0
  Rh  Rh112  1  0.768960  0.777790  0.115930  1.0
  Rh  Rh113  1  0.787270  0.254570  0.648680  1.0
  Rh  Rh114  1  0.212730  0.745430  0.351320  1.0
  Rh  Rh115  1  0.724540  0.183940  0.544820  1.0
  Rh  Rh116  1  0.275460  0.816060  0.455180  1.0
  Rh  Rh117  1  0.396270  0.532500  0.260120  1.0
  Rh  Rh118  1  0.603730  0.467500  0.739880  1.0
  Rh  Rh119  1  0.510030  0.544130  0.339640  1.0
  Rh  Rh120  1  0.489970  0.455870  0.660360  1.0
  C  C121  1  0.630300  0.080700  0.923800  1.0
  C  C122  1  0.369700  0.919300  0.076200  1.0
  C  C123  1  0.674000  0.050100  0.959700  1.0
  C  C124  1  0.326000  0.949900  0.040300  1.0
  C  C125  1  0.642700  0.987300  0.949800  1.0
  C  C126  1  0.357300  0.012700  0.050200  1.0
  C  C127  1  0.684900  0.960800  0.984400  1.0
  C  C128  1  0.315100  0.039200  0.015600  1.0
  C  C129  1  0.757800  0.999700  0.028000  1.0
  C  C130  1  0.242200  0.000300  0.972000  1.0
  C  C131  1  0.788800  0.062600  0.036500  1.0
  C  C132  1  0.211200  0.937400  0.963500  1.0
  C  C133  1  0.747000  0.088400  0.000100  1.0
  C  C134  1  0.253000  0.911600  0.999900  1.0
  C  C135  1  0.871600  0.103300  0.086600  1.0
  C  C136  1  0.128400  0.896700  0.913400  1.0
  C  C137  1  0.548400  0.171000  0.960100  1.0
  C  C138  1  0.451600  0.829000  0.039900  1.0
  C  C139  1  0.545800  0.194400  0.019500  1.0
  C  C140  1  0.454200  0.805600  0.980500  1.0
  C  C141  1  0.486800  0.162300  0.027200  1.0
  C  C142  1  0.513200  0.837700  0.972800  1.0
  C  C143  1  0.488800  0.184100  0.080700  1.0
  C  C144  1  0.511200  0.815900  0.919300  1.0
  C  C145  1  0.549400  0.236100  0.128900  1.0
  C  C146  1  0.450600  0.763900  0.871100  1.0
  C  C147  1  0.609200  0.269300  0.121800  1.0
  C  C148  1  0.390800  0.730700  0.878200  1.0
  C  C149  1  0.608200  0.248100  0.067400  1.0
  C  C150  1  0.391800  0.751900  0.932600  1.0
  C  C151  1  0.678100  0.325600  0.175200  1.0
  C  C152  1  0.321900  0.674400  0.824800  1.0
  C  C153  1  0.477600  0.181100  0.799700  1.0
  C  C154  1  0.522400  0.818900  0.200300  1.0
  C  C155  1  0.436100  0.212200  0.759700  1.0
  C  C156  1  0.563900  0.787800  0.240300  1.0
  C  C157  1  0.358200  0.177300  0.724200  1.0
  C  C158  1  0.641800  0.822700  0.275800  1.0
  C  C159  1  0.318000  0.202300  0.684700  1.0
  C  C160  1  0.682000  0.797700  0.315300  1.0
  C  C161  1  0.358200  0.263500  0.684000  1.0
  C  C162  1  0.641800  0.736500  0.316000  1.0
  C  C163  1  0.434200  0.295000  0.720000  1.0
  C  C164  1  0.565800  0.705000  0.280000  1.0
  C  C165  1  0.473700  0.270600  0.757700  1.0
  C  C166  1  0.526300  0.729400  0.242300  1.0
  C  C167  1  0.478500  0.358500  0.715100  1.0
  C  C168  1  0.521500  0.641500  0.284900  1.0
  C  C169  1  0.558400  0.094500  0.764400  1.0
  C  C170  1  0.441600  0.905500  0.235600  1.0
  C  C171  1  0.559800  0.071400  0.703900  1.0
  C  C172  1  0.440200  0.928600  0.296100  1.0
  C  C173  1  0.505400  0.011200  0.659600  1.0
  C  C174  1  0.494600  0.988800  0.340400  1.0
  C  C175  1  0.507200  0.992100  0.604400  1.0
  C  C176  1  0.492800  0.007900  0.395600  1.0
  C  C177  1  0.558600  0.033800  0.591300  1.0
  C  C178  1  0.441400  0.966200  0.408700  1.0
  C  C179  1  0.609400  0.093200  0.635300  1.0
  C  C180  1  0.390600  0.906800  0.364700  1.0
  C  C181  1  0.611000  0.113000  0.692200  1.0
  C  C182  1  0.389000  0.887000  0.307800  1.0
  C  C183  1  0.665400  0.139900  0.621700  1.0
  C  C184  1  0.334600  0.860100  0.378300  1.0
  C  C185  1  0.143900  0.241000  0.243200  1.0
  C  C186  1  0.856100  0.759000  0.756800  1.0
  C  C187  1  0.227500  0.279800  0.285300  1.0
  C  C188  1  0.772500  0.720200  0.714700  1.0
  C  C189  1  0.266000  0.256200  0.328700  1.0
  C  C190  1  0.734000  0.743800  0.671300  1.0
  C  C191  1  0.343500  0.291800  0.368100  1.0
  C  C192  1  0.656500  0.708200  0.631900  1.0
  C  C193  1  0.380100  0.349400  0.359100  1.0
  C  C194  1  0.619900  0.650600  0.640900  1.0
  C  C195  1  0.341200  0.371400  0.319300  1.0
  C  C196  1  0.658800  0.628600  0.680700  1.0
  C  C197  1  0.266300  0.337700  0.281100  1.0
  C  C198  1  0.733700  0.662300  0.718900  1.0
  C  C199  1  0.383900  0.434600  0.312100  1.0
  C  C200  1  0.616100  0.565400  0.687900  1.0
  C  C201  1  0.965200  0.212100  0.237000  1.0
  C  C202  1  0.034800  0.787900  0.763000  1.0
  C  C203  1  0.933300  0.230100  0.277300  1.0
  C  C204  1  0.066700  0.769900  0.722700  1.0
  C  C205  1  0.928300  0.202700  0.322900  1.0
  C  C206  1  0.071700  0.797300  0.677100  1.0
  C  C207  1  0.895000  0.217400  0.354300  1.0
  C  C208  1  0.105000  0.782600  0.645700  1.0
  C  C209  1  0.869800  0.258200  0.341800  1.0
  C  C210  1  0.130200  0.741800  0.658200  1.0
  C  C211  1  0.877700  0.287400  0.299000  1.0
  C  C212  1  0.122300  0.712600  0.701000  1.0
  C  C213  1  0.909600  0.275100  0.267000  1.0
  C  C214  1  0.090400  0.724900  0.733000  1.0
  C  C215  1  0.848000  0.336000  0.288400  1.0
  C  C216  1  0.152000  0.664000  0.711600  1.0
  C  C217  1  0.049400  0.134800  0.095100  1.0
  C  C218  1  0.950600  0.865200  0.904900  1.0
  C  C219  1  0.079300  0.115800  0.053700  1.0
  C  C220  1  0.920700  0.884200  0.946300  1.0
  C  C221  1  0.084000  0.058100  0.047900  1.0
  C  C222  1  0.916000  0.941900  0.952100  1.0
  C  C223  1  0.114400  0.043200  0.014000  1.0
  C  C224  1  0.885600  0.956800  0.986000  1.0
  C  C225  1  0.132900  0.080600  0.982700  1.0
  C  C226  1  0.867100  0.919400  0.017300  1.0
  C  C227  1  0.130700  0.136300  0.986900  1.0
  C  C228  1  0.869300  0.863700  0.013100  1.0
  C  C229  1  0.102100  0.152600  0.023400  1.0
  C  C230  1  0.897900  0.847400  0.976600  1.0
  C  C231  1  0.159100  0.178500  0.951600  1.0
  C  C232  1  0.840900  0.821500  0.048400  1.0
  C  C233  1  0.920100  0.506200  0.356400  1.0
  C  C234  1  0.079900  0.493800  0.643600  1.0
  C  C235  1  0.990300  0.558400  0.410500  1.0
  C  C236  1  0.009700  0.441600  0.589500  1.0
  C  C237  1  0.008700  0.564200  0.470200  1.0
  C  C238  1  0.991300  0.435800  0.529800  1.0
  C  C239  1  0.075400  0.611400  0.518800  1.0
  C  C240  1  0.924600  0.388600  0.481200  1.0
  C  C241  1  0.125400  0.656000  0.506300  1.0
  C  C242  1  0.874600  0.344000  0.493700  1.0
  C  C243  1  0.106200  0.652800  0.445500  1.0
  C  C244  1  0.893800  0.347200  0.554500  1.0
  C  C245  1  0.040500  0.602600  0.397500  1.0
  C  C246  1  0.959500  0.397400  0.602500  1.0
  C  C247  1  0.154900  0.699600  0.429300  1.0
  C  C248  1  0.845100  0.300400  0.570700  1.0
  C  C249  1  0.752100  0.496600  0.245700  1.0
  C  C250  1  0.247900  0.503400  0.754300  1.0
  C  C251  1  0.727100  0.547600  0.236800  1.0
  C  C252  1  0.272900  0.452400  0.763200  1.0
  C  C253  1  0.688300  0.557300  0.264000  1.0
  C  C254  1  0.311700  0.442700  0.736000  1.0
  C  C255  1  0.666300  0.604500  0.259600  1.0
  C  C256  1  0.333700  0.395500  0.740400  1.0
  C  C257  1  0.682100  0.638900  0.221700  1.0
  C  C258  1  0.317900  0.361100  0.778300  1.0
  C  C259  1  0.723700  0.631800  0.195700  1.0
  C  C260  1  0.276300  0.368200  0.804300  1.0
  C  C261  1  0.744100  0.582500  0.202100  1.0
  C  C262  1  0.255900  0.417500  0.797900  1.0
  C  C263  1  0.748700  0.672700  0.158000  1.0
  C  C264  1  0.251300  0.327300  0.842000  1.0
  C  C265  1  0.328100  0.317500  0.003200  1.0
  C  C266  1  0.671900  0.682500  0.996800  1.0
  C  C267  1  0.396600  0.353500  0.064700  1.0
  C  C268  1  0.603400  0.646500  0.935300  1.0
  C  C269  1  0.459700  0.342900  0.079000  1.0
  C  C270  1  0.540300  0.657100  0.921000  1.0
  C  C271  1  0.521500  0.375500  0.138400  1.0
  C  C272  1  0.478500  0.624500  0.861600  1.0
  C  C273  1  0.523400  0.416200  0.183300  1.0
  C  C274  1  0.476600  0.583800  0.816700  1.0
  C  C275  1  0.463000  0.426300  0.168900  1.0
  C  C276  1  0.537000  0.573700  0.831100  1.0
  C  C277  1  0.400200  0.396400  0.108900  1.0
  C  C278  1  0.599800  0.603600  0.891100  1.0
  C  C279  1  0.463500  0.472900  0.216600  1.0
  C  C280  1  0.536500  0.527100  0.783400  1.0
  C  C281  1  0.084900  0.191000  0.793300  1.0
  C  C282  1  0.915100  0.809000  0.206700  1.0
  C  C283  1  0.014200  0.156300  0.730700  1.0
  C  C284  1  0.985800  0.843700  0.269300  1.0
  C  C285  1  0.001900  0.100700  0.691400  1.0
  C  C286  1  0.998100  0.899300  0.308600  1.0
  C  C287  1  0.941800  0.071800  0.631600  1.0
  C  C288  1  0.058200  0.928200  0.368400  1.0
  C  C289  1  0.890400  0.094800  0.613900  1.0
  C  C290  1  0.109600  0.905200  0.386100  1.0
  C  C291  1  0.901000  0.147300  0.653400  1.0
  C  C292  1  0.099000  0.852700  0.346600  1.0
  C  C293  1  0.963100  0.177100  0.713000  1.0
  C  C294  1  0.036900  0.822900  0.287000  1.0
  C  C295  1  0.846500  0.173400  0.631700  1.0
  C  C296  1  0.153500  0.826600  0.368300  1.0
  C  C297  1  0.667300  0.267400  0.562300  1.0
  C  C298  1  0.332700  0.732600  0.437700  1.0
  C  C299  1  0.616100  0.296200  0.542700  1.0
  C  C300  1  0.383900  0.703800  0.457300  1.0
  C  C301  1  0.567900  0.281900  0.478300  1.0
  C  C302  1  0.432100  0.718100  0.521700  1.0
  C  C303  1  0.519600  0.305000  0.459400  1.0
  C  C304  1  0.480400  0.695000  0.540600  1.0
  C  C305  1  0.517400  0.344200  0.503200  1.0
  C  C306  1  0.482600  0.655800  0.496800  1.0
  C  C307  1  0.564400  0.357300  0.569800  1.0
  C  C308  1  0.435600  0.642700  0.430200  1.0
  C  C309  1  0.613800  0.333400  0.586200  1.0
  C  C310  1  0.386200  0.666600  0.413800  1.0
  C  C311  1  0.557400  0.397500  0.618600  1.0
  C  C312  1  0.442600  0.602500  0.381400  1.0
  O  O313  1  0.666200  0.135400  0.926700  1.0
  O  O314  1  0.333800  0.864600  0.073300  1.0
  O  O315  1  0.561100  0.045100  0.892600  1.0
  O  O316  1  0.438900  0.954900  0.107400  1.0
  O  O317  1  0.600900  0.207100  0.955100  1.0
  O  O318  1  0.399100  0.792900  0.044900  1.0
  O  O319  1  0.495300  0.118900  0.922300  1.0
  O  O320  1  0.504700  0.881100  0.077700  1.0
  O  O321  1  0.547700  0.215600  0.832000  1.0
  O  O322  1  0.452300  0.784400  0.168000  1.0
  O  O323  1  0.441400  0.126100  0.798000  1.0
  O  O324  1  0.558600  0.873900  0.202000  1.0
  O  O325  1  0.610000  0.143800  0.801500  1.0
  O  O326  1  0.390000  0.856200  0.198500  1.0
  O  O327  1  0.505200  0.054700  0.768700  1.0
  O  O328  1  0.494800  0.945300  0.231300  1.0
  O  O329  1  0.115100  0.266200  0.208300  1.0
  O  O330  1  0.884900  0.733800  0.791700  1.0
  O  O331  1  0.116100  0.188400  0.249400  1.0
  O  O332  1  0.883900  0.811600  0.750600  1.0
  O  O333  1  0.975000  0.242200  0.203000  1.0
  O  O334  1  0.025000  0.757800  0.797000  1.0
  O  O335  1  0.978200  0.165600  0.244300  1.0
  O  O336  1  0.021800  0.834400  0.755700  1.0
  O  O337  1  0.900200  0.157600  0.081900  1.0
  O  O338  1  0.099800  0.842400  0.918100  1.0
  O  O339  1  0.901000  0.078500  0.122000  1.0
  O  O340  1  0.099000  0.921500  0.878000  1.0
  O  O341  1  0.038100  0.180300  0.086700  1.0
  O  O342  1  0.961900  0.819700  0.913300  1.0
  O  O343  1  0.038800  0.101800  0.128100  1.0
  O  O344  1  0.961200  0.898200  0.871900  1.0
  O  O345  1  0.916700  0.496500  0.305000  1.0
  O  O346  1  0.083300  0.503500  0.695000  1.0
  O  O347  1  0.872900  0.475900  0.371300  1.0
  O  O348  1  0.127100  0.524100  0.628700  1.0
  O  O349  1  0.782200  0.488200  0.215500  1.0
  O  O350  1  0.217800  0.511800  0.784500  1.0
  O  O351  1  0.736300  0.468600  0.282200  1.0
  O  O352  1  0.263700  0.531400  0.717800  1.0
  O  O353  1  0.727000  0.354800  0.162800  1.0
  O  O354  1  0.273000  0.645200  0.837200  1.0
  O  O355  1  0.681200  0.336200  0.227800  1.0
  O  O356  1  0.318800  0.663800  0.772200  1.0
  O  O357  1  0.860500  0.362800  0.250000  1.0
  O  O358  1  0.139500  0.637200  0.750000  1.0
  O  O359  1  0.814900  0.343800  0.316600  1.0
  O  O360  1  0.185100  0.656200  0.683400  1.0
  O  O361  1  0.279600  0.334100  0.993000  1.0
  O  O362  1  0.720400  0.665900  0.007000  1.0
  O  O363  1  0.325800  0.274900  0.966400  1.0
  O  O364  1  0.674200  0.725100  0.033600  1.0
  O  O365  1  0.145100  0.226300  0.953700  1.0
  O  O366  1  0.854900  0.773700  0.046300  1.0
  O  O367  1  0.189800  0.164800  0.927400  1.0
  O  O368  1  0.810200  0.835200  0.072600  1.0
  O  O369  1  0.088200  0.234100  0.829800  1.0
  O  O370  1  0.911800  0.765900  0.170200  1.0
  O  O371  1  0.133800  0.172700  0.804800  1.0
  O  O372  1  0.866200  0.827300  0.195200  1.0
  O  O373  1  0.778300  0.656900  0.132300  1.0
  O  O374  1  0.221700  0.343100  0.867700  1.0
  O  O375  1  0.733900  0.717700  0.159500  1.0
  O  O376  1  0.266100  0.282300  0.840500  1.0
  O  O377  1  0.854800  0.214600  0.673600  1.0
  O  O378  1  0.145200  0.785400  0.326400  1.0
  O  O379  1  0.795500  0.148300  0.574700  1.0
  O  O380  1  0.204500  0.851700  0.425300  1.0
  O  O381  1  0.714400  0.189600  0.665600  1.0
  O  O382  1  0.285600  0.810400  0.334400  1.0
  O  O383  1  0.656900  0.124300  0.568400  1.0
  O  O384  1  0.343100  0.875700  0.431600  1.0
  O  O385  1  0.716200  0.290800  0.617600  1.0
  O  O386  1  0.283800  0.709200  0.382400  1.0
  O  O387  1  0.658700  0.225100  0.521500  1.0
  O  O388  1  0.341300  0.774900  0.478500  1.0
  O  O389  1  0.145200  0.684100  0.374100  1.0
  O  O390  1  0.854800  0.315900  0.625900  1.0
  O  O391  1  0.206000  0.750400  0.474600  1.0
  O  O392  1  0.794000  0.249600  0.525400  1.0
  O  O393  1  0.544800  0.387200  0.750200  1.0
  O  O394  1  0.455200  0.612800  0.249800  1.0
  O  O395  1  0.437100  0.375000  0.673300  1.0
  O  O396  1  0.562900  0.625000  0.326700  1.0
  O  O397  1  0.609400  0.416300  0.671900  1.0
  O  O398  1  0.390600  0.583700  0.328100  1.0
  O  O399  1  0.504100  0.409300  0.596700  1.0
  O  O400  1  0.495900  0.590700  0.403300  1.0
  O  O401  1  0.343600  0.453100  0.274800  1.0
  O  O402  1  0.656400  0.546900  0.725200  1.0
  O  O403  1  0.452800  0.463300  0.348200  1.0
  O  O404  1  0.547200  0.536700  0.651800  1.0
  O  O405  1  0.407100  0.480500  0.197500  1.0
  O  O406  1  0.592900  0.519500  0.802500  1.0
  O  O407  1  0.516100  0.494300  0.270900  1.0
  O  O408  1  0.483900  0.505700  0.729100  1.0
  O  O409  1  0.718800  0.271300  0.915600  1.0
  O  O410  1  0.281200  0.728700  0.084400  1.0
  O  O411  1  0.387400  0.991700  0.808000  1.0
  O  O412  1  0.612600  0.008300  0.192000  1.0
  O  O413  1  0.007000  0.296600  0.103100  1.0
  O  O414  1  0.993000  0.703400  0.896900  1.0
  O  O415  1  0.010200  0.049400  0.230300  1.0
  O  O416  1  0.989800  0.950600  0.769700  1.0
  O  O417  1  0.867600  0.439800  0.161100  1.0
  O  O418  1  0.132400  0.560200  0.838900  1.0
  O  O419  1  0.723400  0.384400  0.367600  1.0
  O  O420  1  0.276600  0.615600  0.632400  1.0
  O  O421  1  0.142000  0.353700  0.952900  1.0
  O  O422  1  0.858000  0.646300  0.047100  1.0
  O  O423  1  0.286100  0.164400  0.859200  1.0
  O  O424  1  0.713900  0.835600  0.140800  1.0
  O  O425  1  0.850900  0.325000  0.750000  1.0
  O  O426  1  0.149100  0.675000  0.250000  1.0
  O  O427  1  0.667600  0.112100  0.447000  1.0
  O  O428  1  0.332400  0.887900  0.553000  1.0
  O  O429  1  0.284300  0.517900  0.179500  1.0
  O  O430  1  0.715700  0.482100  0.820500  1.0
  O  O431  1  0.625000  0.561900  0.418500  1.0
  O  O432  1  0.375000  0.438100  0.581500  1.0
