# generated using pymatgen
data_Ni31H48(C12O17)12
_symmetry_space_group_name_H-M   'P 1'
_cell_length_a   19.42988013
_cell_length_b   19.42988013
_cell_length_c   19.42988013
_cell_angle_alpha   60.00000000
_cell_angle_beta   60.00000000
_cell_angle_gamma   60.00000000
_symmetry_Int_Tables_number   1
_chemical_formula_structural   Ni31H48(C12O17)12
_chemical_formula_sum   'Ni31 H48 C144 O204'
_cell_volume   5186.75060484
_cell_formula_units_Z   1
loop_
 _symmetry_equiv_pos_site_id
 _symmetry_equiv_pos_as_xyz
  1  'x, y, z'
loop_
 _atom_site_type_symbol
 _atom_site_label
 _atom_site_symmetry_multiplicity
 _atom_site_fract_x
 _atom_site_fract_y
 _atom_site_fract_z
 _atom_site_occupancy
  C  C1  1  0.037400  0.714200  0.576600  1.0
  C  C2  1  0.671800  0.576600  0.714200  1.0
  C  C3  1  0.576600  0.671800  0.037400  1.0
  C  C4  1  0.714200  0.037400  0.671800  1.0
  C  C5  1  0.714200  0.576600  0.037400  1.0
  C  C6  1  0.576600  0.714200  0.671800  1.0
  C  C7  1  0.671800  0.037400  0.576600  1.0
  C  C8  1  0.037400  0.671800  0.714200  1.0
  C  C9  1  0.576600  0.037400  0.714200  1.0
  C  C10  1  0.714200  0.671800  0.576600  1.0
  C  C11  1  0.037400  0.576600  0.671800  1.0
  C  C12  1  0.671800  0.714200  0.037400  1.0
  C  C13  1  0.328200  0.285800  0.423400  1.0
  C  C14  1  0.962600  0.423400  0.285800  1.0
  C  C15  1  0.285800  0.328200  0.962600  1.0
  C  C16  1  0.423400  0.962600  0.328200  1.0
  C  C17  1  0.328200  0.423400  0.962600  1.0
  C  C18  1  0.962600  0.285800  0.328200  1.0
  C  C19  1  0.285800  0.962600  0.423400  1.0
  C  C20  1  0.423400  0.328200  0.285800  1.0
  C  C21  1  0.328200  0.962600  0.285800  1.0
  C  C22  1  0.962600  0.328200  0.423400  1.0
  C  C23  1  0.285800  0.423400  0.328200  1.0
  C  C24  1  0.423400  0.285800  0.962600  1.0
  C  C25  1  0.962600  0.285800  0.423400  1.0
  C  C26  1  0.328200  0.423400  0.285800  1.0
  C  C27  1  0.423400  0.328200  0.962600  1.0
  C  C28  1  0.285800  0.962600  0.328200  1.0
  C  C29  1  0.285800  0.423400  0.962600  1.0
  C  C30  1  0.423400  0.285800  0.328200  1.0
  C  C31  1  0.328200  0.962600  0.423400  1.0
  C  C32  1  0.962600  0.328200  0.285800  1.0
  C  C33  1  0.423400  0.962600  0.285800  1.0
  C  C34  1  0.285800  0.328200  0.423400  1.0
  C  C35  1  0.962600  0.423400  0.328200  1.0
  C  C36  1  0.328200  0.285800  0.962600  1.0
  C  C37  1  0.671800  0.714200  0.576600  1.0
  C  C38  1  0.037400  0.576600  0.714200  1.0
  C  C39  1  0.714200  0.671800  0.037400  1.0
  C  C40  1  0.576600  0.037400  0.671800  1.0
  C  C41  1  0.671800  0.576600  0.037400  1.0
  C  C42  1  0.037400  0.714200  0.671800  1.0
  C  C43  1  0.714200  0.037400  0.576600  1.0
  C  C44  1  0.576600  0.671800  0.714200  1.0
  C  C45  1  0.671800  0.037400  0.714200  1.0
  C  C46  1  0.037400  0.671800  0.576600  1.0
  C  C47  1  0.714200  0.576600  0.671800  1.0
  C  C48  1  0.576600  0.714200  0.037400  1.0
  C  C49  1  0.036000  0.632800  0.596200  1.0
  C  C50  1  0.735000  0.596200  0.632800  1.0
  C  C51  1  0.596200  0.735000  0.036000  1.0
  C  C52  1  0.632800  0.036000  0.735000  1.0
  C  C53  1  0.632800  0.596200  0.036000  1.0
  C  C54  1  0.596200  0.632800  0.735000  1.0
  C  C55  1  0.735000  0.036000  0.596200  1.0
  C  C56  1  0.036000  0.735000  0.632800  1.0
  C  C57  1  0.596200  0.036000  0.632800  1.0
  C  C58  1  0.632800  0.735000  0.596200  1.0
  C  C59  1  0.036000  0.596200  0.735000  1.0
  C  C60  1  0.735000  0.632800  0.036000  1.0
  C  C61  1  0.265000  0.367200  0.403800  1.0
  C  C62  1  0.964000  0.403800  0.367200  1.0
  C  C63  1  0.367200  0.265000  0.964000  1.0
  C  C64  1  0.403800  0.964000  0.265000  1.0
  C  C65  1  0.265000  0.403800  0.964000  1.0
  C  C66  1  0.964000  0.367200  0.265000  1.0
  C  C67  1  0.367200  0.964000  0.403800  1.0
  C  C68  1  0.403800  0.265000  0.367200  1.0
  C  C69  1  0.265000  0.964000  0.367200  1.0
  C  C70  1  0.964000  0.265000  0.403800  1.0
  C  C71  1  0.367200  0.403800  0.265000  1.0
  C  C72  1  0.403800  0.367200  0.964000  1.0
  C  C73  1  0.964000  0.367200  0.403800  1.0
  C  C74  1  0.265000  0.403800  0.367200  1.0
  C  C75  1  0.403800  0.265000  0.964000  1.0
  C  C76  1  0.367200  0.964000  0.265000  1.0
  C  C77  1  0.367200  0.403800  0.964000  1.0
  C  C78  1  0.403800  0.367200  0.265000  1.0
  C  C79  1  0.265000  0.964000  0.403800  1.0
  C  C80  1  0.964000  0.265000  0.367200  1.0
  C  C81  1  0.403800  0.964000  0.367200  1.0
  C  C82  1  0.367200  0.265000  0.403800  1.0
  C  C83  1  0.964000  0.403800  0.265000  1.0
  C  C84  1  0.265000  0.367200  0.964000  1.0
  C  C85  1  0.735000  0.632800  0.596200  1.0
  C  C86  1  0.036000  0.596200  0.632800  1.0
  C  C87  1  0.632800  0.735000  0.036000  1.0
  C  C88  1  0.596200  0.036000  0.735000  1.0
  C  C89  1  0.735000  0.596200  0.036000  1.0
  C  C90  1  0.036000  0.632800  0.735000  1.0
  C  C91  1  0.632800  0.036000  0.596200  1.0
  C  C92  1  0.596200  0.735000  0.632800  1.0
  C  C93  1  0.735000  0.036000  0.632800  1.0
  C  C94  1  0.036000  0.735000  0.596200  1.0
  C  C95  1  0.632800  0.596200  0.735000  1.0
  C  C96  1  0.596200  0.632800  0.036000  1.0
  C  C97  1  0.037700  0.612100  0.530900  1.0
  C  C98  1  0.819300  0.530900  0.612100  1.0
  C  C99  1  0.530900  0.819300  0.037700  1.0
  C  C100  1  0.612100  0.037700  0.819300  1.0
  C  C101  1  0.612100  0.530900  0.037700  1.0
  C  C102  1  0.530900  0.612100  0.819300  1.0
  C  C103  1  0.819300  0.037700  0.530900  1.0
  C  C104  1  0.037700  0.819300  0.612100  1.0
  C  C105  1  0.530900  0.037700  0.612100  1.0
  C  C106  1  0.612100  0.819300  0.530900  1.0
  C  C107  1  0.037700  0.530900  0.819300  1.0
  C  C108  1  0.819300  0.612100  0.037700  1.0
  C  C109  1  0.180700  0.387900  0.469100  1.0
  C  C110  1  0.962300  0.469100  0.387900  1.0
  C  C111  1  0.387900  0.180700  0.962300  1.0
  C  C112  1  0.469100  0.962300  0.180700  1.0
  C  C113  1  0.180700  0.469100  0.962300  1.0
  C  C114  1  0.962300  0.387900  0.180700  1.0
  C  C115  1  0.387900  0.962300  0.469100  1.0
  C  C116  1  0.469100  0.180700  0.387900  1.0
  C  C117  1  0.180700  0.962300  0.387900  1.0
  C  C118  1  0.962300  0.180700  0.469100  1.0
  C  C119  1  0.387900  0.469100  0.180700  1.0
  C  C120  1  0.469100  0.387900  0.962300  1.0
  C  C121  1  0.962300  0.387900  0.469100  1.0
  C  C122  1  0.180700  0.469100  0.387900  1.0
  C  C123  1  0.469100  0.180700  0.962300  1.0
  C  C124  1  0.387900  0.962300  0.180700  1.0
  C  C125  1  0.387900  0.469100  0.962300  1.0
  C  C126  1  0.469100  0.387900  0.180700  1.0
  C  C127  1  0.180700  0.962300  0.469100  1.0
  C  C128  1  0.962300  0.180700  0.387900  1.0
  C  C129  1  0.469100  0.962300  0.387900  1.0
  C  C130  1  0.387900  0.180700  0.469100  1.0
  C  C131  1  0.962300  0.469100  0.180700  1.0
  C  C132  1  0.180700  0.387900  0.962300  1.0
  C  C133  1  0.819300  0.612100  0.530900  1.0
  C  C134  1  0.037700  0.530900  0.612100  1.0
  C  C135  1  0.612100  0.819300  0.037700  1.0
  C  C136  1  0.530900  0.037700  0.819300  1.0
  C  C137  1  0.819300  0.530900  0.037700  1.0
  C  C138  1  0.037700  0.612100  0.819300  1.0
  C  C139  1  0.612100  0.037700  0.530900  1.0
  C  C140  1  0.530900  0.819300  0.612100  1.0
  C  C141  1  0.819300  0.037700  0.612100  1.0
  C  C142  1  0.037700  0.819300  0.530900  1.0
  C  C143  1  0.612100  0.530900  0.819300  1.0
  C  C144  1  0.530900  0.612100  0.037700  1.0
  H  H145  1  0.041500  0.685500  0.520700  1.0
  H  H146  1  0.752300  0.520700  0.685500  1.0
  H  H147  1  0.520700  0.752300  0.041500  1.0
  H  H148  1  0.685500  0.041500  0.752300  1.0
  H  H149  1  0.685500  0.520700  0.041500  1.0
  H  H150  1  0.520700  0.685500  0.752300  1.0
  H  H151  1  0.752300  0.041500  0.520700  1.0
  H  H152  1  0.041500  0.752300  0.685500  1.0
  H  H153  1  0.520700  0.041500  0.685500  1.0
  H  H154  1  0.685500  0.752300  0.520700  1.0
  H  H155  1  0.041500  0.520700  0.752300  1.0
  H  H156  1  0.752300  0.685500  0.041500  1.0
  H  H157  1  0.247700  0.314500  0.479300  1.0
  H  H158  1  0.958500  0.479300  0.314500  1.0
  H  H159  1  0.314500  0.247700  0.958500  1.0
  H  H160  1  0.479300  0.958500  0.247700  1.0
  H  H161  1  0.247700  0.479300  0.958500  1.0
  H  H162  1  0.958500  0.314500  0.247700  1.0
  H  H163  1  0.314500  0.958500  0.479300  1.0
  H  H164  1  0.479300  0.247700  0.314500  1.0
  H  H165  1  0.247700  0.958500  0.314500  1.0
  H  H166  1  0.958500  0.247700  0.479300  1.0
  H  H167  1  0.314500  0.479300  0.247700  1.0
  H  H168  1  0.479300  0.314500  0.958500  1.0
  H  H169  1  0.958500  0.314500  0.479300  1.0
  H  H170  1  0.247700  0.479300  0.314500  1.0
  H  H171  1  0.479300  0.247700  0.958500  1.0
  H  H172  1  0.314500  0.958500  0.247700  1.0
  H  H173  1  0.314500  0.479300  0.958500  1.0
  H  H174  1  0.479300  0.314500  0.247700  1.0
  H  H175  1  0.247700  0.958500  0.479300  1.0
  H  H176  1  0.958500  0.247700  0.314500  1.0
  H  H177  1  0.479300  0.958500  0.314500  1.0
  H  H178  1  0.314500  0.247700  0.479300  1.0
  H  H179  1  0.958500  0.479300  0.247700  1.0
  H  H180  1  0.247700  0.314500  0.958500  1.0
  H  H181  1  0.752300  0.685500  0.520700  1.0
  H  H182  1  0.041500  0.520700  0.685500  1.0
  H  H183  1  0.685500  0.752300  0.041500  1.0
  H  H184  1  0.520700  0.041500  0.752300  1.0
  H  H185  1  0.752300  0.520700  0.041500  1.0
  H  H186  1  0.041500  0.685500  0.752300  1.0
  H  H187  1  0.685500  0.041500  0.520700  1.0
  H  H188  1  0.520700  0.752300  0.685500  1.0
  H  H189  1  0.752300  0.041500  0.685500  1.0
  H  H190  1  0.041500  0.752300  0.520700  1.0
  H  H191  1  0.685500  0.520700  0.752300  1.0
  H  H192  1  0.520700  0.685500  0.041500  1.0
  Ni  Ni193  1  0.500000  0.500000  0.500000  1
  Ni  Ni194  1  0.000000  0.500000  0.500000  1.0
  Ni  Ni195  1  0.500000  0.000000  0.000000  1.0
  Ni  Ni196  1  0.500000  0.500000  0.000000  1.0
  Ni  Ni197  1  0.000000  0.000000  0.500000  1.0
  Ni  Ni198  1  0.500000  0.000000  0.500000  1.0
  Ni  Ni199  1  1.000000  0.500000  1.000000  1.0
  Ni  Ni200  1  0.083200  0.660400  0.339600  1.0
  Ni  Ni201  1  0.916800  0.339600  0.660400  1.0
  Ni  Ni202  1  0.339600  0.916800  0.083200  1.0
  Ni  Ni203  1  0.660400  0.083200  0.916800  1.0
  Ni  Ni204  1  0.660400  0.339600  0.083200  1.0
  Ni  Ni205  1  0.339600  0.660400  0.916800  1.0
  Ni  Ni206  1  0.916800  0.083200  0.339600  1.0
  Ni  Ni207  1  0.083200  0.916800  0.660400  1.0
  Ni  Ni208  1  0.339600  0.083200  0.660400  1.0
  Ni  Ni209  1  0.660400  0.916800  0.339600  1.0
  Ni  Ni210  1  0.083200  0.339600  0.916800  1.0
  Ni  Ni211  1  0.916800  0.660400  0.083200  1.0
  Ni  Ni212  1  0.083200  0.339600  0.660400  1.0
  Ni  Ni213  1  0.916800  0.660400  0.339600  1.0
  Ni  Ni214  1  0.339600  0.083200  0.916800  1.0
  Ni  Ni215  1  0.660400  0.916800  0.083200  1.0
  Ni  Ni216  1  0.083200  0.660400  0.916800  1.0
  Ni  Ni217  1  0.916800  0.339600  0.083200  1.0
  Ni  Ni218  1  0.339600  0.916800  0.660400  1.0
  Ni  Ni219  1  0.660400  0.083200  0.339600  1.0
  Ni  Ni220  1  0.083200  0.916800  0.339600  1.0
  Ni  Ni221  1  0.916800  0.083200  0.660400  1.0
  Ni  Ni222  1  0.339600  0.660400  0.083200  1.0
  Ni  Ni223  1  0.660400  0.339600  0.916800  1.0
  O  O224  1  0.823000  0.823000  0.531000  1
  O  O225  1  0.823000  0.531000  0.823000  1
  O  O226  1  0.531000  0.823000  0.823000  1
  O  O227  1  0.823000  0.823000  0.823000  1
  O  O228  1  0.177000  0.177000  0.469000  1
  O  O229  1  0.177000  0.469000  0.177000  1
  O  O230  1  0.177000  0.177000  0.177000  1
  O  O231  1  0.469000  0.177000  0.177000  1
  O  O232  1  0.841000  0.841000  0.477000  1
  O  O233  1  0.841000  0.477000  0.841000  1
  O  O234  1  0.477000  0.841000  0.841000  1
  O  O235  1  0.841000  0.841000  0.841000  1
  O  O236  1  0.159000  0.159000  0.523000  1
  O  O237  1  0.159000  0.523000  0.159000  1
  O  O238  1  0.159000  0.159000  0.159000  1
  O  O239  1  0.523000  0.159000  0.159000  1
  O  O240  1  0.810000  0.810000  0.570000  1
  O  O241  1  0.810000  0.570000  0.810000  1
  O  O242  1  0.570000  0.810000  0.810000  1
  O  O243  1  0.810000  0.810000  0.810000  1
  O  O244  1  0.190000  0.190000  0.430000  1
  O  O245  1  0.190000  0.430000  0.190000  1
  O  O246  1  0.190000  0.190000  0.190000  1
  O  O247  1  0.430000  0.190000  0.190000  1
  O  O248  1  0.000000  0.392680  0.607320  1.0
  O  O249  1  0.000000  0.607320  0.392680  1.0
  O  O250  1  0.607320  0.000000  0.000000  1.0
  O  O251  1  0.392680  0.000000  1.000000  1.0
  O  O252  1  0.392680  0.607320  0.000000  1.0
  O  O253  1  0.607320  0.392680  0.000000  1.0
  O  O254  1  0.000000  0.000000  0.607320  1.0
  O  O255  1  0.000000  0.000000  0.392680  1.0
  O  O256  1  0.607320  0.000000  0.392680  1.0
  O  O257  1  0.392680  0.000000  0.607320  1.0
  O  O258  1  1.000000  0.607320  0.000000  1.0
  O  O259  1  1.000000  0.392680  1.000000  1.0
  O  O260  1  0.174000  0.702000  0.298000  1.0
  O  O261  1  0.826000  0.298000  0.702000  1.0
  O  O262  1  0.298000  0.826000  0.174000  1.0
  O  O263  1  0.702000  0.174000  0.826000  1.0
  O  O264  1  0.702000  0.298000  0.174000  1.0
  O  O265  1  0.298000  0.702000  0.826000  1.0
  O  O266  1  0.826000  0.174000  0.298000  1.0
  O  O267  1  0.174000  0.826000  0.702000  1.0
  O  O268  1  0.298000  0.174000  0.702000  1.0
  O  O269  1  0.702000  0.826000  0.298000  1.0
  O  O270  1  0.174000  0.298000  0.826000  1.0
  O  O271  1  0.826000  0.702000  0.174000  1.0
  O  O272  1  0.174000  0.298000  0.702000  1.0
  O  O273  1  0.826000  0.702000  0.298000  1.0
  O  O274  1  0.298000  0.174000  0.826000  1.0
  O  O275  1  0.702000  0.826000  0.174000  1.0
  O  O276  1  0.174000  0.702000  0.826000  1.0
  O  O277  1  0.826000  0.298000  0.174000  1.0
  O  O278  1  0.298000  0.826000  0.702000  1.0
  O  O279  1  0.702000  0.174000  0.298000  1.0
  O  O280  1  0.174000  0.826000  0.298000  1.0
  O  O281  1  0.826000  0.174000  0.702000  1.0
  O  O282  1  0.298000  0.702000  0.174000  1.0
  O  O283  1  0.702000  0.298000  0.826000  1.0
  O  O284  1  0.219000  0.643000  0.357000  1.0
  O  O285  1  0.781000  0.357000  0.643000  1.0
  O  O286  1  0.357000  0.781000  0.219000  1.0
  O  O287  1  0.643000  0.219000  0.781000  1.0
  O  O288  1  0.643000  0.357000  0.219000  1.0
  O  O289  1  0.357000  0.643000  0.781000  1.0
  O  O290  1  0.781000  0.219000  0.357000  1.0
  O  O291  1  0.219000  0.781000  0.643000  1.0
  O  O292  1  0.357000  0.219000  0.643000  1.0
  O  O293  1  0.643000  0.781000  0.357000  1.0
  O  O294  1  0.219000  0.357000  0.781000  1.0
  O  O295  1  0.781000  0.643000  0.219000  1.0
  O  O296  1  0.219000  0.357000  0.643000  1.0
  O  O297  1  0.781000  0.643000  0.357000  1.0
  O  O298  1  0.357000  0.219000  0.781000  1.0
  O  O299  1  0.643000  0.781000  0.219000  1.0
  O  O300  1  0.219000  0.643000  0.781000  1.0
  O  O301  1  0.781000  0.357000  0.219000  1.0
  O  O302  1  0.357000  0.781000  0.643000  1.0
  O  O303  1  0.643000  0.219000  0.357000  1.0
  O  O304  1  0.219000  0.781000  0.357000  1.0
  O  O305  1  0.781000  0.219000  0.643000  1.0
  O  O306  1  0.357000  0.643000  0.219000  1.0
  O  O307  1  0.643000  0.357000  0.781000  1.0
  O  O308  1  0.021840  0.552300  0.552300  1.0
  O  O309  1  0.873560  0.552300  0.552300  1.0
  O  O310  1  0.552300  0.873560  0.021840  1.0
  O  O311  1  0.552300  0.021840  0.873560  1.0
  O  O312  1  0.552300  0.552300  0.021840  1.0
  O  O313  1  0.552300  0.552300  0.873560  1.0
  O  O314  1  0.873560  0.021840  0.552300  1.0
  O  O315  1  0.021840  0.873560  0.552300  1.0
  O  O316  1  0.552300  0.021840  0.552300  1.0
  O  O317  1  0.552300  0.873560  0.552300  1.0
  O  O318  1  0.021840  0.552300  0.873560  1.0
  O  O319  1  0.873560  0.552300  0.021840  1.0
  O  O320  1  0.126440  0.447700  0.447700  1.0
  O  O321  1  0.978160  0.447700  0.447700  1.0
  O  O322  1  0.447700  0.126440  0.978160  1.0
  O  O323  1  0.447700  0.978160  0.126440  1.0
  O  O324  1  0.126440  0.447700  0.978160  1.0
  O  O325  1  0.978160  0.447700  0.126440  1.0
  O  O326  1  0.447700  0.978160  0.447700  1.0
  O  O327  1  0.447700  0.126440  0.447700  1.0
  O  O328  1  0.126440  0.978160  0.447700  1.0
  O  O329  1  0.978160  0.126440  0.447700  1.0
  O  O330  1  0.447700  0.447700  0.126440  1.0
  O  O331  1  0.447700  0.447700  0.978160  1.0
  O  O332  1  0.018200  0.780400  0.316200  1.0
  O  O333  1  0.885200  0.316200  0.780400  1.0
  O  O334  1  0.316200  0.885200  0.018200  1.0
  O  O335  1  0.780400  0.018200  0.885200  1.0
  O  O336  1  0.780400  0.316200  0.018200  1.0
  O  O337  1  0.316200  0.780400  0.885200  1.0
  O  O338  1  0.885200  0.018200  0.316200  1.0
  O  O339  1  0.018200  0.885200  0.780400  1.0
  O  O340  1  0.316200  0.018200  0.780400  1.0
  O  O341  1  0.780400  0.885200  0.316200  1.0
  O  O342  1  0.018200  0.316200  0.885200  1.0
  O  O343  1  0.885200  0.780400  0.018200  1.0
  O  O344  1  0.114800  0.219600  0.683800  1.0
  O  O345  1  0.981800  0.683800  0.219600  1.0
  O  O346  1  0.219600  0.114800  0.981800  1.0
  O  O347  1  0.683800  0.981800  0.114800  1.0
  O  O348  1  0.114800  0.683800  0.981800  1.0
  O  O349  1  0.981800  0.219600  0.114800  1.0
  O  O350  1  0.219600  0.981800  0.683800  1.0
  O  O351  1  0.683800  0.114800  0.219600  1.0
  O  O352  1  0.114800  0.981800  0.219600  1.0
  O  O353  1  0.981800  0.114800  0.683800  1.0
  O  O354  1  0.219600  0.683800  0.114800  1.0
  O  O355  1  0.683800  0.219600  0.981800  1.0
  O  O356  1  0.981800  0.219600  0.683800  1.0
  O  O357  1  0.114800  0.683800  0.219600  1.0
  O  O358  1  0.683800  0.114800  0.981800  1.0
  O  O359  1  0.219600  0.981800  0.114800  1.0
  O  O360  1  0.219600  0.683800  0.981800  1.0
  O  O361  1  0.683800  0.219600  0.114800  1.0
  O  O362  1  0.114800  0.981800  0.683800  1.0
  O  O363  1  0.981800  0.114800  0.219600  1.0
  O  O364  1  0.683800  0.981800  0.219600  1.0
  O  O365  1  0.219600  0.114800  0.683800  1.0
  O  O366  1  0.981800  0.683800  0.114800  1.0
  O  O367  1  0.114800  0.219600  0.981800  1.0
  O  O368  1  0.885200  0.780400  0.316200  1.0
  O  O369  1  0.018200  0.316200  0.780400  1.0
  O  O370  1  0.780400  0.885200  0.018200  1.0
  O  O371  1  0.316200  0.018200  0.885200  1.0
  O  O372  1  0.885200  0.316200  0.018200  1.0
  O  O373  1  0.018200  0.780400  0.885200  1.0
  O  O374  1  0.780400  0.018200  0.316200  1.0
  O  O375  1  0.316200  0.885200  0.780400  1.0
  O  O376  1  0.885200  0.018200  0.780400  1.0
  O  O377  1  0.018200  0.885200  0.316200  1.0
  O  O378  1  0.780400  0.316200  0.885200  1.0
  O  O379  1  0.316200  0.780400  0.018200  1.0
  O  O380  1  0.045400  0.663800  0.458400  1.0
  O  O381  1  0.832400  0.458400  0.663800  1.0
  O  O382  1  0.458400  0.832400  0.045400  1.0
  O  O383  1  0.663800  0.045400  0.832400  1.0
  O  O384  1  0.663800  0.458400  0.045400  1.0
  O  O385  1  0.458400  0.663800  0.832400  1.0
  O  O386  1  0.832400  0.045400  0.458400  1.0
  O  O387  1  0.045400  0.832400  0.663800  1.0
  O  O388  1  0.458400  0.045400  0.663800  1.0
  O  O389  1  0.663800  0.832400  0.458400  1.0
  O  O390  1  0.045400  0.458400  0.832400  1.0
  O  O391  1  0.832400  0.663800  0.045400  1.0
  O  O392  1  0.167600  0.336200  0.541600  1.0
  O  O393  1  0.954600  0.541600  0.336200  1.0
  O  O394  1  0.336200  0.167600  0.954600  1.0
  O  O395  1  0.541600  0.954600  0.167600  1.0
  O  O396  1  0.167600  0.541600  0.954600  1.0
  O  O397  1  0.954600  0.336200  0.167600  1.0
  O  O398  1  0.336200  0.954600  0.541600  1.0
  O  O399  1  0.541600  0.167600  0.336200  1.0
  O  O400  1  0.167600  0.954600  0.336200  1.0
  O  O401  1  0.954600  0.167600  0.541600  1.0
  O  O402  1  0.336200  0.541600  0.167600  1.0
  O  O403  1  0.541600  0.336200  0.954600  1.0
  O  O404  1  0.954600  0.336200  0.541600  1.0
  O  O405  1  0.167600  0.541600  0.336200  1.0
  O  O406  1  0.541600  0.167600  0.954600  1.0
  O  O407  1  0.336200  0.954600  0.167600  1.0
  O  O408  1  0.336200  0.541600  0.954600  1.0
  O  O409  1  0.541600  0.336200  0.167600  1.0
  O  O410  1  0.167600  0.954600  0.541600  1.0
  O  O411  1  0.954600  0.167600  0.336200  1.0
  O  O412  1  0.541600  0.954600  0.336200  1.0
  O  O413  1  0.336200  0.167600  0.541600  1.0
  O  O414  1  0.954600  0.541600  0.167600  1.0
  O  O415  1  0.167600  0.336200  0.954600  1.0
  O  O416  1  0.832400  0.663800  0.458400  1.0
  O  O417  1  0.045400  0.458400  0.663800  1.0
  O  O418  1  0.663800  0.832400  0.045400  1.0
  O  O419  1  0.458400  0.045400  0.832400  1.0
  O  O420  1  0.832400  0.458400  0.045400  1.0
  O  O421  1  0.045400  0.663800  0.832400  1.0
  O  O422  1  0.663800  0.045400  0.458400  1.0
  O  O423  1  0.458400  0.832400  0.663800  1.0
  O  O424  1  0.832400  0.045400  0.663800  1.0
  O  O425  1  0.045400  0.832400  0.458400  1.0
  O  O426  1  0.663800  0.458400  0.832400  1.0
  O  O427  1  0.458400  0.663800  0.045400  1.0
