# generated using pymatgen
data_Zn39H48C139.11111111O106.88888889
_symmetry_space_group_name_H-M   'P 1'
_cell_length_a   14.54300000
_cell_length_b   19.65300000
_cell_length_c   24.15280800
_cell_angle_alpha   114.00692810
_cell_angle_beta   90.00000000
_cell_angle_gamma   90.00000000
_symmetry_Int_Tables_number   1
_chemical_formula_structural   Zn39H48C139.11111111O106.88888889
_chemical_formula_sum   'Zn39 H48 C139.11111111 O106.88888889'
_cell_volume   6306.04790027
_cell_formula_units_Z   1
loop_
 _symmetry_equiv_pos_site_id
 _symmetry_equiv_pos_as_xyz
  1  'x, y, z'
loop_
 _atom_site_type_symbol
 _atom_site_label
 _atom_site_symmetry_multiplicity
 _atom_site_fract_x
 _atom_site_fract_y
 _atom_site_fract_z
 _atom_site_occupancy
  C  C1  1  0.128300  0.187300  0.374600  1.0
  C  C2  1  0.128300  0.812700  0.625400  1.0
  C  C3  1  0.871700  0.187300  0.374600  1.0
  C  C4  1  0.871700  0.812700  0.625400  1.0
  C  C5  1  0.205400  0.166100  0.332200  1.0
  C  C6  1  0.205400  0.833900  0.667800  1.0
  C  C7  1  0.794600  0.166100  0.332200  1.0
  C  C8  1  0.794600  0.833900  0.667800  1.0
  C  C9  1  0.115400  0.405800  0.000000  1.0
  C  C10  1  0.115400  0.594200  0.000000  1.0
  C  C11  1  0.884600  0.594200  0.000000  1.0
  C  C12  1  0.884600  0.405800  0.000000  1.0
  C  C13  1  0.201300  0.357800  0.000000  1.0
  C  C14  1  0.201300  0.642200  0.000000  1.0
  C  C15  1  0.798700  0.642200  0.000000  1.0
  C  C16  1  0.798700  0.357800  0.000000  1.0
  C  C17  1  0.349000  0.267100  0.000000  1.0
  C  C18  1  0.349000  0.732900  1.000000  1.0
  C  C19  1  0.651000  0.732900  1.000000  1.0
  C  C20  1  0.651000  0.267100  0.000000  1.0
  C  C21  1  0.344200  0.126300  0.252600  1.0
  C  C22  1  0.344200  0.873700  0.747400  1.0
  C  C23  1  0.655800  0.126300  0.252600  1.0
  C  C24  1  0.655800  0.873700  0.747400  1.0
  C  C25  1  0.126100  0.731900  0.463800  1.0
  C  C26  1  0.126100  0.268100  0.536200  1.0
  C  C27  1  0.873900  0.731900  0.463800  1.0
  C  C28  1  0.873900  0.268100  0.536200  1.0
  C  C29  1  0.245100  0.214400  0.309800  1.0
  C  C30  1  0.245100  0.785600  0.690200  1.0
  C  C31  1  0.754900  0.095400  0.309800  1.0
  C  C32  1  0.754900  0.904600  0.690200  1.0
  C  C33  1  0.754900  0.785600  0.690200  1.0
  C  C34  1  0.754900  0.214400  0.309800  1.0
  C  C35  1  0.245100  0.904600  0.690200  1.0
  C  C36  1  0.245100  0.095400  0.309800  1.0
  C  C37  1  0.311100  0.196200  0.269600  1.0
  C  C38  1  0.311100  0.803800  0.730400  1.0
  C  C39  1  0.688900  0.073400  0.269600  1.0
  C  C40  1  0.688900  0.926600  0.730400  1.0
  C  C41  1  0.688900  0.803800  0.730400  1.0
  C  C42  1  0.688900  0.196200  0.269600  1.0
  C  C43  1  0.311100  0.926600  0.730400  1.0
  C  C44  1  0.311100  0.073400  0.269600  1.0
  C  C45  1  0.349200  0.241100  0.241800  1.0
  C  C46  1  0.349200  0.758900  0.758200  1.0
  C  C47  1  0.650800  0.000700  0.241800  1.0
  C  C48  1  0.650800  0.999300  0.758200  1.0
  C  C49  1  0.650800  0.758900  0.758200  1.0
  C  C50  1  0.650800  0.241100  0.241800  1.0
  C  C51  1  0.349200  0.999300  0.758200  1.0
  C  C52  1  0.349200  0.000700  0.241800  1.0
  C  C53  1  0.199700  0.701400  0.416800  1.0
  C  C54  1  0.199700  0.298600  0.583200  1.0
  C  C55  1  0.800300  0.715400  0.416800  1.0
  C  C56  1  0.800300  0.284600  0.583200  1.0
  C  C57  1  0.800300  0.298600  0.583200  1.0
  C  C58  1  0.800300  0.701400  0.416800  1.0
  C  C59  1  0.199700  0.284600  0.583200  1.0
  C  C60  1  0.199700  0.715400  0.416800  1.0
  C  C61  1  0.227800  0.627400  0.395200  1.0
  C  C62  1  0.227800  0.372600  0.604800  1.0
  C  C63  1  0.772200  0.767800  0.395200  1.0
  C  C64  1  0.772200  0.232200  0.604800  1.0
  C  C65  1  0.772200  0.372600  0.604800  1.0
  C  C66  1  0.772200  0.627400  0.395200  1.0
  C  C67  1  0.227800  0.232200  0.604800  1.0
  C  C68  1  0.227800  0.767800  0.395200  1.0
  C  C69  1  0.290600  0.592000  0.349200  1.0
  C  C70  1  0.290600  0.408000  0.650800  1.0
  C  C71  1  0.709400  0.757200  0.349200  1.0
  C  C72  1  0.709400  0.242800  0.650800  1.0
  C  C73  1  0.709400  0.408000  0.650800  1.0
  C  C74  1  0.709400  0.592000  0.349200  1.0
  C  C75  1  0.290600  0.242800  0.650800  1.0
  C  C76  1  0.290600  0.757200  0.349200  1.0
  C  C77  1  0.338300  0.624700  0.316800  1.0
  C  C78  1  0.338300  0.375300  0.683200  1.0
  C  C79  1  0.661700  0.692100  0.316800  1.0
  C  C80  1  0.661700  0.307900  0.683200  1.0
  C  C81  1  0.661700  0.375300  0.683200  1.0
  C  C82  1  0.661700  0.624700  0.316800  1.0
  C  C83  1  0.338300  0.307900  0.683200  1.0
  C  C84  1  0.338300  0.692100  0.316800  1.0
  C  C85  1  0.307700  0.638700  0.337200  1.0
  C  C86  1  0.307700  0.361300  0.662800  1.0
  C  C87  1  0.692300  0.698500  0.337200  1.0
  C  C88  1  0.692300  0.301500  0.662800  1.0
  C  C89  1  0.692300  0.361300  0.662800  1.0
  C  C90  1  0.692300  0.638700  0.337200  1.0
  C  C91  1  0.307700  0.301500  0.662800  1.0
  C  C92  1  0.307700  0.698500  0.337200  1.0
  C  C93  1  0.246700  0.651800  0.383000  1.0
  C  C94  1  0.246700  0.348200  0.617000  1.0
  C  C95  1  0.753300  0.731200  0.383000  1.0
  C  C96  1  0.753300  0.268800  0.617000  1.0
  C  C97  1  0.753300  0.348200  0.617000  1.0
  C  C98  1  0.753300  0.651800  0.383000  1.0
  C  C99  1  0.246700  0.268800  0.617000  1.0
  C  C100  1  0.246700  0.731200  0.383000  1.0
  C  C101  1  0.349100  0.563000  0.307000  1.0
  C  C102  1  0.349100  0.437000  0.693000  1.0
  C  C103  1  0.650900  0.744000  0.307000  1.0
  C  C104  1  0.650900  0.256000  0.693000  1.0
  C  C105  1  0.650900  0.437000  0.693000  1.0
  C  C106  1  0.650900  0.563000  0.307000  1.0
  C  C107  1  0.349100  0.256000  0.693000  1.0
  C  C108  1  0.349100  0.744000  0.307000  1.0
  C  C109  1  0.235300  0.362400  0.054600  1.0
  C  C110  1  0.235300  0.637600  0.945400  1.0
  C  C111  1  0.764700  0.692200  0.054600  1.0
  C  C112  1  0.764700  0.307800  0.945400  1.0
  C  C113  1  0.764700  0.637600  0.945400  1.0
  C  C114  1  0.764700  0.362400  0.054600  1.0
  C  C115  1  0.235300  0.307800  0.945400  1.0
  C  C116  1  0.235300  0.692200  0.054600  1.0
  C  C117  1  0.302200  0.315300  0.054600  1.0
  C  C118  1  0.302200  0.684700  0.945400  1.0
  C  C119  1  0.697800  0.739300  0.054600  1.0
  C  C120  1  0.697800  0.260700  0.945400  1.0
  C  C121  1  0.697800  0.684700  0.945400  1.0
  C  C122  1  0.697800  0.315300  0.054600  1.0
  C  C123  1  0.302200  0.260700  0.945400  1.0
  C  C124  1  0.302200  0.739300  0.054600  1.0
  C  C125  1  0.342200  0.316700  0.113800  1.0
  C  C126  1  0.342200  0.683300  0.886200  1.0
  C  C127  1  0.657800  0.797100  0.113800  1.0
  C  C128  1  0.657800  0.202900  0.886200  1.0
  C  C129  1  0.657800  0.683300  0.886200  1.0
  C  C130  1  0.657800  0.316700  0.113800  1.0
  C  C131  1  0.342200  0.202900  0.886200  1.0
  C  C132  1  0.342200  0.797100  0.113800  1.0
  C  C133  1  0.326100  0.513500  0.327200  0.8888888888888888
  O  O134  1  0.326100  0.513500  0.327200  0.1111111111111111
  C  C135  1  0.326100  0.486500  0.672800  0.8888888888888888
  O  O136  1  0.326100  0.486500  0.672800  0.1111111111111111
  C  C137  1  0.673900  0.813700  0.327200  0.8888888888888888
  O  O138  1  0.673900  0.813700  0.327200  0.1111111111111111
  C  C139  1  0.673900  0.186300  0.672800  0.8888888888888888
  O  O140  1  0.673900  0.186300  0.672800  0.1111111111111111
  C  C141  1  0.673900  0.486500  0.672800  0.8888888888888888
  O  O142  1  0.673900  0.486500  0.672800  0.1111111111111111
  C  C143  1  0.673900  0.513500  0.327200  0.8888888888888888
  O  O144  1  0.673900  0.513500  0.327200  0.1111111111111111
  C  C145  1  0.326100  0.186300  0.672800  0.8888888888888888
  O  O146  1  0.326100  0.186300  0.672800  0.1111111111111111
  C  C147  1  0.326100  0.813700  0.327200  0.8888888888888888
  O  O148  1  0.326100  0.813700  0.327200  0.1111111111111111
  H  H149  1  0.405000  0.242200  0.000000  1.0
  H  H150  1  0.405000  0.757800  0.000000  1.0
  H  H151  1  0.595000  0.757800  0.000000  1.0
  H  H152  1  0.595000  0.242200  0.000000  1.0
  H  H153  1  0.395600  0.113100  0.226200  1.0
  H  H154  1  0.395600  0.886900  0.773800  1.0
  H  H155  1  0.604400  0.113100  0.226200  1.0
  H  H156  1  0.604400  0.886900  0.773800  1.0
  H  H157  1  0.222600  0.264000  0.324800  1.0
  H  H158  1  0.222600  0.736000  0.675200  1.0
  H  H159  1  0.777400  0.060800  0.324800  1.0
  H  H160  1  0.777400  0.939200  0.675200  1.0
  H  H161  1  0.777400  0.736000  0.675200  1.0
  H  H162  1  0.777400  0.264000  0.324800  1.0
  H  H163  1  0.222600  0.939200  0.675200  1.0
  H  H164  1  0.222600  0.060800  0.324800  1.0
  H  H165  1  0.201200  0.597900  0.413800  1.0
  H  H166  1  0.201200  0.402100  0.586200  1.0
  H  H167  1  0.798800  0.815900  0.413800  1.0
  H  H168  1  0.798800  0.184100  0.586200  1.0
  H  H169  1  0.798800  0.402100  0.586200  1.0
  H  H170  1  0.798800  0.597900  0.413800  1.0
  H  H171  1  0.201200  0.184100  0.586200  1.0
  H  H172  1  0.201200  0.815900  0.413800  1.0
  H  H173  1  0.383300  0.601500  0.286400  1.0
  H  H174  1  0.383300  0.398500  0.713600  1.0
  H  H175  1  0.616700  0.684900  0.286400  1.0
  H  H176  1  0.616700  0.315100  0.713600  1.0
  H  H177  1  0.616700  0.398500  0.713600  1.0
  H  H178  1  0.616700  0.601500  0.286400  1.0
  H  H179  1  0.383300  0.315100  0.713600  1.0
  H  H180  1  0.383300  0.684900  0.286400  1.0
  H  H181  1  0.235100  0.610800  0.393200  1.0
  H  H182  1  0.235100  0.389200  0.606800  1.0
  H  H183  1  0.764900  0.782400  0.393200  1.0
  H  H184  1  0.764900  0.217600  0.606800  1.0
  H  H185  1  0.764900  0.389200  0.606800  1.0
  H  H186  1  0.764900  0.610800  0.393200  1.0
  H  H187  1  0.235100  0.217600  0.606800  1.0
  H  H188  1  0.235100  0.782400  0.393200  1.0
  H  H189  1  0.211700  0.398200  0.091600  1.0
  H  H190  1  0.211700  0.601800  0.908400  1.0
  H  H191  1  0.788300  0.693400  0.091600  1.0
  H  H192  1  0.788300  0.306600  0.908400  1.0
  H  H193  1  0.788300  0.601800  0.908400  1.0
  H  H194  1  0.788300  0.398200  0.091600  1.0
  H  H195  1  0.211700  0.306600  0.908400  1.0
  H  H196  1  0.211700  0.693400  0.091600  1.0
  O  O197  1  0.500000  0.113500  0.087400  1
  O  O198  1  0.500000  0.886500  0.912600  1
  O  O199  1  0.500000  0.973900  0.087400  1
  O  O200  1  0.500000  0.026100  0.912600  1
  O  O201  1  0.500000  0.433300  0.338800  1
  O  O202  1  0.500000  0.566700  0.661200  1
  O  O203  1  0.500000  0.905500  0.338800  1
  O  O204  1  0.500000  0.094500  0.661200  1
  O  O205  1  1.000000  0.579100  0.158200  1.0
  O  O206  1  0.000000  0.420900  0.841800  1.0
  O  O207  1  0.000000  0.404200  0.456600  1.0
  O  O208  1  0.000000  0.595800  0.543400  1.0
  O  O209  1  0.000000  0.052400  0.456600  1.0
  O  O210  1  0.000000  0.947600  0.543400  1.0
  O  O211  1  0.095800  0.455760  0.050920  1.0
  O  O212  1  0.095800  0.544240  0.949080  1.0
  O  O213  1  0.904200  0.595160  0.050920  1.0
  O  O214  1  0.904200  0.404840  0.949080  1.0
  O  O215  1  0.904200  0.544240  0.949080  1.0
  O  O216  1  0.904200  0.455760  0.050920  1.0
  O  O217  1  0.095800  0.404840  0.949080  1.0
  O  O218  1  0.095800  0.595160  0.050920  1.0
  O  O219  1  0.311800  0.365200  0.163400  1.0
  O  O220  1  0.311800  0.634800  0.836600  1.0
  O  O221  1  0.688200  0.798200  0.163400  1.0
  O  O222  1  0.688200  0.201800  0.836600  1.0
  O  O223  1  0.688200  0.634800  0.836600  1.0
  O  O224  1  0.688200  0.365200  0.163400  1.0
  O  O225  1  0.311800  0.201800  0.836600  1.0
  O  O226  1  0.311800  0.798200  0.163400  1.0
  O  O227  1  0.500000  0.384400  0.229000  1.0
  O  O228  1  0.500000  0.615600  0.771000  1.0
  O  O229  1  0.500000  0.844600  0.229000  1.0
  O  O230  1  0.500000  0.155400  0.771000  1.0
  O  O231  1  0.336800  0.486200  0.366400  1.0
  O  O232  1  0.336800  0.513800  0.633600  1.0
  O  O233  1  0.663200  0.880200  0.366400  1.0
  O  O234  1  0.663200  0.119800  0.633600  1.0
  O  O235  1  0.663200  0.513800  0.633600  1.0
  O  O236  1  0.663200  0.486200  0.366400  1.0
  O  O237  1  0.336800  0.119800  0.633600  1.0
  O  O238  1  0.336800  0.880200  0.366400  1.0
  O  O239  1  0.411300  0.540300  0.268000  1.0
  O  O240  1  0.411300  0.459700  0.732000  1.0
  O  O241  1  0.588700  0.727700  0.268000  1.0
  O  O242  1  0.588700  0.272300  0.732000  1.0
  O  O243  1  0.588700  0.459700  0.732000  1.0
  O  O244  1  0.588700  0.540300  0.268000  1.0
  O  O245  1  0.411300  0.272300  0.732000  1.0
  O  O246  1  0.411300  0.727700  0.268000  1.0
  O  O247  1  0.467300  0.474900  0.215200  1.0
  O  O248  1  0.467300  0.525100  0.784800  1.0
  O  O249  1  0.532700  0.740300  0.215200  1.0
  O  O250  1  0.532700  0.259700  0.784800  1.0
  O  O251  1  0.532700  0.525100  0.784800  1.0
  O  O252  1  0.532700  0.474900  0.215200  1.0
  O  O253  1  0.467300  0.259700  0.784800  1.0
  O  O254  1  0.467300  0.740300  0.215200  1.0
  O  O255  1  0.096300  0.251330  0.393260  1.0
  O  O256  1  0.096300  0.748670  0.606740  1.0
  O  O257  1  0.903700  0.141930  0.393260  1.0
  O  O258  1  0.903700  0.858070  0.606740  1.0
  O  O259  1  0.903700  0.748670  0.606740  1.0
  O  O260  1  0.903700  0.251330  0.393260  1.0
  O  O261  1  0.096300  0.858070  0.606740  1.0
  O  O262  1  0.096300  0.141930  0.393260  1.0
  O  O263  1  0.407900  0.227100  0.205000  1.0
  O  O264  1  0.407900  0.772900  0.795000  1.0
  O  O265  1  0.592100  0.977900  0.205000  1.0
  O  O266  1  0.592100  0.022100  0.795000  1.0
  O  O267  1  0.592100  0.772900  0.795000  1.0
  O  O268  1  0.592100  0.227100  0.205000  1.0
  O  O269  1  0.407900  0.022100  0.795000  1.0
  O  O270  1  0.407900  0.977900  0.205000  1.0
  O  O271  1  0.399500  0.268800  0.109600  1.0
  O  O272  1  0.399500  0.731200  0.890400  1.0
  O  O273  1  0.600500  0.840800  0.109600  1.0
  O  O274  1  0.600500  0.159200  0.890400  1.0
  O  O275  1  0.600500  0.731200  0.890400  1.0
  O  O276  1  0.600500  0.268800  0.109600  1.0
  O  O277  1  0.399500  0.159200  0.890400  1.0
  O  O278  1  0.399500  0.840800  0.109600  1.0
  O  O279  1  0.354800  0.486300  0.273000  1.0
  O  O280  1  0.354800  0.513700  0.727000  1.0
  O  O281  1  0.645200  0.786700  0.273000  1.0
  O  O282  1  0.645200  0.213300  0.727000  1.0
  O  O283  1  0.645200  0.513700  0.727000  1.0
  O  O284  1  0.645200  0.486300  0.273000  1.0
  O  O285  1  0.354800  0.213300  0.727000  1.0
  O  O286  1  0.354800  0.786700  0.273000  1.0
  O  O287  1  0.330100  0.318300  0.274200  1.0
  O  O288  1  0.330100  0.681700  0.725800  1.0
  O  O289  1  0.669900  0.955900  0.274200  1.0
  O  O290  1  0.669900  0.044100  0.725800  1.0
  O  O291  1  0.669900  0.681700  0.725800  1.0
  O  O292  1  0.669900  0.318300  0.274200  1.0
  O  O293  1  0.330100  0.044100  0.725800  1.0
  O  O294  1  0.330100  0.955900  0.274200  1.0
  O  O295  1  0.102700  0.686720  0.480840  1.0
  O  O296  1  0.102700  0.313280  0.519160  1.0
  O  O297  1  0.897300  0.794120  0.480840  1.0
  O  O298  1  0.897300  0.205880  0.519160  1.0
  O  O299  1  0.897300  0.313280  0.519160  1.0
  O  O300  1  0.897300  0.686720  0.480840  1.0
  O  O301  1  0.102700  0.205880  0.519160  1.0
  O  O302  1  0.102700  0.794120  0.480840  1.0
  Zn  Zn303  1  0.000000  0.000000  0.000000  1
  Zn  Zn304  1  0.419800  0.418700  0.308400  1
  Zn  Zn305  1  0.419800  0.581300  0.691600  1
  Zn  Zn306  1  0.580200  0.889700  0.308400  1
  Zn  Zn307  1  0.580200  0.110300  0.691600  1
  Zn  Zn308  1  0.580200  0.581300  0.691600  1
  Zn  Zn309  1  0.580200  0.418700  0.308400  1
  Zn  Zn310  1  0.419800  0.110300  0.691600  1
  Zn  Zn311  1  0.419800  0.889700  0.308400  1
  Zn  Zn312  1  0.636500  0.408970  0.253140  1
  Zn  Zn313  1  0.636500  0.591030  0.746860  1
  Zn  Zn314  1  0.363500  0.844170  0.253140  1
  Zn  Zn315  1  0.363500  0.155830  0.746860  1
  Zn  Zn316  1  0.363500  0.591030  0.746860  1
  Zn  Zn317  1  0.363500  0.408970  0.253140  1
  Zn  Zn318  1  0.636500  0.155830  0.746860  1
  Zn  Zn319  1  0.636500  0.844170  0.253140  1
  Zn  Zn320  1  0.500000  0.292800  0.181020  1
  Zn  Zn321  1  0.500000  0.707200  0.818980  1
  Zn  Zn322  1  0.500000  0.888220  0.181020  1
  Zn  Zn323  1  0.500000  0.111780  0.818980  1
  Zn  Zn324  1  0.000000  0.533730  0.067460  1.0
  Zn  Zn325  1  1.000000  0.466270  0.932540  1.0
  Zn  Zn326  1  0.500000  0.244420  0.153040  1.0
  Zn  Zn327  1  0.500000  0.755580  0.846960  1.0
  Zn  Zn328  1  0.500000  0.908620  0.153040  1.0
  Zn  Zn329  1  0.500000  0.091380  0.846960  1.0
  Zn  Zn330  1  1.000000  0.302910  0.456720  1.0
  Zn  Zn331  1  1.000000  0.697090  0.543280  1.0
  Zn  Zn332  1  1.000000  0.153810  0.456720  1.0
  Zn  Zn333  1  0.000000  0.846190  0.543280  1.0
  Zn  Zn334  1  0.373100  0.376630  0.236260  1.0
  Zn  Zn335  1  0.373100  0.623370  0.763740  1.0
  Zn  Zn336  1  0.626900  0.859630  0.236260  1.0
  Zn  Zn337  1  0.626900  0.140370  0.763740  1.0
  Zn  Zn338  1  0.626900  0.623370  0.763740  1.0
  Zn  Zn339  1  0.626900  0.376630  0.236260  1.0
  Zn  Zn340  1  0.373100  0.140370  0.763740  1.0
  Zn  Zn341  1  0.373100  0.859630  0.236260  1.0
