# generated using pymatgen
data_Fe2Co2B2P2H142C154N36O2F15
_symmetry_space_group_name_H-M   'P 1'
_cell_length_a   18.70600000
_cell_length_b   20.34200000
_cell_length_c   23.68200000
_cell_angle_alpha   74.44400000
_cell_angle_beta   89.81800000
_cell_angle_gamma   66.23400000
_symmetry_Int_Tables_number   1
_chemical_formula_structural   Fe2Co2B2P2H142C154N36O2F15
_chemical_formula_sum   'Fe4 Co4 B4 P4 H284 C308 N72 O4 F30'
_cell_volume   7888.69485729
_cell_formula_units_Z   2
loop_
 _symmetry_equiv_pos_site_id
 _symmetry_equiv_pos_as_xyz
  1  'x, y, z'
loop_
 _atom_site_type_symbol
 _atom_site_label
 _atom_site_symmetry_multiplicity
 _atom_site_fract_x
 _atom_site_fract_y
 _atom_site_fract_z
 _atom_site_occupancy
  Fe  Fe1  1  0.022710  0.308920  0.550140  1.0
  Fe  Fe2  1  0.977290  0.691080  0.449860  1.0
  Fe  Fe3  1  0.351920  0.690390  0.955940  1.0
  Fe  Fe4  1  0.648080  0.309610  0.044060  1.0
  Co  Co5  1  0.145650  0.449190  0.398860  1.0
  Co  Co6  1  0.854350  0.550810  0.601140  1.0
  Co  Co7  1  0.601040  0.547350  0.104300  1.0
  Co  Co8  1  0.398960  0.452650  0.895700  1.0
  B  B9  1  0.097700  0.166600  0.654600  1.0
  B  B10  1  0.902300  0.833400  0.345400  1.0
  B  B11  1  0.300700  0.835400  0.855400  1.0
  B  B12  1  0.699300  0.164600  0.144600  1.0
  P  P13  1  0.623500  0.200900  0.417150  1
  P  P14  1  0.376500  0.799100  0.582850  1
  P  P15  1  0.099700  0.217120  0.914770  1
  P  P16  1  0.900300  0.782880  0.085230  1
  H  H17  1  0.742800  0.440500  0.882000  1
  H  H18  1  0.257200  0.559500  0.118000  1
  H  H19  1  0.982300  0.411800  0.926100  1
  H  H20  1  0.017700  0.588200  0.073900  1
  H  H21  1  0.872800  0.386900  0.918900  1
  H  H22  1  0.127200  0.613100  0.081100  1
  H  H23  1  0.760700  0.589800  0.801600  1
  H  H24  1  0.239300  0.410200  0.198400  1
  H  H25  1  0.872900  0.611500  0.809800  1
  H  H26  1  0.127100  0.388500  0.190200  1
  H  H27  1  0.605800  0.394600  0.435200  1
  H  H28  1  0.394200  0.605400  0.564800  1
  H  H29  1  0.733600  0.371900  0.424900  1
  H  H30  1  0.266400  0.628100  0.575100  1
  H  H31  1  0.666200  0.565900  0.298700  1
  H  H32  1  0.333800  0.434100  0.701300  1
  H  H33  1  0.537500  0.589700  0.308100  1
  H  H34  1  0.462500  0.410300  0.691900  1
  H  H35  1  0.814500  0.431300  0.387600  1
  H  H36  1  0.185500  0.568700  0.612400  1
  H  H37  1  0.371600  0.689400  0.379600  1
  H  H38  1  0.628400  0.310600  0.620400  1
  H  H39  1  0.245400  0.868900  0.242000  1
  H  H40  1  0.754600  0.131100  0.758000  1
  H  H41  1  0.310200  0.757000  0.444300  1
  H  H42  1  0.689800  0.243000  0.555700  1
  H  H43  1  0.185400  0.935500  0.307500  1
  H  H44  1  0.814600  0.064500  0.692500  1
  H  H45  1  0.228800  0.884100  0.407500  1
  H  H46  1  0.771200  0.115900  0.592500  1
  H  H47  1  0.042700  0.300300  0.126700  1
  H  H48  1  0.957300  0.699700  0.873300  1
  H  H49  1  0.083500  0.116400  0.262100  1
  H  H50  1  0.916500  0.883600  0.737900  1
  H  H51  1  0.060700  0.110200  0.095400  1
  H  H52  1  0.939300  0.889800  0.904600  1
  H  H53  1  0.080100  0.051200  0.195800  1
  H  H54  1  0.919900  0.948800  0.804200  1
  H  H55  1  0.042300  0.234600  0.061000  1
  H  H56  1  0.957700  0.765400  0.939000  1
  H  H57  1  0.457000  0.935500  0.069900  1
  H  H58  1  0.543000  0.064500  0.930100  1
  H  H59  1  0.253700  0.121800  0.037500  1
  H  H60  1  0.746300  0.878200  0.962500  1
  H  H61  1  0.412400  0.880600  0.153200  1
  H  H62  1  0.587600  0.119400  0.846800  1
  H  H63  1  0.302000  0.955000  0.188000  1
  H  H64  1  0.698000  0.045000  0.812000  1
  H  H65  1  0.218500  0.072500  0.127600  1
  H  H66  1  0.781500  0.927500  0.872400  1
  H  H67  1  0.531800  0.750200  0.980800  1
  H  H68  1  0.468200  0.249800  0.019200  1
  H  H69  1  0.633500  0.709600  0.926100  1
  H  H70  1  0.366500  0.290400  0.073900  1
  H  H71  1  0.569900  0.921900  0.823900  1
  H  H72  1  0.430100  0.078100  0.176100  1
  H  H73  1  0.447700  0.875800  0.957000  1
  H  H74  1  0.552300  0.124200  0.043000  1
  H  H75  1  0.464100  0.961500  0.877000  1
  H  H76  1  0.535900  0.038500  0.123000  1
  H  H77  1  0.115300  0.005300  0.487300  1
  H  H78  1  0.884700  0.994700  0.512700  1
  H  H79  1  0.053500  0.813500  0.471300  1
  H  H80  1  0.946500  0.186500  0.528700  1
  H  H81  1  0.125000  0.799200  0.556000  1
  H  H82  1  0.875000  0.200800  0.444000  1
  H  H83  1  0.005000  0.924900  0.397600  1
  H  H84  1  0.995000  0.075100  0.602400  1
  H  H85  1  0.162200  0.893000  0.562400  1
  H  H86  1  0.837800  0.107000  0.437600  1
  H  H87  1  0.356100  0.005500  0.254300  1
  H  H88  1  0.643900  0.994500  0.745700  1
  H  H89  1  0.411000  0.879100  0.424200  1
  H  H90  1  0.589000  0.120900  0.575800  1
  H  H91  1  0.318900  0.978800  0.451300  1
  H  H92  1  0.681100  0.021200  0.548700  1
  H  H93  1  0.257800  0.101000  0.280800  1
  H  H94  1  0.742200  0.899000  0.719200  1
  H  H95  1  0.246100  0.092500  0.379900  1
  H  H96  1  0.753900  0.907500  0.620100  1
  H  H97  1  0.256000  0.248700  0.540000  1
  H  H98  1  0.744000  0.751300  0.460000  1
  H  H99  1  0.329000  0.198800  0.632500  1
  H  H100  1  0.671000  0.801200  0.367500  1
  H  H101  1  0.435700  0.998800  0.601100  1
  H  H102  1  0.564300  0.001200  0.398900  1
  H  H103  1  0.301700  0.183400  0.470800  1
  H  H104  1  0.698300  0.816600  0.529200  1
  H  H105  1  0.386100  0.056800  0.502400  1
  H  H106  1  0.613900  0.943200  0.497600  1
  H  H107  1  0.096500  0.033400  0.002200  1
  H  H108  1  0.903500  0.966600  0.997800  1
  H  H109  1  0.137000  0.815000  0.054000  1
  H  H110  1  0.863000  0.185000  0.946000  1
  H  H111  1  0.064400  0.041200  0.906200  1
  H  H112  1  0.935600  0.958800  0.093800  1
  H  H113  1  0.074900  0.933600  0.883500  1
  H  H114  1  0.925100  0.066400  0.116500  1
  H  H115  1  0.108900  0.822200  0.957300  1
  H  H116  1  0.891100  0.177800  0.042700  1
  H  H117  1  0.121700  0.120800  0.687800  1.0
  H  H118  1  0.878300  0.879200  0.312200  1.0
  H  H119  1  0.270400  0.519300  0.356600  1.0
  H  H120  1  0.729600  0.480700  0.643400  1.0
  H  H121  1  0.276100  0.613100  0.282100  1.0
  H  H122  1  0.723900  0.386900  0.717900  1.0
  H  H123  1  0.064000  0.654800  0.210000  1.0
  H  H124  1  0.936000  0.345200  0.790000  1.0
  H  H125  1  0.970200  0.619000  0.217000  1.0
  H  H126  1  0.029800  0.381000  0.783000  1.0
  H  H127  1  0.899400  0.462700  0.297200  1.0
  H  H128  1  0.100600  0.537300  0.702800  1.0
  H  H129  1  0.008300  0.409800  0.365500  1.0
  H  H130  1  0.991700  0.590200  0.634500  1.0
  H  H131  1  0.202300  0.733100  0.204400  1.0
  H  H132  1  0.797700  0.266900  0.795600  1.0
  H  H133  1  0.119900  0.748800  0.174800  1.0
  H  H134  1  0.880100  0.251200  0.825200  1.0
  H  H135  1  0.197000  0.692600  0.157800  1.0
  H  H136  1  0.803000  0.307400  0.842200  1.0
  H  H137  1  0.822200  0.637900  0.202500  1.0
  H  H138  1  0.177800  0.362100  0.797500  1.0
  H  H139  1  0.812100  0.562400  0.218000  1.0
  H  H140  1  0.187900  0.437600  0.782000  1.0
  H  H141  1  0.860800  0.580200  0.166800  1.0
  H  H142  1  0.139200  0.419800  0.833200  1.0
  H  H143  1  0.217100  0.486600  0.500400  1.0
  H  H144  1  0.782900  0.513400  0.499600  1.0
  H  H145  1  0.338200  0.453700  0.547700  1.0
  H  H146  1  0.661800  0.546300  0.452300  1.0
  H  H147  1  0.433500  0.304800  0.459100  1.0
  H  H148  1  0.566500  0.695200  0.540900  1.0
  H  H149  1  0.410200  0.252600  0.397900  1.0
  H  H150  1  0.589800  0.747400  0.602100  1.0
  H  H151  1  0.249600  0.249500  0.291000  1.0
  H  H152  1  0.750400  0.750500  0.709000  1.0
  H  H153  1  0.157300  0.347000  0.316400  1.0
  H  H154  1  0.842700  0.653000  0.683600  1.0
  H  H155  1  0.487700  0.400700  0.536000  1.0
  H  H156  1  0.512300  0.599300  0.464000  1.0
  H  H157  1  0.520400  0.325200  0.519300  1.0
  H  H158  1  0.479600  0.674800  0.480700  1.0
  H  H159  1  0.485600  0.328300  0.579300  1.0
  H  H160  1  0.514400  0.671700  0.420700  1.0
  H  H161  1  0.398700  0.180100  0.285600  1.0
  H  H162  1  0.601300  0.819900  0.714400  1.0
  H  H163  1  0.397100  0.127800  0.347300  1.0
  H  H164  1  0.602900  0.872200  0.652700  1.0
  H  H165  1  0.454400  0.167600  0.340500  1.0
  H  H166  1  0.545600  0.832400  0.659500  1.0
  H  H167  1  0.773500  0.344700  0.591500  1.0
  H  H168  1  0.226500  0.655300  0.408500  1.0
  H  H169  1  0.820700  0.332100  0.537700  1.0
  H  H170  1  0.179300  0.667900  0.462300  1.0
  H  H171  1  0.826000  0.388000  0.570100  1.0
  H  H172  1  0.174000  0.612000  0.429900  1.0
  H  H173  1  0.838400  0.229900  0.681000  1.0
  H  H174  1  0.161600  0.770100  0.319000  1.0
  H  H175  1  0.945300  0.111300  0.763800  1.0
  H  H176  1  0.054700  0.888700  0.236200  1.0
  H  H177  1  0.022500  0.123000  0.769500  1.0
  H  H178  1  0.977500  0.877000  0.230500  1.0
  H  H179  1  0.018000  0.069800  0.733800  1.0
  H  H180  1  0.982000  0.930200  0.266200  1.0
  H  H181  1  0.138200  0.238800  0.425000  1.0
  H  H182  1  0.861800  0.761200  0.575000  1.0
  H  H183  1  0.048300  0.260100  0.429300  1.0
  H  H184  1  0.951700  0.739900  0.570700  1.0
  H  H185  1  0.100500  0.186600  0.413300  1.0
  H  H186  1  0.899500  0.813400  0.586700  1.0
  H  H187  1  0.191500  0.066200  0.504200  1.0
  H  H188  1  0.808500  0.933800  0.495800  1.0
  H  H189  1  0.233900  0.973300  0.614300  1.0
  H  H190  1  0.766100  0.026700  0.385700  1.0
  H  H191  1  0.170200  0.001000  0.655900  1.0
  H  H192  1  0.829800  0.999000  0.344100  1.0
  H  H193  1  0.245200  0.017400  0.656000  1.0
  H  H194  1  0.754800  0.982600  0.344000  1.0
  H  H195  1  0.150000  0.428300  0.617200  1.0
  H  H196  1  0.850000  0.571700  0.382800  1.0
  H  H197  1  0.068800  0.441400  0.587500  1.0
  H  H198  1  0.931200  0.558600  0.412500  1.0
  H  H199  1  0.146100  0.405200  0.559700  1.0
  H  H200  1  0.853900  0.594800  0.440300  1.0
  H  H201  1  0.208100  0.306500  0.707400  1.0
  H  H202  1  0.791900  0.693500  0.292600  1.0
  H  H203  1  0.245700  0.117700  0.750600  1.0
  H  H204  1  0.754300  0.882300  0.249400  1.0
  H  H205  1  0.165200  0.145400  0.776500  1.0
  H  H206  1  0.834800  0.854600  0.223500  1.0
  H  H207  1  0.228700  0.173400  0.788800  1.0
  H  H208  1  0.771300  0.826600  0.211200  1.0
  H  H209  1  0.284100  0.882200  0.823100  1.0
  H  H210  1  0.715900  0.117800  0.176900  1.0
  H  H211  1  0.785000  0.475500  0.147300  1.0
  H  H212  1  0.215000  0.524500  0.852700  1.0
  H  H213  1  0.876200  0.378100  0.219100  1.0
  H  H214  1  0.123800  0.621900  0.780900  1.0
  H  H215  1  0.700500  0.334800  0.290100  1.0
  H  H216  1  0.299500  0.665200  0.709900  1.0
  H  H217  1  0.573300  0.368000  0.283200  1.0
  H  H218  1  0.426700  0.632000  0.716800  1.0
  H  H219  1  0.365700  0.529700  0.204900  1.0
  H  H220  1  0.634300  0.470300  0.795100  1.0
  H  H221  1  0.429800  0.583400  0.138600  1.0
  H  H222  1  0.570200  0.416600  0.861400  1.0
  H  H223  1  0.890900  0.239200  0.293900  1.0
  H  H224  1  0.109100  0.760800  0.706100  1.0
  H  H225  1  0.829100  0.255400  0.338900  1.0
  H  H226  1  0.170900  0.744600  0.661100  1.0
  H  H227  1  0.888400  0.293100  0.331100  1.0
  H  H228  1  0.111600  0.706900  0.668900  1.0
  H  H229  1  0.452000  0.348500  0.302000  1.0
  H  H230  1  0.548000  0.651500  0.698000  1.0
  H  H231  1  0.369600  0.413300  0.273600  1.0
  H  H232  1  0.630400  0.586700  0.726400  1.0
  H  H233  1  0.415000  0.417200  0.327400  1.0
  H  H234  1  0.585000  0.582800  0.672600  1.0
  H  H235  1  0.707200  0.517700  0.001400  1.0
  H  H236  1  0.292800  0.482300  0.998600  1.0
  H  H237  1  0.802500  0.548700  0.958700  1.0
  H  H238  1  0.197500  0.451300  0.041300  1.0
  H  H239  1  0.767700  0.689500  0.055100  1.0
  H  H240  1  0.232300  0.310500  0.944900  1.0
  H  H241  1  0.690000  0.745800  0.113800  1.0
  H  H242  1  0.310000  0.254200  0.886200  1.0
  H  H243  1  0.530700  0.736800  0.222000  1.0
  H  H244  1  0.469300  0.263200  0.778000  1.0
  H  H245  1  0.520700  0.645600  0.189200  1.0
  H  H246  1  0.479300  0.354400  0.810800  1.0
  H  H247  1  0.910700  0.606500  0.992200  1.0
  H  H248  1  0.089300  0.393500  0.007800  1.0
  H  H249  1  0.853800  0.691800  0.978200  1.0
  H  H250  1  0.146200  0.308200  0.021800  1.0
  H  H251  1  0.855800  0.648500  0.932100  1.0
  H  H252  1  0.144200  0.351500  0.067900  1.0
  H  H253  1  0.669400  0.797000  0.210600  1.0
  H  H254  1  0.330600  0.203000  0.789400  1.0
  H  H255  1  0.579600  0.828200  0.218300  1.0
  H  H256  1  0.420400  0.171800  0.781700  1.0
  H  H257  1  0.607200  0.857000  0.157700  1.0
  H  H258  1  0.392800  0.143000  0.842300  1.0
  H  H259  1  0.155700  0.669800  0.963300  1.0
  H  H260  1  0.844300  0.330200  0.036700  1.0
  H  H261  1  0.230900  0.612800  0.945100  1.0
  H  H262  1  0.769100  0.387200  0.054900  1.0
  H  H263  1  0.148500  0.641300  0.909200  1.0
  H  H264  1  0.851500  0.358700  0.090800  1.0
  H  H265  1  0.099500  0.771600  0.824400  1.0
  H  H266  1  0.900500  0.228400  0.175600  1.0
  H  H267  1  0.185500  0.876000  0.734800  1.0
  H  H268  1  0.814500  0.124000  0.265200  1.0
  H  H269  1  0.152800  0.929000  0.775100  1.0
  H  H270  1  0.847200  0.071000  0.224900  1.0
  H  H271  1  0.098300  0.899900  0.749000  1.0
  H  H272  1  0.901700  0.100100  0.251000  1.0
  H  H273  1  0.395100  0.731100  0.077600  1.0
  H  H274  1  0.604900  0.268900  0.922400  1.0
  H  H275  1  0.305600  0.759200  0.086000  1.0
  H  H276  1  0.694400  0.240800  0.914000  1.0
  H  H277  1  0.352700  0.804100  0.096900  1.0
  H  H278  1  0.647300  0.195900  0.903100  1.0
  H  H279  1  0.297400  0.929400  0.009400  1.0
  H  H280  1  0.702600  0.070600  0.990600  1.0
  H  H281  1  0.259100  0.027200  0.900000  1.0
  H  H282  1  0.740900  0.972800  0.100000  1.0
  H  H283  1  0.217000  0.000600  0.859500  1.0
  H  H284  1  0.783000  0.999400  0.140500  1.0
  H  H285  1  0.305300  0.986600  0.854900  1.0
  H  H286  1  0.694700  0.013400  0.145100  1.0
  H  H287  1  0.583800  0.575600  0.886200  1.0
  H  H288  1  0.416200  0.424400  0.113800  1.0
  H  H289  1  0.514500  0.560600  0.915400  1.0
  H  H290  1  0.485500  0.439400  0.084600  1.0
  H  H291  1  0.559800  0.595200  0.945100  1.0
  H  H292  1  0.440200  0.404800  0.054900  1.0
  H  H293  1  0.538100  0.701400  0.799900  1.0
  H  H294  1  0.461900  0.298600  0.200100  1.0
  H  H295  1  0.420600  0.888500  0.765300  1.0
  H  H296  1  0.579400  0.111500  0.234700  1.0
  H  H297  1  0.354100  0.871600  0.740800  1.0
  H  H298  1  0.645900  0.128400  0.259200  1.0
  H  H299  1  0.439000  0.838600  0.722400  1.0
  H  H300  1  0.561000  0.161400  0.277600  1.0
  C  C301  1  0.003700  0.530400  0.874300  1
  C  C302  1  0.996300  0.469600  0.125700  1
  C  C303  1  0.938100  0.514600  0.869100  1
  C  C304  1  0.061900  0.485400  0.130900  1
  C  C305  1  0.937600  0.447800  0.901000  1
  C  C306  1  0.062400  0.552200  0.099000  1
  C  C307  1  0.872200  0.432500  0.896900  1
  C  C308  1  0.127800  0.567500  0.103100  1
  C  C309  1  0.807700  0.485300  0.860100  1
  C  C310  1  0.192300  0.514700  0.139900  1
  C  C311  1  0.805400  0.553700  0.826700  1
  C  C312  1  0.194600  0.446300  0.173300  1
  C  C313  1  0.872700  0.566400  0.832100  1
  C  C314  1  0.127300  0.433600  0.167900  1
  C  C315  1  0.479000  0.510900  0.379000  1
  C  C316  1  0.521000  0.489100  0.621000  1
  C  C317  1  0.560300  0.494100  0.373100  1
  C  C318  1  0.439700  0.505900  0.626900  1
  C  C319  1  0.618400  0.429300  0.407700  1
  C  C320  1  0.381600  0.570700  0.592300  1
  C  C321  1  0.693600  0.416200  0.401900  1
  C  C322  1  0.306400  0.583800  0.598100  1
  C  C323  1  0.711500  0.467900  0.362200  1
  C  C324  1  0.288500  0.532100  0.637800  1
  C  C325  1  0.653200  0.531900  0.326600  1
  C  C326  1  0.346800  0.468100  0.673400  1
  C  C327  1  0.577500  0.545900  0.331900  1
  C  C328  1  0.422500  0.454100  0.668100  1
  C  C329  1  0.317100  0.773100  0.304500  1
  C  C330  1  0.682900  0.226900  0.695500  1
  C  C331  1  0.354500  0.730000  0.265400  1
  C  C332  1  0.645500  0.270000  0.734600  1
  C  C333  1  0.335400  0.739200  0.365000  1
  C  C334  1  0.664600  0.260800  0.635000  1
  C  C335  1  0.259800  0.846900  0.282500  1
  C  C336  1  0.740200  0.153100  0.717500  1
  C  C337  1  0.299500  0.780000  0.403800  1
  C  C338  1  0.700500  0.220000  0.596200  1
  C  C339  1  0.224600  0.887000  0.321700  1
  C  C340  1  0.775400  0.113000  0.678300  1
  C  C341  1  0.247900  0.855100  0.381800  1
  C  C342  1  0.752100  0.144900  0.618200  1
  C  C343  1  0.065500  0.213800  0.200800  1
  C  C344  1  0.934500  0.786200  0.799200  1
  C  C345  1  0.051400  0.250100  0.140500  1
  C  C346  1  0.948600  0.749900  0.859500  1
  C  C347  1  0.067300  0.254700  0.241000  1
  C  C348  1  0.932700  0.745300  0.759000  1
  C  C349  1  0.075500  0.139900  0.221700  1
  C  C350  1  0.924500  0.860100  0.778300  1
  C  C351  1  0.061400  0.136300  0.122100  1
  C  C352  1  0.938600  0.863700  0.877900  1
  C  C353  1  0.073400  0.100900  0.182000  1
  C  C354  1  0.926600  0.899100  0.818000  1
  C  C355  1  0.050400  0.211000  0.101400  1
  C  C356  1  0.949600  0.789000  0.898600  1
  C  C357  1  0.358500  0.034200  0.044800  1
  C  C358  1  0.641500  0.965800  0.955200  1
  C  C359  1  0.408100  0.961900  0.080600  1
  C  C360  1  0.591900  0.038100  0.919400  1
  C  C361  1  0.287100  0.074800  0.061900  1
  C  C362  1  0.712900  0.925200  0.938100  1
  C  C363  1  0.383300  0.930600  0.131800  1
  C  C364  1  0.616700  0.069400  0.868200  1
  C  C365  1  0.382300  0.063700  0.990300  1
  C  C366  1  0.617700  0.936300  0.009700  1
  C  C367  1  0.315000  0.973800  0.151100  1
  C  C368  1  0.685000  0.026200  0.848900  1
  C  C369  1  0.265800  0.044900  0.115400  1
  C  C370  1  0.734200  0.955100  0.884600  1
  C  C371  1  0.539700  0.784600  0.949500  1
  C  C372  1  0.460300  0.215400  0.050500  1
  C  C373  1  0.616300  0.812200  0.873400  1
  C  C374  1  0.383700  0.187800  0.126600  1
  C  C375  1  0.601400  0.760600  0.917900  1
  C  C376  1  0.398600  0.239400  0.082100  1
  C  C377  1  0.684500  0.788500  0.844100  1
  C  C378  1  0.315500  0.211500  0.155900  1
  C  C379  1  0.562900  0.887900  0.856000  1
  C  C380  1  0.437100  0.112100  0.144000  1
  C  C381  1  0.489100  0.859600  0.935000  1
  C  C382  1  0.510900  0.140400  0.065000  1
  C  C383  1  0.499600  0.911300  0.887500  1
  C  C384  1  0.500400  0.088700  0.112500  1
  C  C385  1  0.059600  0.974200  0.433600  1
  C  C386  1  0.940400  0.025800  0.566400  1
  C  C387  1  0.103700  0.966100  0.484100  1
  C  C388  1  0.896300  0.033900  0.515900  1
  C  C389  1  0.065100  0.852700  0.474800  1
  C  C390  1  0.934900  0.147300  0.525200  1
  C  C391  1  0.109300  0.843300  0.525000  1
  C  C392  1  0.890700  0.156700  0.475000  1
  C  C393  1  0.037800  0.918100  0.430100  1
  C  C394  1  0.962200  0.081900  0.569900  1
  C  C395  1  0.130400  0.899700  0.529400  1
  C  C396  1  0.869600  0.100300  0.470600  1
  C  C397  1  0.032400  0.042700  0.386000  1
  C  C398  1  0.967600  0.957300  0.614000  1
  C  C399  1  0.393300  0.932000  0.336400  1
  C  C400  1  0.606700  0.068000  0.663600  1
  C  C401  1  0.347800  0.999600  0.293700  1
  C  C402  1  0.652200  0.000400  0.706300  1
  C  C403  1  0.381700  0.924200  0.395600  1
  C  C404  1  0.618300  0.075800  0.604400  1
  C  C405  1  0.447700  0.869800  0.318900  1
  C  C406  1  0.552300  0.130200  0.681100  1
  C  C407  1  0.326300  0.984000  0.411800  1
  C  C408  1  0.673700  0.016000  0.588200  1
  C  C409  1  0.290500  0.057700  0.309800  1
  C  C410  1  0.709500  0.942300  0.690200  1
  C  C411  1  0.281500  0.051800  0.368900  1
  C  C412  1  0.718500  0.948200  0.631100  1
  C  C413  1  0.296300  0.200600  0.551200  1
  C  C414  1  0.703700  0.799400  0.448800  1
  C  C415  1  0.376700  0.090900  0.628800  1
  C  C416  1  0.623300  0.909100  0.371200  1
  C  C417  1  0.333100  0.168800  0.608000  1
  C  C418  1  0.666900  0.831200  0.392000  1
  C  C419  1  0.400600  0.049200  0.588500  1
  C  C420  1  0.599400  0.950800  0.411500  1
  C  C421  1  0.320100  0.159900  0.510700  1
  C  C422  1  0.679900  0.840100  0.489300  1
  C  C423  1  0.371400  0.084100  0.529600  1
  C  C424  1  0.628600  0.915900  0.470400  1
  C  C425  1  0.408900  0.056700  0.688900  1
  C  C426  1  0.591100  0.943300  0.311100  1
  C  C427  1  0.117200  0.924900  0.037700  1
  C  C428  1  0.882800  0.075100  0.962300  1
  C  C429  1  0.097600  0.991300  0.993100  1
  C  C430  1  0.902400  0.008700  0.006900  1
  C  C431  1  0.122600  0.860200  0.024300  1
  C  C432  1  0.877400  0.139800  0.975700  1
  C  C433  1  0.133300  0.921200  0.097700  1
  C  C434  1  0.866700  0.078800  0.902300  1
  C  C435  1  0.079900  0.995800  0.935700  1
  C  C436  1  0.920100  0.004200  0.064300  1
  C  C437  1  0.085300  0.931600  0.922400  1
  C  C438  1  0.914700  0.068400  0.077600  1
  C  C439  1  0.106100  0.864600  0.966700  1
  C  C440  1  0.893900  0.135400  0.033300  1
  C  C441  1  0.888100  0.280600  0.615200  1.0
  C  C442  1  0.111900  0.719400  0.384800  1.0
  C  C443  1  0.076000  0.353400  0.494000  1.0
  C  C444  1  0.924000  0.646600  0.506000  1.0
  C  C445  1  0.958300  0.405500  0.559800  1.0
  C  C446  1  0.041700  0.594500  0.440200  1.0
  C  C447  1  0.948300  0.333800  0.483400  1.0
  C  C448  1  0.051700  0.666200  0.516600  1.0
  C  C449  1  0.228500  0.546500  0.326700  1.0
  C  C450  1  0.771500  0.453500  0.673300  1.0
  C  C451  1  0.231500  0.603400  0.282600  1.0
  C  C452  1  0.768500  0.396600  0.717400  1.0
  C  C453  1  0.169300  0.647500  0.238100  1.0
  C  C454  1  0.830700  0.352500  0.761900  1.0
  C  C455  1  0.106400  0.628000  0.239500  1.0
  C  C456  1  0.893600  0.372000  0.760500  1.0
  C  C457  1  0.106500  0.568100  0.285100  1.0
  C  C458  1  0.893500  0.431900  0.714900  1.0
  C  C459  1  0.042200  0.541900  0.287700  1.0
  C  C460  1  0.957800  0.458100  0.712300  1.0
  C  C461  1  0.977100  0.575700  0.246800  1.0
  C  C462  1  0.022900  0.424300  0.753200  1.0
  C  C463  1  0.922100  0.547400  0.248900  1.0
  C  C464  1  0.077900  0.452600  0.751100  1.0
  C  C465  1  0.935000  0.484400  0.294100  1.0
  C  C466  1  0.065000  0.515600  0.705900  1.0
  C  C467  1  0.000600  0.452900  0.335300  1.0
  C  C468  1  0.999400  0.547100  0.664700  1.0
  C  C469  1  0.172400  0.711300  0.189300  1.0
  C  C470  1  0.827600  0.288700  0.810700  1.0
  C  C471  1  0.847300  0.585500  0.204900  1.0
  C  C472  1  0.152700  0.414500  0.795100  1.0
  C  C473  1  0.261100  0.449800  0.491700  1.0
  C  C474  1  0.738900  0.550200  0.508300  1.0
  C  C475  1  0.333700  0.430100  0.520100  1.0
  C  C476  1  0.666300  0.569900  0.479900  1.0
  C  C477  1  0.399200  0.376500  0.508400  1.0
  C  C478  1  0.600800  0.623500  0.491600  1.0
  C  C479  1  0.389900  0.342000  0.467900  1.0
  C  C480  1  0.610100  0.658000  0.532100  1.0
  C  C481  1  0.317200  0.362400  0.440700  1.0
  C  C482  1  0.682800  0.637600  0.559300  1.0
  C  C483  1  0.300900  0.327500  0.397000  1.0
  C  C484  1  0.699100  0.672500  0.603000  1.0
  C  C485  1  0.358500  0.270400  0.381400  1.0
  C  C486  1  0.641500  0.729600  0.618600  1.0
  C  C487  1  0.340900  0.238800  0.341500  1.0
  C  C488  1  0.659100  0.761200  0.658500  1.0
  C  C489  1  0.264400  0.268900  0.317900  1.0
  C  C490  1  0.735600  0.731100  0.682100  1.0
  C  C491  1  0.209100  0.327400  0.333500  1.0
  C  C492  1  0.790900  0.672600  0.666500  1.0
  C  C493  1  0.480800  0.355700  0.538600  1.0
  C  C494  1  0.519200  0.644300  0.461400  1.0
  C  C495  1  0.403400  0.172600  0.327500  1.0
  C  C496  1  0.596600  0.827400  0.672500  1.0
  C  C497  1  0.821400  0.341500  0.575200  1.0
  C  C498  1  0.178600  0.658500  0.424800  1.0
  C  C499  1  0.884100  0.230000  0.665500  1.0
  C  C500  1  0.115900  0.770000  0.334500  1.0
  C  C501  1  0.958600  0.180600  0.688600  1.0
  C  C502  1  0.041400  0.819400  0.311400  1.0
  C  C503  1  0.988800  0.115200  0.744000  1.0
  C  C504  1  0.011200  0.884800  0.256000  1.0
  C  C505  1  0.099600  0.219300  0.436200  1.0
  C  C506  1  0.900400  0.780700  0.563800  1.0
  C  C507  1  0.118000  0.175800  0.501000  1.0
  C  C508  1  0.882000  0.824200  0.499000  1.0
  C  C509  1  0.165000  0.100200  0.524800  1.0
  C  C510  1  0.835000  0.899800  0.475200  1.0
  C  C511  1  0.165200  0.085000  0.584500  1.0
  C  C512  1  0.834800  0.915000  0.415500  1.0
  C  C513  1  0.207400  0.012700  0.631900  1.0
  C  C514  1  0.792600  0.987300  0.368100  1.0
  C  C515  1  0.123900  0.408600  0.596000  1.0
  C  C516  1  0.876100  0.591400  0.404000  1.0
  C  C517  1  0.134400  0.332200  0.632700  1.0
  C  C518  1  0.865600  0.667800  0.367300  1.0
  C  C519  1  0.178300  0.291700  0.686600  1.0
  C  C520  1  0.821700  0.708300  0.313400  1.0
  C  C521  1  0.170300  0.226700  0.703900  1.0
  C  C522  1  0.829700  0.773300  0.296100  1.0
  C  C523  1  0.205900  0.159400  0.760300  1.0
  C  C524  1  0.794100  0.840600  0.239700  1.0
  C  C525  1  0.444900  0.645600  0.011700  1.0
  C  C526  1  0.555100  0.354400  0.988300  1.0
  C  C527  1  0.373000  0.594700  0.944100  1.0
  C  C528  1  0.627000  0.405300  0.055900  1.0
  C  C529  1  0.300200  0.661700  0.022700  1.0
  C  C530  1  0.699800  0.338300  0.977300  1.0
  C  C531  1  0.767700  0.446500  0.176500  1.0
  C  C532  1  0.232300  0.553500  0.823500  1.0
  C  C533  1  0.823200  0.387700  0.219300  1.0
  C  C534  1  0.176800  0.612300  0.780700  1.0
  C  C535  1  0.798800  0.343100  0.262900  1.0
  C  C536  1  0.201200  0.656900  0.737100  1.0
  C  C537  1  0.718900  0.362600  0.260800  1.0
  C  C538  1  0.281100  0.637400  0.739200  1.0
  C  C539  1  0.665200  0.422200  0.216600  1.0
  C  C540  1  0.334800  0.577800  0.783400  1.0
  C  C541  1  0.579200  0.447800  0.214100  1.0
  C  C542  1  0.420800  0.552200  0.785900  1.0
  C  C543  1  0.543100  0.412100  0.253900  1.0
  C  C544  1  0.456900  0.587900  0.746100  1.0
  C  C545  1  0.460300  0.442500  0.250200  1.0
  C  C546  1  0.539700  0.557500  0.749800  1.0
  C  C547  1  0.420300  0.506800  0.207700  1.0
  C  C548  1  0.579700  0.493200  0.792300  1.0
  C  C549  1  0.459400  0.539300  0.168100  1.0
  C  C550  1  0.540600  0.460700  0.831900  1.0
  C  C551  1  0.857200  0.276600  0.311200  1.0
  C  C552  1  0.142800  0.723400  0.688800  1.0
  C  C553  1  0.420600  0.401700  0.292100  1.0
  C  C554  1  0.579400  0.598300  0.707900  1.0
  C  C555  1  0.719700  0.552600  0.012600  1.0
  C  C556  1  0.280300  0.447400  0.987400  1.0
  C  C557  1  0.776600  0.571300  0.986600  1.0
  C  C558  1  0.223400  0.428700  0.013400  1.0
  C  C559  1  0.796000  0.623300  0.001600  1.0
  C  C560  1  0.204000  0.376700  0.998400  1.0
  C  C561  1  0.755500  0.654600  0.043500  1.0
  C  C562  1  0.244500  0.345400  0.956500  1.0
  C  C563  1  0.697700  0.635200  0.068300  1.0
  C  C564  1  0.302300  0.364800  0.931700  1.0
  C  C565  1  0.650700  0.667900  0.112600  1.0
  C  C566  1  0.349300  0.332100  0.887400  1.0
  C  C567  1  0.655700  0.725200  0.130100  1.0
  C  C568  1  0.344300  0.274800  0.869900  1.0
  C  C569  1  0.611000  0.752300  0.171300  1.0
  C  C570  1  0.389000  0.247700  0.828700  1.0
  C  C571  1  0.561500  0.720500  0.193400  1.0
  C  C572  1  0.438500  0.279500  0.806600  1.0
  C  C573  1  0.556500  0.665100  0.174300  1.0
  C  C574  1  0.443500  0.334900  0.825700  1.0
  C  C575  1  0.860000  0.644500  0.973400  1.0
  C  C576  1  0.140000  0.355500  0.026600  1.0
  C  C577  1  0.617400  0.814300  0.191300  1.0
  C  C578  1  0.382600  0.185700  0.808700  1.0
  C  C579  1  0.181100  0.655000  0.930600  1.0
  C  C580  1  0.818900  0.345000  0.069400  1.0
  C  C581  1  0.193800  0.718400  0.891000  1.0
  C  C582  1  0.806200  0.281600  0.109000  1.0
  C  C583  1  0.145400  0.770800  0.840200  1.0
  C  C584  1  0.854600  0.229200  0.159800  1.0
  C  C585  1  0.177100  0.819900  0.818000  1.0
  C  C586  1  0.822900  0.180100  0.182000  1.0
  C  C587  1  0.151100  0.887300  0.764400  1.0
  C  C588  1  0.848900  0.112700  0.235600  1.0
  C  C589  1  0.346600  0.774600  0.073300  1.0
  C  C590  1  0.653400  0.225400  0.926700  1.0
  C  C591  1  0.325900  0.819800  0.010800  1.0
  C  C592  1  0.674100  0.180200  0.989200  1.0
  C  C593  1  0.303400  0.895900  0.987700  1.0
  C  C594  1  0.696600  0.104100  0.012300  1.0
  C  C595  1  0.291500  0.913900  0.927900  1.0
  C  C596  1  0.708500  0.086100  0.072100  1.0
  C  C597  1  0.265900  0.988900  0.881300  1.0
  C  C598  1  0.734100  0.011100  0.118700  1.0
  C  C599  1  0.540500  0.593600  0.908100  1.0
  C  C600  1  0.459500  0.406400  0.091900  1.0
  C  C601  1  0.483900  0.670600  0.873600  1.0
  C  C602  1  0.516100  0.329400  0.126400  1.0
  C  C603  1  0.495100  0.715200  0.820900  1.0
  C  C604  1  0.504900  0.284800  0.179100  1.0
  C  C605  1  0.431500  0.781900  0.806300  1.0
  C  C606  1  0.568500  0.218100  0.193700  1.0
  C  C607  1  0.409200  0.851500  0.753900  1.0
  C  C608  1  0.590800  0.148500  0.246100  1.0
  N  N609  1  0.057200  0.543800  0.880000  1
  N  N610  1  0.942800  0.456200  0.120000  1
  N  N611  1  0.414000  0.521800  0.385200  1
  N  N612  1  0.586000  0.478200  0.614800  1
  N  N613  1  0.386600  0.692400  0.236700  1
  N  N614  1  0.613400  0.307600  0.763300  1
  N  N615  1  0.068100  0.288200  0.272500  1
  N  N616  1  0.931900  0.711800  0.727500  1
  N  N617  1  0.408200  0.084900  0.948800  1
  N  N618  1  0.591800  0.915100  0.051200  1
  N  N619  1  0.736600  0.770000  0.817900  1
  N  N620  1  0.263400  0.230000  0.182100  1
  N  N621  1  0.032500  0.100200  0.358600  1
  N  N622  1  0.967500  0.899800  0.641400  1
  N  N623  1  0.491300  0.809100  0.318300  1
  N  N624  1  0.508700  0.190900  0.681700  1
  N  N625  1  0.436200  0.029600  0.737700  1
  N  N626  1  0.563800  0.970400  0.262300  1
  N  N627  1  0.146000  0.918800  0.145600  1
  N  N628  1  0.854000  0.081200  0.854400  1
  N  N629  1  0.107200  0.380200  0.459600  1.0
  N  N630  1  0.892800  0.619800  0.540400  1.0
  N  N631  1  0.919300  0.460400  0.568200  1.0
  N  N632  1  0.080700  0.539600  0.431800  1.0
  N  N633  1  0.904100  0.352200  0.443000  1.0
  N  N634  1  0.095900  0.647800  0.557000  1.0
  N  N635  1  0.165700  0.527800  0.328900  1.0
  N  N636  1  0.834300  0.472200  0.671100  1.0
  N  N637  1  0.052900  0.481900  0.333100  1.0
  N  N638  1  0.947100  0.518100  0.666900  1.0
  N  N639  1  0.252500  0.416600  0.451100  1.0
  N  N640  1  0.747500  0.583400  0.548900  1.0
  N  N641  1  0.226100  0.357500  0.372100  1.0
  N  N642  1  0.773900  0.642500  0.627900  1.0
  N  N643  1  0.964000  0.263900  0.606800  1.0
  N  N644  1  0.036000  0.736100  0.393200  1.0
  N  N645  1  0.008300  0.200200  0.652300  1.0
  N  N646  1  0.991700  0.799800  0.347700  1.0
  N  N647  1  0.089300  0.207100  0.543900  1.0
  N  N648  1  0.910700  0.792900  0.456100  1.0
  N  N649  1  0.119700  0.149200  0.595500  1.0
  N  N650  1  0.880300  0.850800  0.404500  1.0
  N  N651  1  0.099600  0.291700  0.616800  1.0
  N  N652  1  0.900400  0.708300  0.383200  1.0
  N  N653  1  0.125000  0.225100  0.661100  1.0
  N  N654  1  0.875000  0.774900  0.338900  1.0
  N  N655  1  0.500700  0.618000  0.044900  1.0
  N  N656  1  0.499300  0.382000  0.955100  1.0
  N  N657  1  0.383300  0.539900  0.933200  1.0
  N  N658  1  0.616700  0.460100  0.066800  1.0
  N  N659  1  0.271500  0.642200  0.062200  1.0
  N  N660  1  0.728500  0.357800  0.937800  1.0
  N  N661  1  0.690900  0.464600  0.174100  1.0
  N  N662  1  0.309100  0.535400  0.825900  1.0
  N  N663  1  0.537200  0.510700  0.170100  1.0
  N  N664  1  0.462800  0.489300  0.829900  1.0
  N  N665  1  0.681000  0.582300  0.053600  1.0
  N  N666  1  0.319000  0.417700  0.946400  1.0
  N  N667  1  0.601000  0.637500  0.134600  1.0
  N  N668  1  0.399000  0.362500  0.865400  1.0
  N  N669  1  0.253600  0.736000  0.899400  1.0
  N  N670  1  0.746400  0.264000  0.100600  1.0
  N  N671  1  0.243000  0.799300  0.854500  1.0
  N  N672  1  0.757000  0.200700  0.145500  1.0
  N  N673  1  0.328200  0.790500  0.965500  1.0
  N  N674  1  0.671800  0.209500  0.034500  1.0
  N  N675  1  0.305600  0.850200  0.914400  1.0
  N  N676  1  0.694400  0.149800  0.085600  1.0
  N  N677  1  0.414500  0.710100  0.889900  1.0
  N  N678  1  0.585500  0.289900  0.110100  1.0
  N  N679  1  0.381500  0.778700  0.848100  1.0
  N  N680  1  0.618500  0.221300  0.151900  1.0
  O  O681  1  0.742700  0.474100  0.853500  1
  O  O682  1  0.257300  0.525900  0.146500  1
  O  O683  1  0.786900  0.457800  0.356300  1
  O  O684  1  0.213100  0.542200  0.643700  1
  F  F685  1  0.682100  0.115300  0.452100  1
  F  F686  1  0.317900  0.884700  0.547900  1
  F  F687  1  0.560700  0.210000  0.368800  1
  F  F688  1  0.439300  0.790000  0.631200  1
  F  F689  1  0.680600  0.206100  0.374200  1
  F  F690  1  0.319400  0.793900  0.625800  1
  F  F691  1  0.661700  0.216700  0.459700  1
  F  F692  1  0.338300  0.783300  0.540300  1
  F  F693  1  0.565300  0.181700  0.456800  1
  F  F694  1  0.434700  0.818300  0.543200  1
  F  F695  1  0.565500  0.278000  0.392400  1
  F  F696  1  0.434500  0.722000  0.607600  1
  F  F697  1  0.605000  0.133100  0.397400  1
  F  F698  1  0.395000  0.866900  0.602600  1
  F  F699  1  0.144600  0.218400  0.970700  1
  F  F700  1  0.855400  0.781600  0.029300  1
  F  F701  1  0.084900  0.164600  0.880700  1
  F  F702  1  0.915100  0.835400  0.119300  1
  F  F703  1  0.023500  0.221200  0.936300  1
  F  F704  1  0.976500  0.778800  0.063700  1
  F  F705  1  0.115700  0.154300  0.972500  1
  F  F706  1  0.884300  0.845700  0.027500  1
  F  F707  1  0.183000  0.205400  0.897400  1
  F  F708  1  0.817000  0.794600  0.102600  1
  F  F709  1  0.146200  0.139700  0.911500  1
  F  F710  1  0.853800  0.860300  0.088500  1
  F  F711  1  0.089000  0.285000  0.925200  1
  F  F712  1  0.911000  0.715000  0.074800  1
  F  F713  1  0.067200  0.262300  0.857600  1
  F  F714  1  0.932800  0.737700  0.142400  1
