# generated using pymatgen
data_Fe2Co2B2P2H142C154N36O2F15
_symmetry_space_group_name_H-M   'P 1'
_cell_length_a   18.18400000
_cell_length_b   19.82500000
_cell_length_c   23.21400000
_cell_angle_alpha   74.80000000
_cell_angle_beta   89.97800000
_cell_angle_gamma   67.83400000
_symmetry_Int_Tables_number   1
_chemical_formula_structural   Fe2Co2B2P2H142C154N36O2F15
_chemical_formula_sum   'Fe4 Co4 B4 P4 H284 C308 N72 O4 F30'
_cell_volume   7433.38586838
_cell_formula_units_Z   2
loop_
 _symmetry_equiv_pos_site_id
 _symmetry_equiv_pos_as_xyz
  1  'x, y, z'
loop_
 _atom_site_type_symbol
 _atom_site_label
 _atom_site_symmetry_multiplicity
 _atom_site_fract_x
 _atom_site_fract_y
 _atom_site_fract_z
 _atom_site_occupancy
  Fe  Fe1  1  0.135380  0.312080  0.042810  1.0
  Fe  Fe2  1  0.864620  0.687920  0.957190  1.0
  Fe  Fe3  1  0.523190  0.313150  0.543600  1.0
  Fe  Fe4  1  0.476810  0.686850  0.456400  1.0
  Co  Co5  1  0.895980  0.458470  0.898060  1.0
  Co  Co6  1  0.104020  0.541530  0.101940  1.0
  Co  Co7  1  0.638970  0.461400  0.396500  1.0
  Co  Co8  1  0.361030  0.538600  0.603500  1.0
  B  B9  1  0.189200  0.162200  0.145700  1.0
  B  B10  1  0.810800  0.837800  0.854300  1.0
  B  B11  1  0.595500  0.167100  0.650200  1.0
  B  B12  1  0.404500  0.832900  0.349800  1.0
  P  P13  1  0.619250  0.211200  0.921380  1
  P  P14  1  0.380750  0.788800  0.078620  1
  P  P15  1  0.105140  0.216210  0.411700  1
  P  P16  1  0.894860  0.783790  0.588300  1
  H  H17  1  0.385300  0.596000  0.809600  1
  H  H18  1  0.614700  0.404000  0.190400  1
  H  H19  1  0.279200  0.562700  0.795400  1
  H  H20  1  0.720800  0.437300  0.204600  1
  H  H21  1  0.389600  0.359800  0.920100  1
  H  H22  1  0.610400  0.640200  0.079900  1
  H  H23  1  0.495800  0.394200  0.935600  1
  H  H24  1  0.504200  0.605800  0.064400  1
  H  H25  1  0.256400  0.411700  0.877400  1
  H  H26  1  0.743600  0.588300  0.122600  1
  H  H27  1  0.038600  0.595800  0.308700  1
  H  H28  1  0.961400  0.404200  0.691300  1
  H  H29  1  0.173900  0.564900  0.295300  1
  H  H30  1  0.826100  0.435100  0.704700  1
  H  H31  1  0.231300  0.361500  0.419700  1
  H  H32  1  0.768700  0.638500  0.580300  1
  H  H33  1  0.097800  0.388500  0.430500  1
  H  H34  1  0.902200  0.611500  0.569500  1
  H  H35  1  0.321800  0.408900  0.374800  1
  H  H36  1  0.678200  0.591100  0.625200  1
  H  H37  1  0.340000  0.186000  0.945000  1
  H  H38  1  0.660000  0.814000  0.055000  1
  H  H39  1  0.378400  0.180200  0.044600  1
  H  H40  1  0.621600  0.819800  0.955400  1
  H  H41  1  0.431900  0.067300  0.117700  1
  H  H42  1  0.568100  0.932700  0.882300  1
  H  H43  1  0.441600  0.954800  0.096400  1
  H  H44  1  0.558400  0.045200  0.903600  1
  H  H45  1  0.405100  0.957600  0.999900  1
  H  H46  1  0.594900  0.042400  0.000100  1
  H  H47  1  0.535100  0.306400  0.117300  1
  H  H48  1  0.464900  0.693600  0.882700  1
  H  H49  1  0.546600  0.230500  0.055300  1
  H  H50  1  0.453400  0.769500  0.944700  1
  H  H51  1  0.570900  0.101100  0.096700  1
  H  H52  1  0.429100  0.898900  0.903300  1
  H  H53  1  0.585400  0.051300  0.200200  1
  H  H54  1  0.414600  0.948700  0.799800  1
  H  H55  1  0.584800  0.126000  0.262400  1
  H  H56  1  0.415200  0.874000  0.737600  1
  H  H57  1  0.123600  0.311300  0.613200  1
  H  H58  1  0.876400  0.688700  0.386800  1
  H  H59  1  0.177100  0.237000  0.548800  1
  H  H60  1  0.822900  0.763000  0.451200  1
  H  H61  1  0.250000  0.107400  0.588300  1
  H  H62  1  0.750000  0.892600  0.411700  1
  H  H63  1  0.280000  0.051900  0.690700  1
  H  H64  1  0.720000  0.948100  0.309300  1
  H  H65  1  0.224000  0.127100  0.757400  1
  H  H66  1  0.776000  0.872900  0.242600  1
  H  H67  1  0.003600  0.185300  0.554200  1
  H  H68  1  0.996400  0.814700  0.445800  1
  H  H69  1  0.943000  0.156400  0.480800  1
  H  H70  1  0.057000  0.843600  0.519200  1
  H  H71  1  0.807500  0.175100  0.480300  1
  H  H72  1  0.192500  0.824900  0.519700  1
  H  H73  1  0.734100  0.223500  0.551300  1
  H  H74  1  0.265900  0.776500  0.448700  1
  H  H75  1  0.791900  0.253900  0.624700  1
  H  H76  1  0.208100  0.746100  0.375300  1
  H  H77  1  0.836900  0.137000  0.984900  1
  H  H78  1  0.163100  0.863000  0.015100  1
  H  H79  1  0.962600  0.147100  0.977200  1
  H  H80  1  0.037400  0.852900  0.022800  1
  H  H81  1  0.005900  0.205200  0.040500  1
  H  H82  1  0.994100  0.794800  0.959500  1
  H  H83  1  0.923800  0.254500  0.105200  1
  H  H84  1  0.076200  0.745500  0.894800  1
  H  H85  1  0.758600  0.181000  0.056500  1
  H  H86  1  0.241400  0.819000  0.943500  1
  H  H87  1  0.984400  0.951400  0.548900  1
  H  H88  1  0.015600  0.048600  0.451100  1
  H  H89  1  0.910100  0.985400  0.619900  1
  H  H90  1  0.089900  0.014600  0.380100  1
  H  H91  1  0.106600  0.963200  0.538600  1
  H  H92  1  0.893400  0.036800  0.461400  1
  H  H93  1  0.155800  0.008300  0.607900  1
  H  H94  1  0.844200  0.991700  0.392100  1
  H  H95  1  0.073300  0.052300  0.683400  1
  H  H96  1  0.926700  0.947700  0.316600  1
  H  H97  1  0.925200  0.077000  0.208800  1
  H  H98  1  0.074800  0.923000  0.791200  1
  H  H99  1  0.826000  0.941200  0.125400  1
  H  H100  1  0.174000  0.058800  0.874600  1
  H  H101  1  0.939100  0.952700  0.088400  1
  H  H102  1  0.060900  0.047300  0.911600  1
  H  H103  1  0.004700  0.995400  0.152900  1
  H  H104  1  0.995300  0.004600  0.847100  1
  H  H105  1  0.733200  0.025000  0.169800  1
  H  H106  1  0.266800  0.975000  0.830200  1
  H  H107  1  0.380800  0.982600  0.534100  1
  H  H108  1  0.619200  0.017400  0.465900  1
  H  H109  1  0.443700  0.196200  0.498100  1
  H  H110  1  0.556300  0.803800  0.501900  1
  H  H111  1  0.356900  0.186800  0.429900  1
  H  H112  1  0.643100  0.813200  0.570100  1
  H  H113  1  0.491400  0.099900  0.587900  1
  H  H114  1  0.508600  0.900100  0.412100  1
  H  H115  1  0.326800  0.078300  0.444500  1
  H  H116  1  0.673200  0.921700  0.555500  1
  H  H117  1  0.206800  0.113400  0.178600  1.0
  H  H118  1  0.793200  0.886600  0.821400  1.0
  H  H119  1  0.714000  0.521600  0.866400  1.0
  H  H120  1  0.286000  0.478400  0.133600  1.0
  H  H121  1  0.621800  0.620900  0.791500  1.0
  H  H122  1  0.378200  0.379100  0.208500  1.0
  H  H123  1  0.805000  0.665700  0.716600  1.0
  H  H124  1  0.195000  0.334300  0.283400  1.0
  H  H125  1  0.937400  0.624400  0.720400  1.0
  H  H126  1  0.062600  0.375600  0.279600  1.0
  H  H127  1  0.142400  0.455100  0.804200  1.0
  H  H128  1  0.857600  0.544900  0.195800  1.0
  H  H129  1  0.072000  0.408800  0.876500  1.0
  H  H130  1  0.928000  0.591200  0.123500  1.0
  H  H131  1  0.601600  0.705600  0.686700  1.0
  H  H132  1  0.398400  0.294400  0.313300  1.0
  H  H133  1  0.672200  0.730700  0.661900  1.0
  H  H134  1  0.327800  0.269300  0.338100  1.0
  H  H135  1  0.623000  0.764400  0.712100  1.0
  H  H136  1  0.377000  0.235600  0.287900  1.0
  H  H137  1  0.087200  0.571700  0.673200  1.0
  H  H138  1  0.912800  0.428300  0.326800  1.0
  H  H139  1  0.151700  0.554600  0.727600  1.0
  H  H140  1  0.848300  0.445400  0.272400  1.0
  H  H141  1  0.076300  0.634000  0.708100  1.0
  H  H142  1  0.923700  0.366000  0.291900  1.0
  H  H143  1  0.804800  0.496000  0.003400  1.0
  H  H144  1  0.195200  0.504000  0.996600  1.0
  H  H145  1  0.704400  0.467500  0.051300  1.0
  H  H146  1  0.295600  0.532500  0.948700  1.0
  H  H147  1  0.634300  0.376800  0.075000  1.0
  H  H148  1  0.365700  0.623200  0.925000  1.0
  H  H149  1  0.632700  0.330900  0.028000  1.0
  H  H150  1  0.367300  0.669100  0.972000  1.0
  H  H151  1  0.580200  0.420200  0.011800  1.0
  H  H152  1  0.419800  0.579800  0.988200  1.0
  H  H153  1  0.721000  0.326100  0.949600  1.0
  H  H154  1  0.279000  0.673900  0.050400  1.0
  H  H155  1  0.796900  0.267800  0.887100  1.0
  H  H156  1  0.203100  0.732200  0.112900  1.0
  H  H157  1  0.972700  0.268900  0.781200  1.0
  H  H158  1  0.027300  0.731100  0.218800  1.0
  H  H159  1  0.980100  0.369100  0.811900  1.0
  H  H160  1  0.019900  0.630900  0.188100  1.0
  H  H161  1  0.843400  0.172800  0.836400  1.0
  H  H162  1  0.156600  0.827200  0.163600  1.0
  H  H163  1  0.929300  0.155100  0.812300  1.0
  H  H164  1  0.070700  0.844900  0.187700  1.0
  H  H165  1  0.850500  0.213900  0.768700  1.0
  H  H166  1  0.149500  0.786100  0.231300  1.0
  H  H167  1  0.360900  0.350300  0.086000  1.0
  H  H168  1  0.639100  0.649700  0.914000  1.0
  H  H169  1  0.269600  0.388700  0.057200  1.0
  H  H170  1  0.730400  0.611300  0.942800  1.0
  H  H171  1  0.335100  0.329700  0.029100  1.0
  H  H172  1  0.664900  0.670300  0.970900  1.0
  H  H173  1  0.402900  0.223600  0.174000  1.0
  H  H174  1  0.597100  0.776400  0.826000  1.0
  H  H175  1  0.399100  0.096600  0.250600  1.0
  H  H176  1  0.600900  0.903400  0.749400  1.0
  H  H177  1  0.348300  0.061300  0.220800  1.0
  H  H178  1  0.651700  0.938700  0.779200  1.0
  H  H179  1  0.308000  0.114300  0.263000  1.0
  H  H180  1  0.692000  0.885700  0.737000  1.0
  H  H181  1  0.138400  0.193400  0.897200  1.0
  H  H182  1  0.861600  0.806600  0.102800  1.0
  H  H183  1  0.167500  0.254000  0.912700  1.0
  H  H184  1  0.832500  0.746000  0.087300  1.0
  H  H185  1  0.076900  0.262600  0.918100  1.0
  H  H186  1  0.923100  0.737400  0.081900  1.0
  H  H187  1  0.180400  0.066000  0.985900  1.0
  H  H188  1  0.819600  0.934000  0.014100  1.0
  H  H189  1  0.184000  0.005500  0.145800  1.0
  H  H190  1  0.816000  0.994500  0.854200  1.0
  H  H191  1  0.274200  0.996300  0.136800  1.0
  H  H192  1  0.725800  0.003700  0.863200  1.0
  H  H193  1  0.228800  0.966700  0.096400  1.0
  H  H194  1  0.771200  0.033300  0.903600  1.0
  H  H195  1  0.929000  0.398500  0.061300  1.0
  H  H196  1  0.071000  0.601500  0.938700  1.0
  H  H197  1  0.975500  0.437900  0.090500  1.0
  H  H198  1  0.024500  0.562100  0.909500  1.0
  H  H199  1  0.904700  0.419300  0.122600  1.0
  H  H200  1  0.095300  0.580700  0.877400  1.0
  H  H201  1  0.958100  0.295600  0.213800  1.0
  H  H202  1  0.041900  0.704400  0.786200  1.0
  H  H203  1  0.128500  0.145600  0.283200  1.0
  H  H204  1  0.871500  0.854400  0.716800  1.0
  H  H205  1  0.112300  0.099100  0.241200  1.0
  H  H206  1  0.887700  0.900900  0.758800  1.0
  H  H207  1  0.042000  0.143700  0.275400  1.0
  H  H208  1  0.958000  0.856300  0.724600  1.0
  H  H209  1  0.619400  0.119400  0.684100  1.0
  H  H210  1  0.380600  0.880600  0.315900  1.0
  H  H211  1  0.767900  0.527200  0.368000  1.0
  H  H212  1  0.232100  0.472800  0.632000  1.0
  H  H213  1  0.780100  0.623600  0.292500  1.0
  H  H214  1  0.219900  0.376400  0.707500  1.0
  H  H215  1  0.562600  0.668300  0.215300  1.0
  H  H216  1  0.437400  0.331700  0.784700  1.0
  H  H217  1  0.467600  0.625700  0.216700  1.0
  H  H218  1  0.532400  0.374300  0.783300  1.0
  H  H219  1  0.398300  0.456200  0.300200  1.0
  H  H220  1  0.601700  0.543800  0.699800  1.0
  H  H221  1  0.505200  0.412400  0.374100  1.0
  H  H222  1  0.494800  0.587600  0.625900  1.0
  H  H223  1  0.686700  0.759100  0.217200  1.0
  H  H224  1  0.313300  0.240900  0.782800  1.0
  H  H225  1  0.625100  0.751600  0.172500  1.0
  H  H226  1  0.374900  0.248400  0.827500  1.0
  H  H227  1  0.719200  0.705800  0.174000  1.0
  H  H228  1  0.280800  0.294200  0.826000  1.0
  H  H229  1  0.337500  0.633500  0.186000  1.0
  H  H230  1  0.662500  0.366500  0.814000  1.0
  H  H231  1  0.301000  0.577200  0.225900  1.0
  H  H232  1  0.699000  0.422800  0.774100  1.0
  H  H233  1  0.356900  0.552000  0.175700  1.0
  H  H234  1  0.643100  0.448000  0.824300  1.0
  H  H235  1  0.698500  0.499500  0.501800  1.0
  H  H236  1  0.301500  0.500500  0.498200  1.0
  H  H237  1  0.824000  0.470600  0.548300  1.0
  H  H238  1  0.176000  0.529400  0.451700  1.0
  H  H239  1  0.923000  0.329600  0.446900  1.0
  H  H240  1  0.077000  0.670400  0.553100  1.0
  H  H241  1  0.893900  0.273500  0.384300  1.0
  H  H242  1  0.106100  0.726500  0.615700  1.0
  H  H243  1  0.718300  0.274400  0.278300  1.0
  H  H244  1  0.281700  0.725600  0.721700  1.0
  H  H245  1  0.628100  0.371800  0.309400  1.0
  H  H246  1  0.371900  0.628200  0.690600  1.0
  H  H247  1  0.980800  0.427300  0.518700  1.0
  H  H248  1  0.019200  0.572700  0.481300  1.0
  H  H249  1  0.009300  0.341600  0.515600  1.0
  H  H250  1  0.990700  0.658400  0.484400  1.0
  H  H251  1  0.972400  0.363500  0.574000  1.0
  H  H252  1  0.027600  0.636500  0.426000  1.0
  H  H253  1  0.881900  0.218400  0.264300  1.0
  H  H254  1  0.118100  0.781600  0.735700  1.0
  H  H255  1  0.858500  0.157600  0.312400  1.0
  H  H256  1  0.141500  0.842400  0.687600  1.0
  H  H257  1  0.928600  0.180900  0.330500  1.0
  H  H258  1  0.071400  0.819100  0.669500  1.0
  H  H259  1  0.310400  0.318800  0.528400  1.0
  H  H260  1  0.689600  0.681200  0.471600  1.0
  H  H261  1  0.327500  0.381100  0.551900  1.0
  H  H262  1  0.672500  0.618900  0.448100  1.0
  H  H263  1  0.267600  0.344700  0.583700  1.0
  H  H264  1  0.732400  0.655300  0.416300  1.0
  H  H265  1  0.330600  0.216200  0.670700  1.0
  H  H266  1  0.669400  0.783800  0.329300  1.0
  H  H267  1  0.438500  0.096400  0.752800  1.0
  H  H268  1  0.561500  0.903600  0.247200  1.0
  H  H269  1  0.517800  0.110900  0.762500  1.0
  H  H270  1  0.482200  0.889100  0.237500  1.0
  H  H271  1  0.515500  0.058400  0.721200  1.0
  H  H272  1  0.484500  0.941600  0.278800  1.0
  H  H273  1  0.636800  0.257300  0.419900  1.0
  H  H274  1  0.363200  0.742700  0.580100  1.0
  H  H275  1  0.551700  0.251100  0.417700  1.0
  H  H276  1  0.448300  0.748900  0.582300  1.0
  H  H277  1  0.628500  0.186700  0.403700  1.0
  H  H278  1  0.371500  0.813300  0.596300  1.0
  H  H279  1  0.711700  0.069100  0.497400  1.0
  H  H280  1  0.288300  0.930900  0.502600  1.0
  H  H281  1  0.679700  0.993400  0.644300  1.0
  H  H282  1  0.320300  0.006600  0.355700  1.0
  H  H283  1  0.742200  0.026200  0.661100  1.0
  H  H284  1  0.257800  0.973800  0.338900  1.0
  H  H285  1  0.760200  0.979300  0.612600  1.0
  H  H286  1  0.239800  0.020700  0.387400  1.0
  H  H287  1  0.653700  0.433600  0.619200  1.0
  H  H288  1  0.346300  0.566400  0.380800  1.0
  H  H289  1  0.573300  0.445300  0.582400  1.0
  H  H290  1  0.426700  0.554700  0.417600  1.0
  H  H291  1  0.658200  0.404500  0.560700  1.0
  H  H292  1  0.341800  0.595500  0.439300  1.0
  H  H293  1  0.701900  0.313500  0.714900  1.0
  H  H294  1  0.298100  0.686500  0.285100  1.0
  H  H295  1  0.736500  0.118200  0.752200  1.0
  H  H296  1  0.263500  0.881800  0.247800  1.0
  H  H297  1  0.652700  0.149200  0.778500  1.0
  H  H298  1  0.347300  0.850800  0.221500  1.0
  H  H299  1  0.722200  0.175700  0.792200  1.0
  H  H300  1  0.277800  0.824300  0.207800  1.0
  C  C301  1  0.386100  0.548200  0.832200  1
  C  C302  1  0.613900  0.451800  0.167800  1
  C  C303  1  0.323200  0.528600  0.824400  1
  C  C304  1  0.676800  0.471400  0.175600  1
  C  C305  1  0.322200  0.459900  0.857900  1
  C  C306  1  0.677800  0.540100  0.142100  1
  C  C307  1  0.388200  0.408200  0.898400  1
  C  C308  1  0.611800  0.591800  0.101600  1
  C  C309  1  0.451700  0.428200  0.906800  1
  C  C310  1  0.548300  0.571800  0.093200  1
  C  C311  1  0.516400  0.518700  0.883800  1
  C  C312  1  0.483600  0.481300  0.116200  1
  C  C313  1  0.451800  0.497200  0.873700  1
  C  C314  1  0.548200  0.502800  0.126300  1
  C  C315  1  0.054500  0.495400  0.371500  1
  C  C316  1  0.945500  0.504600  0.628500  1
  C  C317  1  0.077600  0.548100  0.331000  1
  C  C318  1  0.922400  0.451900  0.669000  1
  C  C319  1  0.158300  0.530000  0.323600  1
  C  C320  1  0.841700  0.470000  0.676400  1
  C  C321  1  0.216300  0.460900  0.357500  1
  C  C322  1  0.783700  0.539100  0.642500  1
  C  C323  1  0.192200  0.408900  0.397000  1
  C  C324  1  0.807800  0.591100  0.603000  1
  C  C325  1  0.113100  0.425100  0.403800  1
  C  C326  1  0.886900  0.574900  0.596200  1
  C  C327  1  0.972500  0.514900  0.380200  1
  C  C328  1  0.027500  0.485100  0.619800  1
  C  C329  1  0.349500  0.073600  0.903800  1
  C  C330  1  0.650500  0.926400  0.096200  1
  C  C331  1  0.361600  0.138900  0.975300  1
  C  C332  1  0.638400  0.861100  0.024700  1
  C  C333  1  0.384700  0.134700  0.035100  1
  C  C334  1  0.615300  0.865300  0.964900  1
  C  C335  1  0.415200  0.068600  0.078500  1
  C  C336  1  0.584800  0.931400  0.921500  1
  C  C337  1  0.422000  0.001600  0.065500  1
  C  C338  1  0.578000  0.998400  0.934500  1
  C  C339  1  0.400500  0.003100  0.008700  1
  C  C340  1  0.599500  0.996900  0.991300  1
  C  C341  1  0.371700  0.072400  0.963500  1
  C  C342  1  0.628300  0.927600  0.036500  1
  C  C343  1  0.547000  0.253800  0.134000  1
  C  C344  1  0.453000  0.746200  0.866000  1
  C  C345  1  0.552700  0.209500  0.097700  1
  C  C346  1  0.447300  0.790500  0.902300  1
  C  C347  1  0.567500  0.132400  0.122200  1
  C  C348  1  0.432500  0.867600  0.877800  1
  C  C349  1  0.577100  0.103100  0.183200  1
  C  C350  1  0.422900  0.896900  0.816800  1
  C  C351  1  0.574900  0.147300  0.220100  1
  C  C352  1  0.425100  0.852700  0.779900  1
  C  C353  1  0.553200  0.272300  0.232600  1
  C  C354  1  0.446800  0.727700  0.767400  1
  C  C355  1  0.558300  0.222900  0.195000  1
  C  C356  1  0.441700  0.777100  0.805000  1
  C  C357  1  0.169700  0.225800  0.691100  1
  C  C358  1  0.830300  0.774200  0.308900  1
  C  C359  1  0.155000  0.258600  0.629100  1
  C  C360  1  0.845000  0.741400  0.370900  1
  C  C361  1  0.186100  0.214700  0.591100  1
  C  C362  1  0.813900  0.785300  0.408900  1
  C  C363  1  0.230500  0.137900  0.614800  1
  C  C364  1  0.769500  0.862100  0.385200  1
  C  C365  1  0.247300  0.104400  0.675400  1
  C  C366  1  0.752700  0.895600  0.324600  1
  C  C367  1  0.214800  0.149400  0.715100  1
  C  C368  1  0.785200  0.850600  0.284900  1
  C  C369  1  0.134300  0.272600  0.729500  1
  C  C370  1  0.865700  0.727400  0.270500  1
  C  C371  1  0.903400  0.221600  0.596100  1
  C  C372  1  0.096600  0.778400  0.403900  1
  C  C373  1  0.948700  0.193000  0.553600  1
  C  C374  1  0.051300  0.807000  0.446400  1
  C  C375  1  0.912900  0.175900  0.510400  1
  C  C376  1  0.087100  0.824100  0.489600  1
  C  C377  1  0.832100  0.187300  0.510000  1
  C  C378  1  0.167900  0.812700  0.490000  1
  C  C379  1  0.789000  0.215800  0.552100  1
  C  C380  1  0.211000  0.784200  0.447900  1
  C  C381  1  0.822700  0.233700  0.595600  1
  C  C382  1  0.177300  0.766300  0.404400  1
  C  C383  1  0.940500  0.238100  0.642500  1
  C  C384  1  0.059500  0.761900  0.357500  1
  C  C385  1  0.835900  0.218900  0.089100  1
  C  C386  1  0.164100  0.781100  0.910900  1
  C  C387  1  0.854600  0.159400  0.010500  1
  C  C388  1  0.145400  0.840600  0.989500  1
  C  C389  1  0.929500  0.166100  0.005700  1
  C  C390  1  0.070500  0.833900  0.994300  1
  C  C391  1  0.955500  0.201300  0.043400  1
  C  C392  1  0.044500  0.798700  0.956600  1
  C  C393  1  0.908500  0.228200  0.081800  1
  C  C394  1  0.091500  0.771800  0.918200  1
  C  C395  1  0.791200  0.243100  0.133600  1
  C  C396  1  0.208800  0.756900  0.866400  1
  C  C397  1  0.808700  0.185400  0.052300  1
  C  C398  1  0.191300  0.814600  0.947700  1
  C  C399  1  0.932200  0.046500  0.700700  1
  C  C400  1  0.067800  0.953500  0.299300  1
  C  C401  1  0.003100  0.971500  0.576000  1
  C  C402  1  0.996900  0.028500  0.424000  1
  C  C403  1  0.959100  0.992100  0.617300  1
  C  C404  1  0.040900  0.007900  0.382700  1
  C  C405  1  0.076200  0.977800  0.569800  1
  C  C406  1  0.923800  0.022200  0.430200  1
  C  C407  1  0.104600  0.005900  0.610300  1
  C  C408  1  0.895400  0.994100  0.389700  1
  C  C409  1  0.056300  0.031500  0.656100  1
  C  C410  1  0.943700  0.968500  0.343900  1
  C  C411  1  0.980800  0.023200  0.657500  1
  C  C412  1  0.019200  0.976800  0.342500  1
  C  C413  1  0.905400  0.048400  0.190800  1
  C  C414  1  0.094600  0.951600  0.809200  1
  C  C415  1  0.842500  0.976000  0.137500  1
  C  C416  1  0.157500  0.024000  0.862500  1
  C  C417  1  0.915200  0.973100  0.119800  1
  C  C418  1  0.084800  0.026900  0.880200  1
  C  C419  1  0.949700  0.004300  0.154200  1
  C  C420  1  0.050300  0.995700  0.845800  1
  C  C421  1  0.787800  0.017700  0.168800  1
  C  C422  1  0.212200  0.982300  0.831200  1
  C  C423  1  0.781800  0.084300  0.241200  1
  C  C424  1  0.218200  0.915700  0.758800  1
  C  C425  1  0.829600  0.046500  0.198400  1
  C  C426  1  0.170400  0.953500  0.801600  1
  C  C427  1  0.445100  0.030900  0.565600  1
  C  C428  1  0.554900  0.969100  0.434400  1
  C  C429  1  0.393800  0.026100  0.525500  1
  C  C430  1  0.606200  0.973900  0.474500  1
  C  C431  1  0.430400  0.152900  0.505900  1
  C  C432  1  0.569600  0.847100  0.494100  1
  C  C433  1  0.379900  0.146000  0.465300  1
  C  C434  1  0.620100  0.854000  0.534700  1
  C  C435  1  0.460100  0.095400  0.557400  1
  C  C436  1  0.539900  0.904600  0.442600  1
  C  C437  1  0.482500  0.967600  0.618000  1
  C  C438  1  0.517500  0.032400  0.382000  1
  C  C439  1  0.360700  0.082100  0.473500  1
  C  C440  1  0.639300  0.917900  0.526500  1
  C  C441  1  0.040600  0.358400  0.989900  1.0
  C  C442  1  0.959400  0.641600  0.010100  1.0
  C  C443  1  0.119400  0.404900  0.057800  1.0
  C  C444  1  0.880600  0.595100  0.942200  1.0
  C  C445  1  0.191700  0.335400  0.976300  1.0
  C  C446  1  0.808300  0.664600  0.023700  1.0
  C  C447  1  0.732600  0.551100  0.835300  1.0
  C  C448  1  0.267400  0.448900  0.164700  1.0
  C  C449  1  0.677200  0.610500  0.790900  1.0
  C  C450  1  0.322800  0.389500  0.209100  1.0
  C  C451  1  0.703600  0.654800  0.745600  1.0
  C  C452  1  0.296400  0.345200  0.254400  1.0
  C  C453  1  0.785200  0.636400  0.746800  1.0
  C  C454  1  0.214800  0.363600  0.253200  1.0
  C  C455  1  0.838000  0.576000  0.791300  1.0
  C  C456  1  0.162000  0.424000  0.208700  1.0
  C  C457  1  0.924800  0.549200  0.793800  1.0
  C  C458  1  0.075200  0.450800  0.206200  1.0
  C  C459  1  0.965800  0.579700  0.752000  1.0
  C  C460  1  0.034200  0.420300  0.248000  1.0
  C  C461  1  0.047700  0.545700  0.756000  1.0
  C  C462  1  0.952300  0.454300  0.244000  1.0
  C  C463  1  0.086100  0.481000  0.801700  1.0
  C  C464  1  0.913900  0.519000  0.198300  1.0
  C  C465  1  0.044000  0.452800  0.844300  1.0
  C  C466  1  0.956000  0.547200  0.155700  1.0
  C  C467  1  0.645100  0.719500  0.697400  1.0
  C  C468  1  0.354900  0.280500  0.302600  1.0
  C  C469  1  0.094900  0.579400  0.712400  1.0
  C  C470  1  0.905100  0.420600  0.287600  1.0
  C  C471  1  0.787000  0.461500  0.992000  1.0
  C  C472  1  0.213000  0.538500  0.008000  1.0
  C  C473  1  0.727000  0.444900  0.020700  1.0
  C  C474  1  0.273000  0.555100  0.979300  1.0
  C  C475  1  0.699800  0.395600  0.004700  1.0
  C  C476  1  0.300200  0.604400  0.995300  1.0
  C  C477  1  0.630700  0.379500  0.032300  1.0
  C  C478  1  0.369300  0.620500  0.967700  1.0
  C  C479  1  0.737100  0.361600  0.960900  1.0
  C  C480  1  0.262900  0.638400  0.039100  1.0
  C  C481  1  0.797300  0.380200  0.934400  1.0
  C  C482  1  0.202700  0.619800  0.065600  1.0
  C  C483  1  0.842900  0.346400  0.889400  1.0
  C  C484  1  0.157100  0.653600  0.110600  1.0
  C  C485  1  0.835100  0.287600  0.871200  1.0
  C  C486  1  0.164900  0.712400  0.128800  1.0
  C  C487  1  0.883000  0.257800  0.829800  1.0
  C  C488  1  0.117000  0.742200  0.170200  1.0
  C  C489  1  0.937900  0.288600  0.808700  1.0
  C  C490  1  0.062100  0.711400  0.191300  1.0
  C  C491  1  0.942500  0.348200  0.827400  1.0
  C  C492  1  0.057500  0.651800  0.172600  1.0
  C  C493  1  0.875900  0.194400  0.810100  1.0
  C  C494  1  0.124100  0.805600  0.189900  1.0
  C  C495  1  0.318400  0.342300  0.066400  1.0
  C  C496  1  0.681600  0.657700  0.933600  1.0
  C  C497  1  0.302600  0.278800  0.107200  1.0
  C  C498  1  0.697400  0.721200  0.892800  1.0
  C  C499  1  0.354200  0.224700  0.158000  1.0
  C  C500  1  0.645800  0.775300  0.842000  1.0
  C  C501  1  0.319200  0.174400  0.179200  1.0
  C  C502  1  0.680800  0.825600  0.820800  1.0
  C  C503  1  0.346000  0.105700  0.233100  1.0
  C  C504  1  0.654000  0.894300  0.766900  1.0
  C  C505  1  0.132500  0.226300  0.923300  1.0
  C  C506  1  0.867500  0.773700  0.076700  1.0
  C  C507  1  0.154800  0.179100  0.987200  1.0
  C  C508  1  0.845200  0.820900  0.012800  1.0
  C  C509  1  0.177000  0.100200  0.008800  1.0
  C  C510  1  0.823000  0.899800  0.991200  1.0
  C  C511  1  0.192700  0.082700  0.070300  1.0
  C  C512  1  0.807300  0.917300  0.929700  1.0
  C  C513  1  0.222500  0.006100  0.116300  1.0
  C  C514  1  0.777500  0.993900  0.883700  1.0
  C  C515  1  0.949300  0.401900  0.099100  1.0
  C  C516  1  0.050700  0.598100  0.900900  1.0
  C  C517  1  0.007800  0.325700  0.134000  1.0
  C  C518  1  0.992200  0.674300  0.866000  1.0
  C  C519  1  0.000200  0.281500  0.189500  1.0
  C  C520  1  0.999800  0.718500  0.810500  1.0
  C  C521  1  0.064700  0.214200  0.202200  1.0
  C  C522  1  0.935300  0.785800  0.797800  1.0
  C  C523  1  0.089000  0.144600  0.255100  1.0
  C  C524  1  0.911000  0.855400  0.744900  1.0
  C  C525  1  0.578300  0.361200  0.489800  1.0
  C  C526  1  0.421700  0.638800  0.510200  1.0
  C  C527  1  0.459900  0.404800  0.558300  1.0
  C  C528  1  0.540100  0.595200  0.441700  1.0
  C  C529  1  0.450900  0.333400  0.476600  1.0
  C  C530  1  0.549100  0.666600  0.523400  1.0
  C  C531  1  0.726200  0.555300  0.336000  1.0
  C  C532  1  0.273800  0.444700  0.664000  1.0
  C  C533  1  0.732900  0.613800  0.291700  1.0
  C  C534  1  0.267100  0.386200  0.708300  1.0
  C  C535  1  0.671700  0.658400  0.246100  1.0
  C  C536  1  0.328300  0.341600  0.753900  1.0
  C  C537  1  0.605900  0.639400  0.246100  1.0
  C  C538  1  0.394100  0.360600  0.753900  1.0
  C  C539  1  0.602500  0.578600  0.290500  1.0
  C  C540  1  0.397500  0.421400  0.709500  1.0
  C  C541  1  0.538400  0.551200  0.291400  1.0
  C  C542  1  0.461600  0.448800  0.708600  1.0
  C  C543  1  0.474600  0.581500  0.248300  1.0
  C  C544  1  0.525400  0.418500  0.751700  1.0
  C  C545  1  0.419100  0.546600  0.250900  1.0
  C  C546  1  0.580900  0.453400  0.749100  1.0
  C  C547  1  0.432900  0.482500  0.297800  1.0
  C  C548  1  0.567100  0.517500  0.702200  1.0
  C  C549  1  0.497400  0.456000  0.341600  1.0
  C  C550  1  0.502600  0.544000  0.658400  1.0
  C  C551  1  0.676000  0.724500  0.198300  1.0
  C  C552  1  0.324000  0.275500  0.801700  1.0
  C  C553  1  0.347500  0.580200  0.205800  1.0
  C  C554  1  0.652500  0.419800  0.794200  1.0
  C  C555  1  0.744500  0.465000  0.490200  1.0
  C  C556  1  0.255500  0.535000  0.509800  1.0
  C  C557  1  0.819400  0.447800  0.518000  1.0
  C  C558  1  0.180600  0.552200  0.482000  1.0
  C  C559  1  0.886700  0.398300  0.502300  1.0
  C  C560  1  0.113300  0.601700  0.497700  1.0
  C  C561  1  0.877700  0.364500  0.458700  1.0
  C  C562  1  0.122300  0.635500  0.541300  1.0
  C  C563  1  0.801100  0.382700  0.432600  1.0
  C  C564  1  0.198900  0.617300  0.567400  1.0
  C  C565  1  0.783400  0.350600  0.387200  1.0
  C  C566  1  0.216600  0.649400  0.612800  1.0
  C  C567  1  0.839300  0.292700  0.368700  1.0
  C  C568  1  0.160700  0.707300  0.631300  1.0
  C  C569  1  0.816600  0.262500  0.327700  1.0
  C  C570  1  0.183400  0.737500  0.672300  1.0
  C  C571  1  0.736400  0.293600  0.306300  1.0
  C  C572  1  0.263600  0.706400  0.693700  1.0
  C  C573  1  0.682800  0.351500  0.325000  1.0
  C  C574  1  0.317200  0.648500  0.675000  1.0
  C  C575  1  0.969600  0.381200  0.530100  1.0
  C  C576  1  0.030400  0.618800  0.469900  1.0
  C  C577  1  0.876700  0.199300  0.306900  1.0
  C  C578  1  0.123300  0.800700  0.693100  1.0
  C  C579  1  0.316700  0.334800  0.564000  1.0
  C  C580  1  0.683300  0.665200  0.436000  1.0
  C  C581  1  0.384000  0.274100  0.606000  1.0
  C  C582  1  0.616000  0.725900  0.394000  1.0
  C  C583  1  0.378300  0.219400  0.656100  1.0
  C  C584  1  0.621700  0.780600  0.343900  1.0
  C  C585  1  0.454900  0.171500  0.680200  1.0
  C  C586  1  0.545100  0.828500  0.319800  1.0
  C  C587  1  0.484200  0.103500  0.733800  1.0
  C  C588  1  0.515800  0.896500  0.266200  1.0
  C  C589  1  0.609400  0.222300  0.428000  1.0
  C  C590  1  0.390600  0.777700  0.572000  1.0
  C  C591  1  0.626200  0.179100  0.493100  1.0
  C  C592  1  0.373800  0.820900  0.506900  1.0
  C  C593  1  0.679700  0.103100  0.518300  1.0
  C  C594  1  0.320300  0.896900  0.481700  1.0
  C  C595  1  0.676000  0.088100  0.579300  1.0
  C  C596  1  0.324000  0.911900  0.420700  1.0
  C  C597  1  0.718200  0.015400  0.628700  1.0
  C  C598  1  0.281800  0.984600  0.371300  1.0
  C  C599  1  0.629300  0.411300  0.595800  1.0
  C  C600  1  0.370700  0.588700  0.404200  1.0
  C  C601  1  0.633700  0.336200  0.633900  1.0
  C  C602  1  0.366300  0.663800  0.366100  1.0
  C  C603  1  0.674000  0.296600  0.691100  1.0
  C  C604  1  0.326000  0.703400  0.308900  1.0
  C  C605  1  0.665600  0.228400  0.706300  1.0
  C  C606  1  0.334400  0.771600  0.293700  1.0
  C  C607  1  0.697000  0.162100  0.762200  1.0
  C  C608  1  0.303000  0.837900  0.237800  1.0
  N  N609  1  0.568400  0.537000  0.891600  1
  N  N610  1  0.431600  0.463000  0.108400  1
  N  N611  1  0.906000  0.532400  0.387800  1
  N  N612  1  0.094000  0.467600  0.612200  1
  N  N613  1  0.333000  0.074500  0.855000  1
  N  N614  1  0.667000  0.925500  0.145000  1
  N  N615  1  0.548500  0.312600  0.261000  1
  N  N616  1  0.451500  0.687400  0.739000  1
  N  N617  1  0.106700  0.310300  0.758800  1
  N  N618  1  0.893300  0.689700  0.241200  1
  N  N619  1  0.969800  0.253100  0.678000  1
  N  N620  1  0.030200  0.746900  0.322000  1
  N  N621  1  0.748000  0.265300  0.168900  1
  N  N622  1  0.252000  0.734700  0.831100  1
  N  N623  1  0.892600  0.061100  0.739100  1
  N  N624  1  0.107400  0.938900  0.260900  1
  N  N625  1  0.742000  0.117200  0.284700  1
  N  N626  1  0.258000  0.882800  0.715300  1
  N  N627  1  0.510000  0.910000  0.658000  1
  N  N628  1  0.490000  0.090000  0.342000  1
  N  N629  1  0.984200  0.389500  0.955400  1.0
  N  N630  1  0.015800  0.610500  0.044600  1.0
  N  N631  1  0.111000  0.461000  0.069800  1.0
  N  N632  1  0.889000  0.539000  0.930200  1.0
  N  N633  1  0.224600  0.351300  0.935600  1.0
  N  N634  1  0.775400  0.648700  0.064400  1.0
  N  N635  1  0.811600  0.533800  0.835900  1.0
  N  N636  1  0.188400  0.466200  0.164100  1.0
  N  N637  1  0.964000  0.486900  0.840700  1.0
  N  N638  1  0.036000  0.513100  0.159300  1.0
  N  N639  1  0.821300  0.431100  0.948900  1.0
  N  N640  1  0.178700  0.568900  0.051100  1.0
  N  N641  1  0.895500  0.377000  0.866700  1.0
  N  N642  1  0.104500  0.623000  0.133300  1.0
  N  N643  1  0.239700  0.261900  0.099400  1.0
  N  N644  1  0.760300  0.738100  0.900600  1.0
  N  N645  1  0.250500  0.197000  0.143700  1.0
  N  N646  1  0.749500  0.803000  0.856300  1.0
  N  N647  1  0.155600  0.208100  0.032900  1.0
  N  N648  1  0.844400  0.791900  0.967100  1.0
  N  N649  1  0.179400  0.147800  0.084400  1.0
  N  N650  1  0.820600  0.852200  0.915600  1.0
  N  N651  1  0.074600  0.287400  0.113900  1.0
  N  N652  1  0.925400  0.712600  0.886100  1.0
  N  N653  1  0.109300  0.217700  0.156000  1.0
  N  N654  1  0.890700  0.782300  0.844000  1.0
  N  N655  1  0.607300  0.392600  0.453800  1.0
  N  N656  1  0.392700  0.607400  0.546200  1.0
  N  N657  1  0.420600  0.459600  0.570700  1.0
  N  N658  1  0.579400  0.540400  0.429300  1.0
  N  N659  1  0.404500  0.351000  0.434700  1.0
  N  N660  1  0.595500  0.649000  0.565300  1.0
  N  N661  1  0.662300  0.536800  0.335400  1.0
  N  N662  1  0.337700  0.463200  0.664600  1.0
  N  N663  1  0.548400  0.490200  0.339100  1.0
  N  N664  1  0.451600  0.509800  0.660900  1.0
  N  N665  1  0.736000  0.433800  0.447100  1.0
  N  N666  1  0.264000  0.566200  0.552900  1.0
  N  N667  1  0.705900  0.380400  0.365000  1.0
  N  N668  1  0.294100  0.619600  0.635000  1.0
  N  N669  1  0.461600  0.260300  0.600200  1.0
  N  N670  1  0.538400  0.739700  0.399800  1.0
  N  N671  1  0.504700  0.197000  0.645600  1.0
  N  N672  1  0.495300  0.803000  0.354400  1.0
  N  N673  1  0.593600  0.208700  0.537300  1.0
  N  N674  1  0.406400  0.791300  0.462700  1.0
  N  N675  1  0.622800  0.151600  0.590100  1.0
  N  N676  1  0.377200  0.848400  0.409900  1.0
  N  N677  1  0.600300  0.294700  0.614800  1.0
  N  N678  1  0.399700  0.705300  0.385200  1.0
  N  N679  1  0.622500  0.227300  0.659900  1.0
  N  N680  1  0.377500  0.772700  0.340100  1.0
  O  O681  1  0.259300  0.445100  0.847600  1
  O  O682  1  0.740700  0.554900  0.152400  1
  O  O683  1  0.291700  0.449300  0.349600  1
  O  O684  1  0.708300  0.550700  0.650400  1
  F  F685  1  0.667300  0.142700  0.982800  1
  F  F686  1  0.332700  0.857300  0.017200  1
  F  F687  1  0.703200  0.204600  0.897100  1
  F  F688  1  0.296800  0.795400  0.102900  1
  F  F689  1  0.536000  0.214600  0.946800  1
  F  F690  1  0.464000  0.785400  0.053200  1
  F  F691  1  0.621800  0.268800  0.955300  1
  F  F692  1  0.378200  0.731200  0.044700  1
  F  F693  1  0.570000  0.272100  0.864100  1
  F  F694  1  0.430000  0.727900  0.135900  1
  F  F695  1  0.616700  0.145700  0.893400  1
  F  F696  1  0.383300  0.854300  0.106600  1
  F  F697  1  0.137200  0.236800  0.348900  1
  F  F698  1  0.862800  0.763200  0.651100  1
  F  F699  1  0.041000  0.191500  0.391700  1
  F  F700  1  0.959000  0.808500  0.608300  1
  F  F701  1  0.180900  0.232100  0.436900  1
  F  F702  1  0.819100  0.767900  0.563100  1
  F  F703  1  0.045600  0.302600  0.399000  1
  F  F704  1  0.954400  0.697400  0.601000  1
  F  F705  1  0.083000  0.197400  0.476000  1
  F  F706  1  0.917000  0.802600  0.524000  1
  F  F707  1  0.167900  0.133100  0.412000  1
  F  F708  1  0.832100  0.866900  0.588000  1
  F  F709  1  0.161500  0.132700  0.470300  1
  F  F710  1  0.838500  0.867300  0.529700  1
  F  F711  1  0.061500  0.264800  0.451900  1
  F  F712  1  0.938500  0.735200  0.548100  1
  F  F713  1  0.086900  0.275600  0.355900  1
  F  F714  1  0.913100  0.724400  0.644100  1
