# generated using pymatgen
data_FeCoBPH71C77N18OF8
_symmetry_space_group_name_H-M   'P 1'
_cell_length_a   18.54600000
_cell_length_b   20.25000000
_cell_length_c   23.52300000
_cell_angle_alpha   74.44100000
_cell_angle_beta   89.41100000
_cell_angle_gamma   66.24300000
_symmetry_Int_Tables_number   1
_chemical_formula_structural   FeCoBPH71C77N18OF8
_chemical_formula_sum   'Fe4 Co4 B4 P4 H284 C308 N72 O4 F32'
_cell_volume   7741.28037807
_cell_formula_units_Z   4
loop_
 _symmetry_equiv_pos_site_id
 _symmetry_equiv_pos_as_xyz
  1  'x, y, z'
loop_
 _atom_site_type_symbol
 _atom_site_label
 _atom_site_symmetry_multiplicity
 _atom_site_fract_x
 _atom_site_fract_y
 _atom_site_fract_z
 _atom_site_occupancy
  Fe  Fe1  1  0.647430  0.808030  0.044280  1.0
  Fe  Fe2  1  0.352570  0.191970  0.955720  1.0
  Fe  Fe3  1  0.976330  0.184200  0.453340  1.0
  Fe  Fe4  1  0.023670  0.815800  0.546660  1.0
  Co  Co5  1  0.602300  0.046820  0.104450  1.0
  Co  Co6  1  0.397700  0.953180  0.895550  1.0
  Co  Co7  1  0.860610  0.045360  0.602240  1.0
  Co  Co8  1  0.139390  0.954640  0.397760  1.0
  B  B9  1  0.698000  0.661700  0.146000  1.0
  B  B10  1  0.302000  0.338300  0.854000  1.0
  B  B11  1  0.902000  0.331900  0.350300  1.0
  B  B12  1  0.098000  0.668100  0.649700  1.0
  P  P13  1  0.392700  0.293400  0.582310  1
  P  P14  1  0.607300  0.706600  0.417690  1
  P  P15  1  0.900300  0.280990  0.087540  1
  P  P16  1  0.099700  0.719010  0.912460  1
  H  H17  1  0.872800  0.112100  0.811400  1
  H  H18  1  0.127200  0.887900  0.188600  1
  H  H19  1  0.763000  0.087000  0.804000  1
  H  H20  1  0.237000  0.913000  0.196000  1
  H  H21  1  0.875900  0.883200  0.917100  1
  H  H22  1  0.124100  0.116800  0.082900  1
  H  H23  1  0.986600  0.907000  0.926000  1
  H  H24  1  0.013400  0.093000  0.074000  1
  H  H25  1  0.734900  0.950400  0.885300  1
  H  H26  1  0.265100  0.049600  0.114700  1
  H  H27  1  0.467900  0.918500  0.693300  1
  H  H28  1  0.532100  0.081500  0.306700  1
  H  H29  1  0.337700  0.939300  0.702900  1
  H  H30  1  0.662300  0.060700  0.297100  1
  H  H31  1  0.266100  0.130300  0.570400  1
  H  H32  1  0.733900  0.869700  0.429600  1
  H  H33  1  0.397900  0.110000  0.563000  1
  H  H34  1  0.602100  0.890000  0.437000  1
  H  H35  1  0.186200  0.074700  0.613900  1
  H  H36  1  0.813800  0.925300  0.386100  1
  H  H37  1  0.076300  0.433600  0.883200  1
  H  H38  1  0.923700  0.566400  0.116800  1
  H  H39  1  0.138800  0.314200  0.055100  1
  H  H40  1  0.861200  0.685800  0.944900  1
  H  H41  1  0.092700  0.534800  0.004000  1
  H  H42  1  0.907300  0.465200  0.996000  1
  H  H43  1  0.068500  0.540800  0.906800  1
  H  H44  1  0.931500  0.459200  0.093200  1
  H  H45  1  0.109500  0.322000  0.957700  1
  H  H46  1  0.890500  0.678000  0.042300  1
  H  H47  1  0.376300  0.185000  0.383100  1
  H  H48  1  0.623700  0.815000  0.616900  1
  H  H49  1  0.319600  0.254000  0.448300  1
  H  H50  1  0.680400  0.746000  0.551700  1
  H  H51  1  0.249500  0.365200  0.245100  1
  H  H52  1  0.750500  0.634800  0.754900  1
  H  H53  1  0.188800  0.432000  0.311900  1
  H  H54  1  0.811200  0.568000  0.688100  1
  H  H55  1  0.233600  0.379200  0.412500  1
  H  H56  1  0.766400  0.620800  0.587500  1
  H  H57  1  0.937600  0.397400  0.900600  1
  H  H58  1  0.062400  0.602600  0.099400  1
  H  H59  1  0.962600  0.199700  0.879100  1
  H  H60  1  0.037400  0.800300  0.120900  1
  H  H61  1  0.961800  0.272100  0.940700  1
  H  H62  1  0.038200  0.727900  0.059300  1
  H  H63  1  0.917100  0.379200  0.736500  1
  H  H64  1  0.082900  0.620800  0.263500  1
  H  H65  1  0.923400  0.448800  0.799100  1
  H  H66  1  0.076600  0.551200  0.200900  1
  H  H67  1  0.002700  0.426200  0.396400  1
  H  H68  1  0.997300  0.573800  0.603600  1
  H  H69  1  0.126900  0.490200  0.492600  1
  H  H70  1  0.873100  0.509800  0.507400  1
  H  H71  1  0.164500  0.375700  0.565800  1
  H  H72  1  0.835500  0.624300  0.434200  1
  H  H73  1  0.042300  0.313600  0.466800  1
  H  H74  1  0.957700  0.686400  0.533200  1
  H  H75  1  0.123600  0.285200  0.551100  1
  H  H76  1  0.876400  0.714800  0.448900  1
  H  H77  1  0.636400  0.208700  0.931500  1
  H  H78  1  0.363600  0.791300  0.068500  1
  H  H79  1  0.471100  0.463600  0.873000  1
  H  H80  1  0.528900  0.536400  0.127000  1
  H  H81  1  0.449800  0.382600  0.956000  1
  H  H82  1  0.550200  0.617400  0.044000  1
  H  H83  1  0.578000  0.417200  0.821700  1
  H  H84  1  0.422000  0.582800  0.178300  1
  H  H85  1  0.530300  0.255400  0.981900  1
  H  H86  1  0.469700  0.744600  0.018100  1
  H  H87  1  0.543400  0.566100  0.923500  1
  H  H88  1  0.456600  0.433900  0.076500  1
  H  H89  1  0.743300  0.374800  0.966000  1
  H  H90  1  0.256700  0.625200  0.034000  1
  H  H91  1  0.784700  0.414600  0.874700  1
  H  H92  1  0.215300  0.585400  0.125300  1
  H  H93  1  0.595000  0.614000  0.841000  1
  H  H94  1  0.405000  0.386000  0.159000  1
  H  H95  1  0.710600  0.534500  0.812800  1
  H  H96  1  0.289400  0.465500  0.187200  1
  H  H97  1  0.254500  0.604800  0.279500  1
  H  H98  1  0.745500  0.395200  0.720500  1
  H  H99  1  0.330500  0.492100  0.451000  1
  H  H100  1  0.669500  0.507900  0.549000  1
  H  H101  1  0.353400  0.507200  0.253100  1
  H  H102  1  0.646600  0.492800  0.746900  1
  H  H103  1  0.409800  0.383600  0.424800  1
  H  H104  1  0.590200  0.616400  0.575200  1
  H  H105  1  0.232500  0.590000  0.379000  1
  H  H106  1  0.767500  0.410000  0.621000  1
  H  H107  1  0.743100  0.256100  0.453600  1
  H  H108  1  0.256900  0.743900  0.546400  1
  H  H109  1  0.666400  0.315000  0.360300  1
  H  H110  1  0.333600  0.685000  0.639700  1
  H  H111  1  0.560400  0.506600  0.407800  1
  H  H112  1  0.439600  0.493400  0.592200  1
  H  H113  1  0.679100  0.306500  0.529100  1
  H  H114  1  0.320900  0.693500  0.470900  1
  H  H115  1  0.624300  0.438900  0.505200  1
  H  H116  1  0.375700  0.561100  0.494800  1
  H  H117  1  0.714100  0.614700  0.178400  1.0
  H  H118  1  0.285900  0.385300  0.821600  1.0
  H  H119  1  0.520100  0.145400  0.189500  1.0
  H  H120  1  0.479900  0.854600  0.810500  1.0
  H  H121  1  0.530400  0.237400  0.223700  1.0
  H  H122  1  0.469600  0.762600  0.776300  1.0
  H  H123  1  0.691700  0.246100  0.112900  1.0
  H  H124  1  0.308300  0.753900  0.887100  1.0
  H  H125  1  0.769000  0.191500  0.053700  1.0
  H  H126  1  0.231000  0.808500  0.946300  1.0
  H  H127  1  0.806300  0.046200  0.958100  1.0
  H  H128  1  0.193700  0.953800  0.041900  1.0
  H  H129  1  0.711100  0.014700  0.002500  1.0
  H  H130  1  0.288900  0.985300  0.997500  1.0
  H  H131  1  0.563700  0.356000  0.187100  1.0
  H  H132  1  0.436300  0.644000  0.812900  1.0
  H  H133  1  0.649500  0.335600  0.168100  1.0
  H  H134  1  0.350500  0.664400  0.831900  1.0
  H  H135  1  0.637300  0.298200  0.232800  1.0
  H  H136  1  0.362700  0.701800  0.767200  1.0
  H  H137  1  0.860600  0.188900  0.981200  1.0
  H  H138  1  0.139400  0.811100  0.018800  1.0
  H  H139  1  0.850500  0.158600  0.928500  1.0
  H  H140  1  0.149500  0.841400  0.071500  1.0
  H  H141  1  0.913400  0.105200  0.983200  1.0
  H  H142  1  0.086600  0.894800  0.016800  1.0
  H  H143  1  0.428500  0.086300  0.139200  1.0
  H  H144  1  0.571500  0.913700  0.860800  1.0
  H  H145  1  0.363100  0.031700  0.204600  1.0
  H  H146  1  0.636900  0.968300  0.795400  1.0
  H  H147  1  0.569800  0.866700  0.281600  1.0
  H  H148  1  0.430200  0.133300  0.718400  1.0
  H  H149  1  0.697000  0.833200  0.290700  1.0
  H  H150  1  0.303000  0.166800  0.709300  1.0
  H  H151  1  0.878000  0.875200  0.220700  1.0
  H  H152  1  0.122000  0.124800  0.779300  1.0
  H  H153  1  0.786800  0.973300  0.147500  1.0
  H  H154  1  0.213200  0.026700  0.852500  1.0
  H  H155  1  0.861000  0.793800  0.345400  1.0
  H  H156  1  0.139000  0.206200  0.654600  1.0
  H  H157  1  0.905900  0.755700  0.298000  1.0
  H  H158  1  0.094100  0.244300  0.702000  1.0
  H  H159  1  0.835500  0.738200  0.324600  1.0
  H  H160  1  0.164500  0.261800  0.675400  1.0
  H  H161  1  0.414500  0.910700  0.328400  1.0
  H  H162  1  0.585500  0.089300  0.671600  1.0
  H  H163  1  0.440700  0.848300  0.295500  1.0
  H  H164  1  0.559300  0.151700  0.704500  1.0
  H  H165  1  0.360600  0.919900  0.273400  1.0
  H  H166  1  0.639400  0.080100  0.726600  1.0
  H  H167  1  0.683400  0.753300  0.916800  1.0
  H  H168  1  0.316600  0.246700  0.083200  1.0
  H  H169  1  0.597700  0.756000  0.918200  1.0
  H  H170  1  0.402300  0.244000  0.081800  1.0
  H  H171  1  0.665900  0.690300  0.901000  1.0
  H  H172  1  0.334100  0.309700  0.099000  1.0
  H  H173  1  0.703100  0.568100  0.989400  1.0
  H  H174  1  0.296900  0.431900  0.010600  1.0
  H  H175  1  0.725400  0.474800  0.099800  1.0
  H  H176  1  0.274600  0.525200  0.900200  1.0
  H  H177  1  0.703700  0.514900  0.150000  1.0
  H  H178  1  0.296300  0.485100  0.850000  1.0
  H  H179  1  0.789500  0.490000  0.130400  1.0
  H  H180  1  0.210500  0.510000  0.869600  1.0
  H  H181  1  0.863900  0.846200  0.089000  1.0
  H  H182  1  0.136100  0.153800  0.911000  1.0
  H  H183  1  0.774100  0.887600  0.063600  1.0
  H  H184  1  0.225900  0.112400  0.936400  1.0
  H  H185  1  0.834500  0.830300  0.033900  1.0
  H  H186  1  0.165500  0.169700  0.966100  1.0
  H  H187  1  0.900600  0.726100  0.177900  1.0
  H  H188  1  0.099400  0.273900  0.822100  1.0
  H  H189  1  0.901700  0.595700  0.250300  1.0
  H  H190  1  0.098300  0.404300  0.749700  1.0
  H  H191  1  0.841100  0.569500  0.227900  1.0
  H  H192  1  0.158900  0.430500  0.772100  1.0
  H  H193  1  0.815400  0.623000  0.268800  1.0
  H  H194  1  0.184600  0.377000  0.731200  1.0
  H  H195  1  0.433800  0.904500  0.057400  1.0
  H  H196  1  0.566200  0.095500  0.942600  1.0
  H  H197  1  0.485800  0.937400  0.082300  1.0
  H  H198  1  0.514200  0.062600  0.917700  1.0
  H  H199  1  0.416800  0.926300  0.116800  1.0
  H  H200  1  0.583200  0.073700  0.883200  1.0
  H  H201  1  0.456400  0.797300  0.199800  1.0
  H  H202  1  0.543600  0.202700  0.800200  1.0
  H  H203  1  0.552900  0.660400  0.277000  1.0
  H  H204  1  0.447100  0.339600  0.723000  1.0
  H  H205  1  0.639900  0.626500  0.260700  1.0
  H  H206  1  0.360100  0.373500  0.739300  1.0
  H  H207  1  0.574100  0.610500  0.233400  1.0
  H  H208  1  0.425900  0.389500  0.766600  1.0
  H  H209  1  0.878300  0.379100  0.318100  1.0
  H  H210  1  0.121700  0.620900  0.681900  1.0
  H  H211  1  0.731800  0.985800  0.635200  1.0
  H  H212  1  0.268200  0.014200  0.364800  1.0
  H  H213  1  0.722800  0.891300  0.711000  1.0
  H  H214  1  0.277200  0.108700  0.289000  1.0
  H  H215  1  0.936600  0.845000  0.784700  1.0
  H  H216  1  0.063400  0.155000  0.215300  1.0
  H  H217  1  0.032400  0.884200  0.780200  1.0
  H  H218  1  0.967600  0.115800  0.219800  1.0
  H  H219  1  0.099700  0.044200  0.695300  1.0
  H  H220  1  0.900300  0.955800  0.304700  1.0
  H  H221  1  0.994100  0.090600  0.623200  1.0
  H  H222  1  0.005900  0.909400  0.376800  1.0
  H  H223  1  0.791700  0.812600  0.833100  1.0
  H  H224  1  0.208300  0.187400  0.166900  1.0
  H  H225  1  0.876200  0.758000  0.823600  1.0
  H  H226  1  0.123800  0.242000  0.176400  1.0
  H  H227  1  0.800900  0.766500  0.787500  1.0
  H  H228  1  0.199100  0.233500  0.212500  1.0
  H  H229  1  0.166800  0.868300  0.805400  1.0
  H  H230  1  0.833200  0.131700  0.194600  1.0
  H  H231  1  0.142400  0.944300  0.821300  1.0
  H  H232  1  0.857600  0.055700  0.178700  1.0
  H  H233  1  0.196700  0.928500  0.770600  1.0
  H  H234  1  0.803300  0.071500  0.229400  1.0
  H  H235  1  0.804700  0.004200  0.500800  1.0
  H  H236  1  0.195300  0.995800  0.499200  1.0
  H  H237  1  0.684200  0.035500  0.451100  1.0
  H  H238  1  0.315800  0.964500  0.548900  1.0
  H  H239  1  0.581900  0.184400  0.540700  1.0
  H  H240  1  0.418100  0.815600  0.459300  1.0
  H  H241  1  0.604300  0.237900  0.605300  1.0
  H  H242  1  0.395700  0.762100  0.394700  1.0
  H  H243  1  0.771000  0.234000  0.714800  1.0
  H  H244  1  0.229000  0.766000  0.285200  1.0
  H  H245  1  0.861500  0.137200  0.686700  1.0
  H  H246  1  0.138500  0.862800  0.313300  1.0
  H  H247  1  0.545600  0.128000  0.419700  1.0
  H  H248  1  0.454400  0.872000  0.580300  1.0
  H  H249  1  0.504800  0.180900  0.459400  1.0
  H  H250  1  0.495200  0.819100  0.540600  1.0
  H  H251  1  0.520900  0.095400  0.481200  1.0
  H  H252  1  0.479100  0.904600  0.518800  1.0
  H  H253  1  0.571300  0.342600  0.649300  1.0
  H  H254  1  0.428700  0.657400  0.350700  1.0
  H  H255  1  0.635600  0.344700  0.690700  1.0
  H  H256  1  0.364400  0.655300  0.309300  1.0
  H  H257  1  0.590800  0.293700  0.715900  1.0
  H  H258  1  0.409200  0.706300  0.284100  1.0
  H  H259  1  0.173700  0.111400  0.434700  1.0
  H  H260  1  0.826300  0.888600  0.565300  1.0
  H  H261  1  0.182400  0.169600  0.463600  1.0
  H  H262  1  0.817600  0.830400  0.536400  1.0
  H  H263  1  0.227300  0.153000  0.408800  1.0
  H  H264  1  0.772700  0.847000  0.591200  1.0
  H  H265  1  0.159900  0.273500  0.320300  1.0
  H  H266  1  0.840100  0.726500  0.679700  1.0
  H  H267  1  0.050100  0.395300  0.239400  1.0
  H  H268  1  0.949900  0.604700  0.760600  1.0
  H  H269  1  0.976400  0.432800  0.271300  1.0
  H  H270  1  0.023600  0.567200  0.728700  1.0
  H  H271  1  0.973900  0.381000  0.233000  1.0
  H  H272  1  0.026100  0.619000  0.767000  1.0
  H  H273  1  0.957300  0.256600  0.581500  1.0
  H  H274  1  0.042700  0.743400  0.418500  1.0
  H  H275  1  0.887900  0.232500  0.575500  1.0
  H  H276  1  0.112100  0.767500  0.424500  1.0
  H  H277  1  0.871800  0.306100  0.593300  1.0
  H  H278  1  0.128200  0.693900  0.406700  1.0
  H  H279  1  0.812700  0.428400  0.505700  1.0
  H  H280  1  0.187300  0.571600  0.494300  1.0
  H  H281  1  0.755400  0.522100  0.393100  1.0
  H  H282  1  0.244600  0.477900  0.606900  1.0
  H  H283  1  0.764900  0.478500  0.345600  1.0
  H  H284  1  0.235100  0.521500  0.654400  1.0
  H  H285  1  0.830700  0.504000  0.358900  1.0
  H  H286  1  0.169300  0.496000  0.641100  1.0
  H  H287  1  0.838100  0.076100  0.382300  1.0
  H  H288  1  0.161900  0.923900  0.617700  1.0
  H  H289  1  0.849700  0.096300  0.440400  1.0
  H  H290  1  0.150300  0.903700  0.559600  1.0
  H  H291  1  0.923500  0.057300  0.409100  1.0
  H  H292  1  0.076500  0.942700  0.590900  1.0
  H  H293  1  0.789500  0.195800  0.289200  1.0
  H  H294  1  0.210500  0.804200  0.710800  1.0
  H  H295  1  0.782800  0.328500  0.208000  1.0
  H  H296  1  0.217200  0.671500  0.792000  1.0
  H  H297  1  0.831200  0.365600  0.231700  1.0
  H  H298  1  0.168800  0.634400  0.768300  1.0
  H  H299  1  0.744800  0.381500  0.248100  1.0
  H  H300  1  0.255200  0.618500  0.751900  1.0
  C  C301  1  0.007700  0.029000  0.875700  1
  C  C302  1  0.992300  0.971000  0.124300  1
  C  C303  1  0.939600  0.011600  0.870500  1
  C  C304  1  0.060400  0.988400  0.129500  1
  C  C305  1  0.873300  0.066100  0.833000  1
  C  C306  1  0.126700  0.933900  0.167000  1
  C  C307  1  0.808500  0.050700  0.828400  1
  C  C308  1  0.191500  0.949300  0.171600  1
  C  C309  1  0.810300  0.981200  0.860200  1
  C  C310  1  0.189700  0.018800  0.139800  1
  C  C311  1  0.875200  0.929400  0.895800  1
  C  C312  1  0.124800  0.070600  0.104200  1
  C  C313  1  0.941400  0.943500  0.901400  1
  C  C314  1  0.058600  0.056500  0.098600  1
  C  C315  1  0.526200  0.996800  0.618000  1
  C  C316  1  0.473800  0.003200  0.382000  1
  C  C317  1  0.445700  0.010900  0.625600  1
  C  C318  1  0.554300  0.989100  0.374400  1
  C  C319  1  0.427600  0.961000  0.668300  1
  C  C320  1  0.572400  0.039000  0.331700  1
  C  C321  1  0.349900  0.973700  0.674100  1
  C  C322  1  0.650100  0.026300  0.325900  1
  C  C323  1  0.291200  0.035100  0.638600  1
  C  C324  1  0.708800  0.964900  0.361400  1
  C  C325  1  0.306800  0.087900  0.595200  1
  C  C326  1  0.693200  0.912100  0.404800  1
  C  C327  1  0.385500  0.074700  0.590600  1
  C  C328  1  0.614500  0.925300  0.409400  1
  C  C329  1  0.117700  0.424400  0.039400  1
  C  C330  1  0.882300  0.575600  0.960600  1
  C  C331  1  0.086700  0.431500  0.922400  1
  C  C332  1  0.913300  0.568500  0.077600  1
  C  C333  1  0.123800  0.359800  0.025600  1
  C  C334  1  0.876200  0.640200  0.974400  1
  C  C335  1  0.132800  0.421900  0.099800  1
  C  C336  1  0.867200  0.578100  0.900200  1
  C  C337  1  0.096700  0.491900  0.994500  1
  C  C338  1  0.903300  0.508100  0.005500  1
  C  C339  1  0.081800  0.495700  0.936600  1
  C  C340  1  0.918200  0.504300  0.063400  1
  C  C341  1  0.107000  0.364500  0.967100  1
  C  C342  1  0.893000  0.635500  0.032900  1
  C  C343  1  0.321200  0.269600  0.307400  1
  C  C344  1  0.678800  0.730400  0.692600  1
  C  C345  1  0.340700  0.235200  0.368700  1
  C  C346  1  0.659300  0.764800  0.631300  1
  C  C347  1  0.357200  0.224800  0.268500  1
  C  C348  1  0.642800  0.775200  0.731500  1
  C  C349  1  0.306600  0.276400  0.407600  1
  C  C350  1  0.693400  0.723600  0.592400  1
  C  C351  1  0.264000  0.343100  0.285800  1
  C  C352  1  0.736000  0.656900  0.714200  1
  C  C353  1  0.228600  0.383500  0.325700  1
  C  C354  1  0.771400  0.616500  0.674300  1
  C  C355  1  0.253300  0.350700  0.386200  1
  C  C356  1  0.746700  0.649300  0.613800  1
  C  C357  1  0.939700  0.282400  0.801500  1
  C  C358  1  0.060300  0.717600  0.198500  1
  C  C359  1  0.938600  0.237600  0.763700  1
  C  C360  1  0.061400  0.762400  0.236300  1
  C  C361  1  0.939500  0.368100  0.875700  1
  C  C362  1  0.060500  0.631900  0.124300  1
  C  C363  1  0.953300  0.250000  0.862900  1
  C  C364  1  0.046700  0.750000  0.137100  1
  C  C365  1  0.953000  0.293400  0.899700  1
  C  C366  1  0.047000  0.706600  0.100300  1
  C  C367  1  0.927000  0.357300  0.777400  1
  C  C368  1  0.073000  0.642700  0.222600  1
  C  C369  1  0.929100  0.399500  0.815000  1
  C  C370  1  0.070900  0.600500  0.185000  1
  C  C371  1  0.036200  0.415800  0.429900  1
  C  C372  1  0.963800  0.584200  0.570100  1
  C  C373  1  0.062300  0.469000  0.436600  1
  C  C374  1  0.937700  0.531000  0.563400  1
  C  C375  1  0.110200  0.454300  0.487700  1
  C  C376  1  0.889800  0.545700  0.512300  1
  C  C377  1  0.133000  0.385800  0.531300  1
  C  C378  1  0.867000  0.614200  0.468700  1
  C  C379  1  0.036400  0.539200  0.390200  1
  C  C380  1  0.963600  0.460800  0.609800  1
  C  C381  1  0.059400  0.349100  0.472100  1
  C  C382  1  0.940600  0.650900  0.527900  1
  C  C383  1  0.107800  0.331900  0.522800  1
  C  C384  1  0.892200  0.668100  0.477200  1
  C  C385  1  0.604100  0.260100  0.920400  1
  C  C386  1  0.395900  0.739900  0.079600  1
  C  C387  1  0.620300  0.308700  0.873300  1
  C  C388  1  0.379700  0.691300  0.126700  1
  C  C389  1  0.505100  0.412700  0.885000  1
  C  C390  1  0.494900  0.587300  0.115000  1
  C  C391  1  0.491600  0.364000  0.934300  1
  C  C392  1  0.508400  0.636000  0.065700  1
  C  C393  1  0.569000  0.385100  0.854600  1
  C  C394  1  0.431000  0.614900  0.145400  1
  C  C395  1  0.540700  0.288100  0.950200  1
  C  C396  1  0.459300  0.711900  0.049800  1
  C  C397  1  0.689700  0.280200  0.844300  1
  C  C398  1  0.310300  0.719800  0.155700  1
  C  C399  1  0.640600  0.467000  0.954500  1
  C  C400  1  0.359400  0.533000  0.045500  1
  C  C401  1  0.593700  0.537700  0.915200  1
  C  C402  1  0.406300  0.462300  0.084800  1
  C  C403  1  0.615300  0.444100  0.011200  1
  C  C404  1  0.384700  0.555900  0.988800  1
  C  C405  1  0.712300  0.421600  0.939800  1
  C  C406  1  0.287700  0.578400  0.060200  1
  C  C407  1  0.737900  0.446000  0.885900  1
  C  C408  1  0.262100  0.554000  0.114100  1
  C  C409  1  0.622500  0.564600  0.864600  1
  C  C410  1  0.377500  0.435400  0.135400  1
  C  C411  1  0.693200  0.517600  0.848700  1
  C  C412  1  0.306800  0.482400  0.151300  1
  C  C413  1  0.390300  0.434200  0.335800  1
  C  C414  1  0.609700  0.565800  0.664200  1
  C  C415  1  0.286100  0.560800  0.308600  1
  C  C416  1  0.713900  0.439200  0.691400  1
  C  C417  1  0.329300  0.491600  0.411600  1
  C  C418  1  0.670700  0.508400  0.588400  1
  C  C419  1  0.344600  0.501700  0.292800  1
  C  C420  1  0.655400  0.498300  0.707200  1
  C  C421  1  0.381300  0.428700  0.395700  1
  C  C422  1  0.618700  0.571300  0.604300  1
  C  C423  1  0.275400  0.553600  0.368200  1
  C  C424  1  0.724600  0.446400  0.631800  1
  C  C425  1  0.442900  0.369400  0.318200  1
  C  C426  1  0.557100  0.630600  0.681800  1
  C  C427  1  0.699600  0.302400  0.445600  1
  C  C428  1  0.300400  0.697600  0.554400  1
  C  C429  1  0.613200  0.418600  0.373900  1
  C  C430  1  0.386800  0.581400  0.626100  1
  C  C431  1  0.660900  0.340700  0.388500  1
  C  C432  1  0.339100  0.659300  0.611500  1
  C  C433  1  0.566800  0.456300  0.315900  1
  C  C434  1  0.433200  0.543700  0.684100  1
  C  C435  1  0.594600  0.455800  0.417200  1
  C  C436  1  0.405400  0.544200  0.582800  1
  C  C437  1  0.670800  0.336100  0.489900  1
  C  C438  1  0.329200  0.663900  0.510100  1
  C  C439  1  0.629100  0.414500  0.476100  1
  C  C440  1  0.370900  0.585500  0.523900  1
  C  C441  1  0.626100  0.904800  0.056500  1.0
  C  C442  1  0.373900  0.095200  0.943500  1.0
  C  C443  1  0.553800  0.853700  0.988500  1.0
  C  C444  1  0.446200  0.146300  0.011500  1.0
  C  C445  1  0.700500  0.834900  0.978300  1.0
  C  C446  1  0.299500  0.165100  0.021700  1.0
  C  C447  1  0.556700  0.164500  0.174900  1.0
  C  C448  1  0.443300  0.835500  0.825100  1.0
  C  C449  1  0.561500  0.221000  0.194800  1.0
  C  C450  1  0.438500  0.779000  0.805200  1.0
  C  C451  1  0.611700  0.252600  0.172200  1.0
  C  C452  1  0.388300  0.747400  0.827800  1.0
  C  C453  1  0.657700  0.224900  0.130000  1.0
  C  C454  1  0.342300  0.775100  0.870000  1.0
  C  C455  1  0.653700  0.166700  0.113600  1.0
  C  C456  1  0.346300  0.833300  0.886400  1.0
  C  C457  1  0.700900  0.133700  0.068800  1.0
  C  C458  1  0.299100  0.866300  0.931200  1.0
  C  C459  1  0.758400  0.155100  0.043000  1.0
  C  C460  1  0.241600  0.844900  0.957000  1.0
  C  C461  1  0.800800  0.122400  0.000700  1.0
  C  C462  1  0.199200  0.877600  0.999300  1.0
  C  C463  1  0.780500  0.069100  0.986300  1.0
  C  C464  1  0.219500  0.930900  0.013700  1.0
  C  C465  1  0.723200  0.050400  0.013100  1.0
  C  C466  1  0.276800  0.949600  0.986900  1.0
  C  C467  1  0.615900  0.316500  0.191800  1.0
  C  C468  1  0.384100  0.683500  0.808200  1.0
  C  C469  1  0.861800  0.145900  0.970700  1.0
  C  C470  1  0.138200  0.854100  0.029300  1.0
  C  C471  1  0.457500  0.041300  0.168200  1.0
  C  C472  1  0.542500  0.958700  0.831800  1.0
  C  C473  1  0.418100  0.008200  0.207100  1.0
  C  C474  1  0.581900  0.991800  0.792900  1.0
  C  C475  1  0.457600  0.942200  0.249100  1.0
  C  C476  1  0.542400  0.057800  0.750900  1.0
  C  C477  1  0.539900  0.911600  0.252700  1.0
  C  C478  1  0.460100  0.088400  0.747300  1.0
  C  C479  1  0.577300  0.947600  0.213700  1.0
  C  C480  1  0.422700  0.052400  0.786300  1.0
  C  C481  1  0.664500  0.920400  0.216900  1.0
  C  C482  1  0.335500  0.079600  0.783100  1.0
  C  C483  1  0.716500  0.860800  0.261500  1.0
  C  C484  1  0.283500  0.139200  0.738500  1.0
  C  C485  1  0.798500  0.840900  0.263800  1.0
  C  C486  1  0.201500  0.159100  0.736200  1.0
  C  C487  1  0.824400  0.885100  0.220500  1.0
  C  C488  1  0.175600  0.114900  0.779500  1.0
  C  C489  1  0.768600  0.944500  0.176800  1.0
  C  C490  1  0.231400  0.055500  0.823200  1.0
  C  C491  1  0.855300  0.776400  0.312300  1.0
  C  C492  1  0.144700  0.223600  0.687700  1.0
  C  C493  1  0.414300  0.901500  0.290500  1.0
  C  C494  1  0.585700  0.098500  0.709500  1.0
  C  C495  1  0.653300  0.723500  0.925700  1.0
  C  C496  1  0.346700  0.276500  0.074300  1.0
  C  C497  1  0.672800  0.678900  0.988200  1.0
  C  C498  1  0.327200  0.321100  0.011800  1.0
  C  C499  1  0.696800  0.601700  0.011300  1.0
  C  C500  1  0.303200  0.398300  0.988700  1.0
  C  C501  1  0.709300  0.583600  0.071800  1.0
  C  C502  1  0.290700  0.416400  0.928200  1.0
  C  C503  1  0.734200  0.509300  0.117000  1.0
  C  C504  1  0.265800  0.490700  0.883000  1.0
  C  C505  1  0.820900  0.841300  0.070900  1.0
  C  C506  1  0.179100  0.158700  0.929100  1.0
  C  C507  1  0.805800  0.780100  0.110600  1.0
  C  C508  1  0.194200  0.219900  0.889400  1.0
  C  C509  1  0.854400  0.727300  0.161800  1.0
  C  C510  1  0.145600  0.272700  0.838200  1.0
  C  C511  1  0.820300  0.677300  0.183900  1.0
  C  C512  1  0.179700  0.322700  0.816100  1.0
  C  C513  1  0.847000  0.610400  0.237500  1.0
  C  C514  1  0.153000  0.389600  0.762500  1.0
  C  C515  1  0.457500  0.906000  0.092800  1.0
  C  C516  1  0.542500  0.094000  0.907200  1.0
  C  C517  1  0.514100  0.827600  0.127200  1.0
  C  C518  1  0.485900  0.172400  0.872800  1.0
  C  C519  1  0.500700  0.783600  0.179300  1.0
  C  C520  1  0.499300  0.216400  0.820700  1.0
  C  C521  1  0.565800  0.716300  0.194400  1.0
  C  C522  1  0.434200  0.283700  0.805600  1.0
  C  C523  1  0.584900  0.647200  0.246100  1.0
  C  C524  1  0.415100  0.352800  0.753900  1.0
  C  C525  1  0.922100  0.139400  0.507700  1.0
  C  C526  1  0.077900  0.860600  0.492300  1.0
  C  C527  1  0.037800  0.092100  0.438100  1.0
  C  C528  1  0.962200  0.907900  0.561900  1.0
  C  C529  1  0.052300  0.159100  0.518100  1.0
  C  C530  1  0.947700  0.840900  0.481900  1.0
  C  C531  1  0.773200  0.957700  0.665600  1.0
  C  C532  1  0.226800  0.042300  0.334400  1.0
  C  C533  1  0.768200  0.900100  0.711100  1.0
  C  C534  1  0.231800  0.099900  0.288900  1.0
  C  C535  1  0.829500  0.855200  0.756700  1.0
  C  C536  1  0.170500  0.144800  0.243300  1.0
  C  C537  1  0.894300  0.872900  0.755000  1.0
  C  C538  1  0.105700  0.127100  0.245000  1.0
  C  C539  1  0.897200  0.931800  0.709600  1.0
  C  C540  1  0.102800  0.068200  0.290400  1.0
  C  C541  1  0.961600  0.957300  0.707700  1.0
  C  C542  1  0.038400  0.042700  0.292300  1.0
  C  C543  1  0.025500  0.926400  0.748900  1.0
  C  C544  1  0.974500  0.073600  0.251100  1.0
  C  C545  1  0.080700  0.957000  0.744800  1.0
  C  C546  1  0.919300  0.043000  0.255200  1.0
  C  C547  1  0.065800  0.020200  0.698200  1.0
  C  C548  1  0.934200  0.979800  0.301800  1.0
  C  C549  1  0.001500  0.049100  0.655300  1.0
  C  C550  1  0.998500  0.950900  0.344700  1.0
  C  C551  1  0.824100  0.792500  0.804500  1.0
  C  C552  1  0.175900  0.207500  0.195500  1.0
  C  C553  1  0.153300  0.921300  0.789600  1.0
  C  C554  1  0.846700  0.078700  0.210400  1.0
  C  C555  1  0.759300  0.040400  0.509300  1.0
  C  C556  1  0.240700  0.959600  0.490700  1.0
  C  C557  1  0.686900  0.059700  0.479000  1.0
  C  C558  1  0.313100  0.940300  0.521000  1.0
  C  C559  1  0.620800  0.112500  0.489400  1.0
  C  C560  1  0.379200  0.887500  0.510600  1.0
  C  C561  1  0.626800  0.147800  0.532000  1.0
  C  C562  1  0.373200  0.852200  0.468000  1.0
  C  C563  1  0.699900  0.127300  0.560500  1.0
  C  C564  1  0.300100  0.872700  0.439500  1.0
  C  C565  1  0.713800  0.161000  0.605400  1.0
  C  C566  1  0.286200  0.839000  0.394600  1.0
  C  C567  1  0.656600  0.218300  0.621900  1.0
  C  C568  1  0.343400  0.781700  0.378100  1.0
  C  C569  1  0.676700  0.248000  0.664200  1.0
  C  C570  1  0.323300  0.752000  0.335800  1.0
  C  C571  1  0.754900  0.215900  0.687200  1.0
  C  C572  1  0.245100  0.784100  0.312800  1.0
  C  C573  1  0.809100  0.157800  0.670100  1.0
  C  C574  1  0.190900  0.842200  0.329900  1.0
  C  C575  1  0.540800  0.130900  0.459800  1.0
  C  C576  1  0.459200  0.869100  0.540200  1.0
  C  C577  1  0.612600  0.313400  0.681700  1.0
  C  C578  1  0.387400  0.686600  0.318300  1.0
  C  C579  1  0.179600  0.157900  0.427000  1.0
  C  C580  1  0.820400  0.842100  0.573000  1.0
  C  C581  1  0.111400  0.218600  0.387000  1.0
  C  C582  1  0.888600  0.781400  0.613000  1.0
  C  C583  1  0.114300  0.271900  0.336100  1.0
  C  C584  1  0.885700  0.728100  0.663900  1.0
  C  C585  1  0.040100  0.319900  0.314400  1.0
  C  C586  1  0.959900  0.680100  0.685600  1.0
  C  C587  1  0.007000  0.388700  0.259400  1.0
  C  C588  1  0.993000  0.611300  0.740600  1.0
  C  C589  1  0.901700  0.274600  0.569700  1.0
  C  C590  1  0.098300  0.725400  0.430300  1.0
  C  C591  1  0.883300  0.318900  0.505900  1.0
  C  C592  1  0.116700  0.681100  0.494100  1.0
  C  C593  1  0.837200  0.395000  0.483800  1.0
  C  C594  1  0.162800  0.605000  0.516200  1.0
  C  C595  1  0.834700  0.411800  0.423700  1.0
  C  C596  1  0.165300  0.588200  0.576300  1.0
  C  C597  1  0.792600  0.485900  0.376000  1.0
  C  C598  1  0.207400  0.514100  0.624000  1.0
  C  C599  1  0.868900  0.092800  0.402800  1.0
  C  C600  1  0.131100  0.907200  0.597200  1.0
  C  C601  1  0.862000  0.167900  0.366500  1.0
  C  C602  1  0.138000  0.832100  0.633500  1.0
  C  C603  1  0.818500  0.210200  0.311500  1.0
  C  C604  1  0.181500  0.789800  0.688500  1.0
  C  C605  1  0.826200  0.276200  0.296400  1.0
  C  C606  1  0.173800  0.723800  0.703600  1.0
  C  C607  1  0.793200  0.344300  0.240900  1.0
  C  C608  1  0.206800  0.655700  0.759100  1.0
  N  N609  1  0.061300  0.041700  0.883600  1
  N  N610  1  0.938700  0.958300  0.116400  1
  N  N611  1  0.591200  0.985000  0.613700  1
  N  N612  1  0.408800  0.015000  0.386300  1
  N  N613  1  0.147200  0.417200  0.148400  1
  N  N614  1  0.852800  0.582800  0.851600  1
  N  N615  1  0.387400  0.189000  0.237900  1
  N  N616  1  0.612600  0.811000  0.762100  1
  N  N617  1  0.939200  0.200600  0.733800  1
  N  N618  1  0.060800  0.799400  0.266200  1
  N  N619  1  0.038100  0.595900  0.361000  1
  N  N620  1  0.961900  0.404100  0.639000  1
  N  N621  1  0.746300  0.260800  0.821200  1
  N  N622  1  0.253700  0.739200  0.178800  1
  N  N623  1  0.589500  0.415300  0.050600  1
  N  N624  1  0.410500  0.584700  0.949400  1
  N  N625  1  0.490300  0.307600  0.320500  1
  N  N626  1  0.509700  0.692400  0.679500  1
  N  N627  1  0.556200  0.468500  0.264400  1
  N  N628  1  0.443800  0.531500  0.735600  1
  N  N629  1  0.616300  0.960100  0.066500  1.0
  N  N630  1  0.383700  0.039900  0.933500  1.0
  N  N631  1  0.497300  0.881700  0.954300  1.0
  N  N632  1  0.502700  0.118300  0.045700  1.0
  N  N633  1  0.731300  0.854400  0.937400  1.0
  N  N634  1  0.268700  0.145600  0.062600  1.0
  N  N635  1  0.603000  0.136100  0.135400  1.0
  N  N636  1  0.397000  0.863900  0.864600  1.0
  N  N637  1  0.683500  0.081200  0.054100  1.0
  N  N638  1  0.316500  0.918800  0.945900  1.0
  N  N639  1  0.536400  0.010700  0.170500  1.0
  N  N640  1  0.463600  0.989300  0.829500  1.0
  N  N641  1  0.690900  0.963100  0.174000  1.0
  N  N642  1  0.309100  0.036900  0.826000  1.0
  N  N643  1  0.671300  0.707600  0.034500  1.0
  N  N644  1  0.328700  0.292400  0.965500  1.0
  N  N645  1  0.693600  0.647500  0.086500  1.0
  N  N646  1  0.306400  0.352500  0.913500  1.0
  N  N647  1  0.745600  0.761900  0.101500  1.0
  N  N648  1  0.254400  0.238100  0.898500  1.0
  N  N649  1  0.756900  0.697900  0.146700  1.0
  N  N650  1  0.243100  0.302100  0.853300  1.0
  N  N651  1  0.583500  0.788500  0.110800  1.0
  N  N652  1  0.416500  0.211500  0.889200  1.0
  N  N653  1  0.614800  0.720000  0.152700  1.0
  N  N654  1  0.385200  0.280000  0.847300  1.0
  N  N655  1  0.892300  0.111200  0.544100  1.0
  N  N656  1  0.107700  0.888800  0.455900  1.0
  N  N657  1  0.077000  0.037500  0.426900  1.0
  N  N658  1  0.923000  0.962500  0.573100  1.0
  N  N659  1  0.098900  0.140400  0.558700  1.0
  N  N660  1  0.901100  0.859600  0.441300  1.0
  N  N661  1  0.837400  0.973500  0.665000  1.0
  N  N662  1  0.162600  0.026500  0.335000  1.0
  N  N663  1  0.949900  0.017100  0.660300  1.0
  N  N664  1  0.050100  0.982900  0.339700  1.0
  N  N665  1  0.765200  0.073100  0.550600  1.0
  N  N666  1  0.234800  0.926900  0.449400  1.0
  N  N667  1  0.790300  0.129000  0.630300  1.0
  N  N668  1  0.209700  0.871000  0.369700  1.0
  N  N669  1  0.035800  0.233800  0.395400  1.0
  N  N670  1  0.964200  0.766200  0.604600  1.0
  N  N671  1  0.990700  0.298000  0.350800  1.0
  N  N672  1  0.009300  0.702000  0.649200  1.0
  N  N673  1  0.910200  0.288100  0.461700  1.0
  N  N674  1  0.089800  0.711900  0.538300  1.0
  N  N675  1  0.880200  0.347000  0.410700  1.0
  N  N676  1  0.119800  0.653000  0.589300  1.0
  N  N677  1  0.896900  0.206000  0.384900  1.0
  N  N678  1  0.103100  0.794000  0.615100  1.0
  N  N679  1  0.871100  0.275200  0.341000  1.0
  N  N680  1  0.128900  0.724800  0.659000  1.0
  O  O681  1  0.746000  0.968900  0.852800  1
  O  O682  1  0.254000  0.031100  0.147200  1
  O  O683  1  0.214500  0.044300  0.644100  1
  O  O684  1  0.785500  0.955700  0.355900  1
  F  F685  1  0.450700  0.316000  0.607000  1
  F  F686  1  0.549300  0.684000  0.393000  1
  F  F687  1  0.340800  0.278200  0.626500  1
  F  F688  1  0.659200  0.721800  0.373500  1
  F  F689  1  0.448100  0.207800  0.605200  1
  F  F690  1  0.551900  0.792200  0.394800  1
  F  F691  1  0.444900  0.311500  0.536200  1
  F  F692  1  0.555100  0.688500  0.463800  1
  F  F693  1  0.343000  0.381500  0.567000  1
  F  F694  1  0.657000  0.618500  0.433000  1
  F  F695  1  0.344100  0.301800  0.533200  1
  F  F696  1  0.655900  0.698200  0.466800  1
  F  F697  1  0.933200  0.232900  0.149000  1
  F  F698  1  0.066800  0.767100  0.851000  1
  F  F699  1  0.896900  0.341200  0.114300  1
  F  F700  1  0.103100  0.658800  0.885700  1
  F  F701  1  0.987100  0.250200  0.081500  1
  F  F702  1  0.012900  0.749800  0.918500  1
  F  F703  1  0.813500  0.298700  0.104800  1
  F  F704  1  0.186500  0.701300  0.895200  1
  F  F705  1  0.889200  0.344900  0.031800  1
  F  F706  1  0.110800  0.655100  0.968200  1
  F  F707  1  0.909900  0.227400  0.051100  1
  F  F708  1  0.090100  0.772600  0.948900  1
  F  F709  1  0.446800  0.220100  0.570000  1
  F  F710  1  0.553200  0.779900  0.430000  1
  F  F711  1  0.448400  0.269500  0.641500  1
  F  F712  1  0.551600  0.730500  0.358500  1
  F  F713  1  0.851200  0.274700  0.035200  1
  F  F714  1  0.148800  0.725300  0.964800  1
  F  F715  1  0.901800  0.199100  0.110700  1
  F  F716  1  0.098200  0.800900  0.889300  1
