# generated using pymatgen
data_Fe2Ru8C221S8N8(O2F)24
_symmetry_space_group_name_H-M   'P 1'
_cell_length_a   17.63180000
_cell_length_b   25.93970000
_cell_length_c   25.95960000
_cell_angle_alpha   90.01800000
_cell_angle_beta   90.01100000
_cell_angle_gamma   90.04400000
_symmetry_Int_Tables_number   1
_chemical_formula_structural   Fe2Ru8C221S8N8(O2F)24
_chemical_formula_sum   'Fe4 Ru16 C442 S16 N16 O96 F48'
_cell_volume   11872.97186817
_cell_formula_units_Z   2
loop_
 _symmetry_equiv_pos_site_id
 _symmetry_equiv_pos_as_xyz
  1  'x, y, z'
loop_
 _atom_site_type_symbol
 _atom_site_label
 _atom_site_symmetry_multiplicity
 _atom_site_fract_x
 _atom_site_fract_y
 _atom_site_fract_z
 _atom_site_occupancy
  Fe  Fe1  1  0.551700  0.749800  0.250210  1
  Fe  Fe2  1  0.448300  0.250200  0.749790  1
  Fe  Fe3  1  0.948400  0.749960  0.250100  1
  Fe  Fe4  1  0.051600  0.250040  0.749900  1
  Ru  Ru5  1  0.450750  0.881360  0.502460  1
  Ru  Ru6  1  0.549250  0.118640  0.497540  1
  Ru  Ru7  1  0.048960  0.497420  0.118690  1
  Ru  Ru8  1  0.951040  0.502580  0.881310  1
  Ru  Ru9  1  0.450890  0.618680  0.997430  1
  Ru  Ru10  1  0.549110  0.381320  0.002570  1
  Ru  Ru11  1  0.049090  0.002680  0.381370  1
  Ru  Ru12  1  0.950910  0.997320  0.618630  1
  Ru  Ru13  1  0.451070  0.002680  0.118710  1
  Ru  Ru14  1  0.548930  0.997320  0.881290  1
  Ru  Ru15  1  0.049200  0.881270  0.997420  1
  Ru  Ru16  1  0.950800  0.118730  0.002580  1
  Ru  Ru17  1  0.049010  0.618680  0.502480  1
  Ru  Ru18  1  0.950990  0.381320  0.497520  1
  Ru  Ru19  1  0.450820  0.497340  0.381360  1
  Ru  Ru20  1  0.549180  0.502660  0.618640  1
  C  C21  1  0.659000  0.833100  0.009700  1
  C  C22  1  0.341000  0.166900  0.990300  1
  C  C23  1  0.456100  0.713400  0.268500  1
  C  C24  1  0.543900  0.286600  0.731500  1
  C  C25  1  0.453100  0.766400  0.285200  1
  C  C26  1  0.546900  0.233600  0.714800  1
  C  C27  1  0.453500  0.784900  0.232200  1
  C  C28  1  0.546500  0.215100  0.767800  1
  C  C29  1  0.447800  0.793200  0.336000  1
  C  C30  1  0.552200  0.206800  0.664000  1
  C  C31  1  0.450100  0.664800  0.294100  1
  C  C32  1  0.549900  0.335200  0.705900  1
  C  C33  1  0.929900  0.483400  0.094900  1
  C  C34  1  0.070100  0.516600  0.905100  1
  C  C35  1  0.206200  0.006800  0.127000  1
  C  C36  1  0.793800  0.993200  0.873000  1
  C  C37  1  0.050400  0.706200  0.335400  1
  C  C38  1  0.949600  0.293800  0.664600  1
  C  C39  1  0.298800  0.625300  0.506000  1
  C  C40  1  0.701200  0.374700  0.494000  1
  C  C41  1  0.050000  0.786200  0.268000  1
  C  C42  1  0.950000  0.213800  0.732000  1
  C  C43  1  0.085700  0.769500  0.120900  1
  C  C44  1  0.914300  0.230500  0.879100  1
  C  C45  1  0.203800  0.624700  0.993900  1
  C  C46  1  0.796200  0.375300  0.006100  1
  C  C47  1  0.988100  0.454000  0.176100  1
  C  C48  1  0.011900  0.546000  0.823900  1
  C  C49  1  0.048400  0.768800  0.213300  1
  C  C50  1  0.951600  0.231200  0.786700  1
  C  C51  1  0.086800  0.574400  0.205000  1
  C  C52  1  0.913200  0.425600  0.795000  1
  C  C53  1  0.365300  0.603900  0.490500  1
  C  C54  1  0.634700  0.396100  0.509500  1
  C  C55  1  0.468300  0.849600  0.578200  1
  C  C56  1  0.531700  0.150400  0.421800  1
  C  C57  1  0.036100  0.417800  0.092900  1
  C  C58  1  0.963900  0.582200  0.907100  1
  C  C59  1  0.048400  0.714700  0.230600  1
  C  C60  1  0.951600  0.285300  0.769400  1
  C  C61  1  0.219800  0.951400  0.432900  1
  C  C62  1  0.780200  0.048600  0.567100  1
  C  C63  1  0.136600  0.510900  0.397200  1
  C  C64  1  0.863400  0.489100  0.602800  1
  C  C65  1  0.298000  0.873700  0.993800  1
  C  C66  1  0.702000  0.126300  0.006200  1
  C  C67  1  0.470000  0.078900  0.150400  1
  C  C68  1  0.530000  0.921100  0.849600  1
  C  C69  1  0.144300  0.547300  0.438700  1
  C  C70  1  0.855700  0.452700  0.561300  1
  C  C71  1  0.297300  0.005600  0.374900  1
  C  C72  1  0.702700  0.994400  0.625100  1
  C  C73  1  0.513600  0.823200  0.546500  1
  C  C74  1  0.486400  0.176800  0.453500  1
  C  C75  1  0.481100  0.658100  0.343000  1
  C  C76  1  0.518900  0.341900  0.657000  1
  C  C77  1  0.086600  0.795100  0.073400  1
  C  C78  1  0.913400  0.204900  0.926600  1
  C  C79  1  0.139100  0.990300  0.104800  1
  C  C80  1  0.860900  0.009700  0.895200  1
  C  C81  1  0.086500  0.730800  0.378100  1
  C  C82  1  0.913500  0.269200  0.621900  1
  C  C83  1  0.283700  0.951700  0.067200  1
  C  C84  1  0.716300  0.048300  0.932800  1
  C  C85  1  0.449600  0.835800  0.205800  1
  C  C86  1  0.550400  0.164200  0.794200  1
  C  C87  1  0.087600  0.704300  0.426500  1
  C  C88  1  0.912400  0.295700  0.573500  1
  C  C89  1  0.448800  0.706200  0.164400  1
  C  C90  1  0.551200  0.293800  0.835600  1
  C  C91  1  0.938300  0.013900  0.347100  1
  C  C92  1  0.061700  0.986100  0.652900  1
  C  C93  1  0.511100  0.454100  0.324000  1
  C  C94  1  0.488900  0.545900  0.676000  1
  C  C95  1  0.414400  0.621800  0.269900  1
  C  C96  1  0.585600  0.378200  0.730100  1
  C  C97  1  0.361900  0.990300  0.395900  1
  C  C98  1  0.638100  0.009700  0.604100  1
  C  C99  1  0.363800  0.509400  0.103800  1
  C  C100  1  0.636200  0.490600  0.896200  1
  C  C101  1  0.467500  0.081400  0.092800  1
  C  C102  1  0.532500  0.918600  0.907200  1
  C  C103  1  0.052200  0.835400  0.293500  1
  C  C104  1  0.947800  0.164600  0.706500  1
  C  C105  1  0.032400  0.849100  0.919700  1
  C  C106  1  0.967600  0.150900  0.080300  1
  C  C107  1  0.145300  0.952200  0.061600  1
  C  C108  1  0.854700  0.047800  0.938400  1
  C  C109  1  0.354900  0.938600  0.048300  1
  C  C110  1  0.645100  0.061400  0.951700  1
  C  C111  1  0.046000  0.732800  0.284900  1
  C  C112  1  0.954000  0.267200  0.715100  1
  C  C113  1  0.052300  0.793800  0.163500  1
  C  C114  1  0.947700  0.206200  0.836500  1
  C  C115  1  0.030100  0.651600  0.578900  1
  C  C116  1  0.969900  0.348400  0.421100  1
  C  C117  1  0.451800  0.730800  0.215500  1
  C  C118  1  0.548200  0.269200  0.784500  1
  C  C119  1  0.563700  0.848200  0.515200  1
  C  C120  1  0.436300  0.151800  0.484800  1
  C  C121  1  0.352900  0.548800  0.060200  1
  C  C122  1  0.647100  0.451200  0.939800  1
  C  C123  1  0.930200  0.906100  0.983800  1
  C  C124  1  0.069800  0.093900  0.016200  1
  C  C125  1  0.052300  0.664100  0.206000  1
  C  C126  1  0.947700  0.335900  0.794000  1
  C  C127  1  0.468900  0.421200  0.349200  1
  C  C128  1  0.531100  0.578800  0.650800  1
  C  C129  1  0.200700  0.495100  0.375500  1
  C  C130  1  0.799300  0.504900  0.624500  1
  C  C131  1  0.018100  0.656900  0.342100  1
  C  C132  1  0.981900  0.343100  0.657900  1
  C  C133  1  0.411500  0.572700  0.295600  1
  C  C134  1  0.588500  0.427300  0.704400  1
  C  C135  1  0.990700  0.823700  0.954700  1
  C  C136  1  0.009300  0.176300  0.045300  1
  C  C137  1  0.414700  0.795700  0.427200  1
  C  C138  1  0.585300  0.204300  0.572800  1
  C  C139  1  0.280400  0.567500  0.048500  1
  C  C140  1  0.719600  0.432500  0.951500  1
  C  C141  1  0.463400  0.906200  0.582300  1
  C  C142  1  0.536600  0.093800  0.417700  1
  C  C143  1  0.138200  0.603500  0.009300  1
  C  C144  1  0.861800  0.396500  0.990700  1
  C  C145  1  0.564700  0.014500  0.153200  1
  C  C146  1  0.435300  0.985500  0.846800  1
  C  C147  1  0.280800  0.990400  0.110200  1
  C  C148  1  0.719200  0.009600  0.889800  1
  C  C149  1  0.936200  0.849200  0.984200  1
  C  C150  1  0.063800  0.150800  0.015800  1
  C  C151  1  0.220300  0.612100  0.492100  1
  C  C152  1  0.779700  0.387900  0.507900  1
  C  C153  1  0.084400  0.877300  0.269500  1
  C  C154  1  0.915600  0.122700  0.730500  1
  C  C155  1  0.486000  0.843400  0.341100  1
  C  C156  1  0.514000  0.156600  0.658900  1
  C  C157  1  0.016400  0.842500  0.157300  1
  C  C158  1  0.983600  0.157500  0.842700  1
  C  C159  1  0.413200  0.927100  0.204700  1
  C  C160  1  0.586800  0.072900  0.795300  1
  C  C161  1  0.220300  0.510000  0.109700  1
  C  C162  1  0.779700  0.490000  0.890300  1
  C  C163  1  0.281700  0.509100  0.388000  1
  C  C164  1  0.718300  0.490900  0.612000  1
  C  C165  1  0.087300  0.622300  0.230600  1
  C  C166  1  0.912700  0.377700  0.769400  1
  C  C167  1  0.087700  0.926700  0.296000  1
  C  C168  1  0.912300  0.073300  0.704000  1
  C  C169  1  0.416300  0.769100  0.378200  1
  C  C170  1  0.583700  0.230900  0.621800  1
  C  C171  1  0.034400  0.906400  0.916700  1
  C  C172  1  0.965600  0.093600  0.083300  1
  C  C173  1  0.034800  0.083300  0.405900  1
  C  C174  1  0.965200  0.916700  0.594100  1
  C  C175  1  0.281200  0.933000  0.451800  1
  C  C176  1  0.718800  0.067000  0.548200  1
  C  C177  1  0.931300  0.595300  0.516600  1
  C  C178  1  0.068700  0.404700  0.483400  1
  C  C179  1  0.296300  0.494100  0.126600  1
  C  C180  1  0.703700  0.505900  0.873400  1
  C  C181  1  0.361900  0.896200  0.010700  1
  C  C182  1  0.638100  0.103800  0.989300  1
  C  C183  1  0.513200  0.044600  0.175300  1
  C  C184  1  0.486800  0.955400  0.824700  1
  C  C185  1  0.032100  0.420700  0.150300  1
  C  C186  1  0.967900  0.579300  0.849700  1
  C  C187  1  0.936400  0.483700  0.153200  1
  C  C188  1  0.063600  0.516300  0.846800  1
  C  C189  1  0.570100  0.906200  0.515200  1
  C  C190  1  0.429900  0.093800  0.484800  1
  C  C191  1  0.218100  0.889700  0.008500  1
  C  C192  1  0.781900  0.110300  0.991500  1
  C  C193  1  0.479900  0.889300  0.134000  1
  C  C194  1  0.520100  0.110700  0.866000  1
  C  C195  1  0.018000  0.842200  0.342900  1
  C  C196  1  0.982000  0.157800  0.657100  1
  C  C197  1  0.509900  0.675100  0.954900  1
  C  C198  1  0.490100  0.324900  0.045100  1
  C  C199  1  0.986900  0.046700  0.323500  1
  C  C200  1  0.013100  0.953300  0.676500  1
  C  C201  1  0.033400  0.079200  0.349500  1
  C  C202  1  0.966600  0.920800  0.650500  1
  C  C203  1  0.352200  0.560600  0.451300  1
  C  C204  1  0.647800  0.439400  0.548700  1
  C  C205  1  0.218400  0.991700  0.389400  1
  C  C206  1  0.781600  0.008300  0.610600  1
  C  C207  1  0.563200  0.485300  0.346500  1
  C  C208  1  0.436800  0.514700  0.653500  1
  C  C209  1  0.413500  0.877400  0.229900  1
  C  C210  1  0.586500  0.122600  0.770100  1
  C  C211  1  0.279200  0.548800  0.432900  1
  C  C212  1  0.720800  0.451200  0.567100  1
  C  C213  1  0.220800  0.549100  0.066500  1
  C  C214  1  0.779200  0.450900  0.933500  1
  C  C215  1  0.977700  0.931000  0.950500  1
  C  C216  1  0.022300  0.069000  0.049500  1
  C  C217  1  0.572100  0.483000  0.406000  1
  C  C218  1  0.427900  0.517000  0.594000  1
  C  C219  1  0.464100  0.417500  0.406000  1
  C  C220  1  0.535900  0.582500  0.594000  1
  C  C221  1  0.018400  0.658300  0.158000  1
  C  C222  1  0.981600  0.341700  0.842000  1
  C  C223  1  0.568300  0.016300  0.093400  1
  C  C224  1  0.431700  0.983700  0.906600  1
  C  C225  1  0.480600  0.842800  0.156900  1
  C  C226  1  0.519400  0.157200  0.843100  1
  C  C227  1  0.871700  0.931200  0.021700  1
  C  C228  1  0.128300  0.068800  0.978300  1
  C  C229  1  0.931400  0.015700  0.405800  1
  C  C230  1  0.068600  0.984300  0.594200  1
  C  C231  1  0.412900  0.730300  0.120800  1
  C  C232  1  0.587100  0.269700  0.879200  1
  C  C233  1  0.219900  0.932200  0.048900  1
  C  C234  1  0.780100  0.067800  0.951100  1
  C  C235  1  0.976500  0.450200  0.068000  1
  C  C236  1  0.023500  0.549800  0.932000  1
  C  C237  1  0.021600  0.866100  0.110200  1
  C  C238  1  0.978400  0.133900  0.889800  1
  C  C239  1  0.400800  0.114400  0.174500  1
  C  C240  1  0.599200  0.885600  0.825500  1
  C  C241  1  0.482100  0.610600  0.365700  1
  C  C242  1  0.517900  0.389400  0.634300  1
  C  C243  1  0.215100  0.567600  0.451600  1
  C  C244  1  0.784900  0.432400  0.548400  1
  C  C245  1  0.094400  0.827400  0.888000  1
  C  C246  1  0.905600  0.172600  0.112000  1
  C  C247  1  0.479600  0.657000  0.157800  1
  C  C248  1  0.520400  0.343000  0.842200  1
  C  C249  1  0.473500  0.866800  0.388700  1
  C  C250  1  0.526500  0.133200  0.611300  1
  C  C251  1  0.521900  0.932300  0.549500  1
  C  C252  1  0.478100  0.067700  0.450500  1
  C  C253  1  0.018200  0.635100  0.390500  1
  C  C254  1  0.981800  0.364900  0.609500  1
  C  C255  1  0.940100  0.652700  0.515600  1
  C  C256  1  0.059900  0.347300  0.484400  1
  C  C257  1  0.060600  0.328800  0.183500  1
  C  C258  1  0.939400  0.671200  0.816500  1
  C  C259  1  0.401900  0.387600  0.327000  1
  C  C260  1  0.598100  0.612400  0.673000  1
  C  C261  1  0.021500  0.610000  0.133700  1
  C  C262  1  0.978500  0.390000  0.866300  1
  C  C263  1  0.875500  0.522500  0.067800  1
  C  C264  1  0.124500  0.477500  0.932200  1
  C  C265  1  0.444200  0.170700  0.183800  1
  C  C266  1  0.555800  0.829300  0.816200  1
  C  C267  1  0.282300  0.611100  0.009100  1
  C  C268  1  0.717700  0.388900  0.990900  1
  C  C269  1  0.872500  0.568000  0.478000  1
  C  C270  1  0.127500  0.432000  0.522000  1
  C  C271  1  0.025200  0.889600  0.366500  1
  C  C272  1  0.974800  0.110400  0.633500  1
  C  C273  1  0.376000  0.090900  0.229900  1
  C  C274  1  0.624000  0.909100  0.770100  1
  C  C275  1  0.521500  0.048400  0.067300  1
  C  C276  1  0.478500  0.951600  0.932700  1
  C  C277  1  0.281000  0.889000  0.491500  1
  C  C278  1  0.719000  0.111000  0.508500  1
  C  C279  1  0.204400  0.874900  0.506500  1
  C  C280  1  0.795600  0.125100  0.493500  1
  C  C281  1  0.144200  0.939600  0.451700  1
  C  C282  1  0.855800  0.060400  0.548300  1
  C  C283  1  0.146700  0.560800  0.049100  1
  C  C284  1  0.853300  0.439200  0.950900  1
  C  C285  1  0.467200  0.651100  0.922000  1
  C  C286  1  0.532800  0.348900  0.078000  1
  C  C287  1  0.413000  0.704400  0.072700  1
  C  C288  1  0.587000  0.295600  0.927300  1
  C  C289  1  0.567500  0.593500  0.983000  1
  C  C290  1  0.432500  0.406500  0.017000  1
  C  C291  1  0.477400  0.634400  0.110800  1
  C  C292  1  0.522600  0.365600  0.889200  1
  C  C293  1  0.522800  0.568100  0.951000  1
  C  C294  1  0.477200  0.431900  0.049000  1
  C  C295  1  0.625400  0.978700  0.066600  1
  C  C296  1  0.374600  0.021300  0.933400  1
  C  C297  1  0.137300  0.895200  0.489900  1
  C  C298  1  0.862700  0.104800  0.510100  1
  C  C299  1  0.465300  0.593300  0.917100  1
  C  C300  1  0.534700  0.406700  0.082900  1
  C  C301  1  0.375300  0.730200  0.909100  1
  C  C302  1  0.624700  0.269800  0.090900  1
  C  C303  1  0.562700  0.652600  0.984100  1
  C  C304  1  0.437300  0.347400  0.015900  1
  C  C305  1  0.441600  0.682700  0.828800  1
  C  C306  1  0.558400  0.317300  0.171200  1
  C  C307  1  0.876700  0.976900  0.432200  1
  C  C308  1  0.123300  0.023100  0.567800  1
  C  C309  1  0.380800  0.410000  0.268300  1
  C  C310  1  0.619200  0.590000  0.731700  1
  C  C311  1  0.625100  0.567800  0.022400  1
  C  C312  1  0.374900  0.432200  0.977600  1
  C  C313  1  0.626800  0.523000  0.432400  1
  C  C314  1  0.373200  0.477000  0.567600  1
  C  C315  1  0.625600  0.933800  0.477500  1
  C  C316  1  0.374400  0.066200  0.522500  1
  C  C317  1  0.520900  0.450300  0.433600  1
  C  C318  1  0.479100  0.549700  0.566400  1
  C  C319  1  0.979000  0.568400  0.548700  1
  C  C320  1  0.021000  0.431600  0.451300  1
  C  C321  1  0.035800  0.591700  0.582400  1
  C  C322  1  0.964200  0.408300  0.417600  1
  C  C323  1  0.439200  0.330000  0.316800  1
  C  C324  1  0.560800  0.670000  0.683200  1
  C  C325  1  0.098200  0.672700  0.614300  1
  C  C326  1  0.901800  0.327300  0.385700  1
  C  C327  1  0.356100  0.951200  0.440200  1
  C  C328  1  0.643900  0.048800  0.559800  1
  C  C329  1  0.649200  0.800300  0.249700  1
  C  C330  1  0.350800  0.199700  0.750300  1
  C  C331  1  0.651200  0.762800  0.289500  1
  C  C332  1  0.348800  0.237200  0.710500  1
  C  C333  1  0.651500  0.713300  0.266100  1
  C  C334  1  0.348500  0.286700  0.733900  1
  C  C335  1  0.649700  0.720200  0.211900  1
  C  C336  1  0.350300  0.279800  0.788100  1
  C  C337  1  0.648300  0.774000  0.201700  1
  C  C338  1  0.351700  0.226000  0.798300  1
  C  C339  1  0.648300  0.858000  0.257000  1
  C  C340  1  0.351700  0.142000  0.743000  1
  C  C341  1  0.652700  0.773600  0.346600  1
  C  C342  1  0.347300  0.226400  0.653400  1
  C  C343  1  0.653300  0.662200  0.294000  1
  C  C344  1  0.346700  0.337800  0.706000  1
  C  C345  1  0.649300  0.677800  0.172000  1
  C  C346  1  0.350700  0.322200  0.828000  1
  C  C347  1  0.646000  0.798800  0.149100  1
  C  C348  1  0.354000  0.201200  0.850900  1
  C  C349  1  0.978900  0.049600  0.432200  1
  C  C350  1  0.021100  0.950400  0.567800  1
  C  C351  1  0.850400  0.749100  0.297800  1
  C  C352  1  0.149600  0.250900  0.702200  1
  C  C353  1  0.849900  0.789300  0.260700  1
  C  C354  1  0.150100  0.210700  0.739300  1
  C  C355  1  0.850500  0.766300  0.211000  1
  C  C356  1  0.149500  0.233700  0.789000  1
  C  C357  1  0.851400  0.712000  0.217500  1
  C  C358  1  0.148600  0.288000  0.782500  1
  C  C359  1  0.851400  0.701300  0.271100  1
  C  C360  1  0.148600  0.298700  0.728900  1
  C  C361  1  0.850100  0.756000  0.355600  1
  C  C362  1  0.149900  0.244000  0.644400  1
  C  C363  1  0.848800  0.846300  0.272000  1
  C  C364  1  0.151200  0.153700  0.728000  1
  C  C365  1  0.850200  0.794800  0.160300  1
  C  C366  1  0.149800  0.205200  0.839700  1
  C  C367  1  0.852000  0.672500  0.174800  1
  C  C368  1  0.148000  0.327500  0.825200  1
  C  C369  1  0.852000  0.648500  0.295500  1
  C  C370  1  0.148000  0.351500  0.704500  1
  C  C371  1  0.060200  0.683900  0.669600  1
  C  C372  1  0.939800  0.316100  0.330400  1
  C  C373  1  0.119400  0.767700  0.910700  1
  C  C374  1  0.880600  0.232300  0.089300  1
  C  C375  1  0.057900  0.816700  0.829500  1
  C  C376  1  0.942100  0.183300  0.170500  1
  C  C377  1  0.402600  0.672700  0.885900  1
  C  C378  1  0.597400  0.327300  0.114100  1
  C  C379  1  0.097200  0.386100  0.175000  1
  C  C380  1  0.902800  0.613900  0.825000  1
  C  C381  1  0.118900  0.409000  0.231500  1
  C  C382  1  0.881100  0.591000  0.768500  1
  C  C383  1  0.987900  0.676200  0.544900  1
  C  C384  1  0.012100  0.323800  0.455100  1
  C  C385  1  0.442300  0.816000  0.670700  1
  C  C386  1  0.557700  0.184000  0.329300  1
  C  C387  1  0.381500  0.765200  0.588900  1
  C  C388  1  0.618500  0.234800  0.411100  1
  C  C389  1  0.119700  0.089600  0.267200  1
  C  C390  1  0.880300  0.910400  0.732800  1
  C  C391  1  0.102200  0.113000  0.327600  1
  C  C392  1  0.897800  0.887000  0.672400  1
  C  C393  1  0.055300  0.170400  0.318900  1
  C  C394  1  0.944700  0.829600  0.681100  1
  C  C395  1  0.402700  0.825700  0.612900  1
  C  C396  1  0.597300  0.174300  0.387100  1
  C  C397  1  0.121600  0.730000  0.590200  1
  C  C398  1  0.878400  0.270000  0.409800  1
  C  C399  1  0.833300  0.839700  0.487500  1
  C  C400  1  0.166700  0.160300  0.512500  1
  C  C401  1  0.830000  0.512600  0.339200  1
  C  C402  1  0.170000  0.487400  0.660800  1
  C  C403  1  0.169700  0.015700  0.839400  1
  C  C404  1  0.830300  0.984300  0.160600  1
  C  C405  1  0.668300  0.984700  0.341100  1
  C  C406  1  0.331700  0.015300  0.658900  1
  C  C407  1  0.824000  0.660500  0.018000  1
  C  C408  1  0.176000  0.339500  0.982000  1
  C  C409  1  0.661400  0.662300  0.483900  1
  C  C410  1  0.338600  0.337700  0.516100  1
  C  C411  1  0.188000  0.171000  0.152000  1
  C  C412  1  0.812000  0.829000  0.848000  1
  C  C413  1  0.311000  0.328000  0.151000  1
  C  C414  1  0.689000  0.672000  0.849000  1
  C  C415  1  0.217000  0.215000  0.135000  1
  C  C416  1  0.783000  0.785000  0.865000  1
  C  C417  1  0.283000  0.286000  0.130000  1
  C  C418  1  0.717000  0.714000  0.870000  1
  C  C419  1  0.318000  0.172000  0.350000  1
  C  C420  1  0.682000  0.828000  0.650000  1
  C  C421  1  0.182000  0.331300  0.353000  1
  C  C422  1  0.818000  0.668700  0.647000  1
  C  C423  1  0.213000  0.287000  0.369000  1
  C  C424  1  0.787000  0.713000  0.631000  1
  C  C425  1  0.280000  0.215000  0.362000  1
  C  C426  1  0.720000  0.785000  0.638000  1
  C  C427  1  0.319000  0.650000  0.671000  1
  C  C428  1  0.681000  0.350000  0.329000  1
  C  C429  1  0.185000  0.648000  0.825000  1
  C  C430  1  0.815000  0.352000  0.175000  1
  C  C431  1  0.283000  0.631000  0.711000  1
  C  C432  1  0.717000  0.369000  0.289000  1
  C  C433  1  0.220000  0.631000  0.786000  1
  C  C434  1  0.780000  0.369000  0.214000  1
  C  C435  1  0.816000  0.153000  0.326000  1
  C  C436  1  0.184000  0.847000  0.674000  1
  C  C437  1  0.686000  0.146000  0.169000  1
  C  C438  1  0.314000  0.854000  0.831000  1
  C  C439  1  0.781000  0.133000  0.286000  1
  C  C440  1  0.219000  0.867000  0.714000  1
  C  C441  1  0.713000  0.125000  0.213000  1
  C  C442  1  0.287000  0.875000  0.787000  1
  C  C443  1  0.839000  0.807000  0.532000  1
  C  C444  1  0.161000  0.193000  0.468000  1
  C  C445  1  0.654700  0.529000  0.178000  1
  C  C446  1  0.345300  0.471000  0.822000  1
  C  C447  1  0.752900  0.196700  0.803500  1
  C  C448  1  0.247100  0.803300  0.196500  1
  C  C449  1  0.750500  0.153600  0.846800  1
  C  C450  1  0.249500  0.846400  0.153200  1
  C  C451  1  0.751000  0.306400  0.696600  1
  C  C452  1  0.249000  0.693600  0.303400  1
  C  C453  1  0.751700  0.346000  0.651800  1
  C  C454  1  0.248300  0.654000  0.348200  1
  C  C455  1  0.749700  0.346000  0.847100  1
  C  C456  1  0.250300  0.654000  0.152900  1
  C  C457  1  0.751900  0.303000  0.802900  1
  C  C458  1  0.248100  0.697000  0.197100  1
  C  C459  1  0.749800  0.193600  0.697600  1
  C  C460  1  0.250200  0.806400  0.302400  1
  C  C461  1  0.749100  0.152900  0.652500  1
  C  C462  1  0.250900  0.847100  0.347500  1
  S  S463  1  0.573300  0.814200  0.008900  1
  S  S464  1  0.426700  0.185800  0.991100  1
  S  S465  1  0.928500  0.813900  0.490800  1
  S  S466  1  0.071500  0.186100  0.509200  1
  S  S467  1  0.926300  0.509200  0.314300  1
  S  S468  1  0.073700  0.490800  0.685700  1
  S  S469  1  0.073200  0.009400  0.813700  1
  S  S470  1  0.926800  0.990600  0.186300  1
  S  S471  1  0.573400  0.991000  0.313900  1
  S  S472  1  0.426600  0.009000  0.686100  1
  S  S473  1  0.926100  0.686000  0.009100  1
  S  S474  1  0.073900  0.314000  0.990900  1
  S  S475  1  0.575400  0.686000  0.490700  1
  S  S476  1  0.424600  0.314000  0.509300  1
  S  S477  1  0.572000  0.508600  0.186500  1
  S  S478  1  0.428000  0.491400  0.813500  1
  N  N479  1  0.055100  0.568600  0.157400  1
  N  N480  1  0.944900  0.431400  0.842600  1
  N  N481  1  0.444900  0.569000  0.342400  1
  N  N482  1  0.555100  0.431000  0.657600  1
  N  N483  1  0.445800  0.931900  0.156300  1
  N  N484  1  0.554200  0.068100  0.843700  1
  N  N485  1  0.445800  0.843000  0.430900  1
  N  N486  1  0.554200  0.157000  0.569100  1
  N  N487  1  0.053300  0.931400  0.343000  1
  N  N488  1  0.946700  0.068600  0.657000  1
  N  N489  1  0.059700  0.843200  0.068400  1
  N  N490  1  0.940300  0.156800  0.931600  1
  N  N491  1  0.444800  0.656800  0.067900  1
  N  N492  1  0.555200  0.343200  0.932100  1
  N  N493  1  0.055800  0.657100  0.431700  1
  N  N494  1  0.944200  0.342900  0.568300  1
  O  O495  1  0.545300  0.862500  0.022400  1
  O  O496  1  0.454700  0.137500  0.977600  1
  O  O497  1  0.559600  0.801900  0.957100  1
  O  O498  1  0.440400  0.198100  0.042900  1
  O  O499  1  0.559800  0.775400  0.046500  1
  O  O500  1  0.440200  0.224600  0.953500  1
  O  O501  1  0.419600  0.956600  0.057900  1
  O  O502  1  0.580400  0.043400  0.942100  1
  O  O503  1  0.080200  0.544000  0.057800  1
  O  O504  1  0.919800  0.456000  0.942200  1
  O  O505  1  0.424100  0.942000  0.456800  1
  O  O506  1  0.575900  0.058000  0.543200  1
  O  O507  1  0.420300  0.544000  0.442600  1
  O  O508  1  0.579700  0.456000  0.557400  1
  O  O509  1  0.338700  0.634800  0.992000  1
  O  O510  1  0.661300  0.365200  0.008000  1
  O  O511  1  0.162900  0.492200  0.134000  1
  O  O512  1  0.837100  0.507800  0.866000  1
  O  O513  1  0.161900  0.865100  0.991600  1
  O  O514  1  0.838100  0.134900  0.008400  1
  O  O515  1  0.079200  0.942000  0.043400  1
  O  O516  1  0.920800  0.058000  0.956600  1
  O  O517  1  0.079300  0.557700  0.456100  1
  O  O518  1  0.920700  0.442300  0.543900  1
  O  O519  1  0.337800  0.008700  0.134600  1
  O  O520  1  0.662200  0.991300  0.865400  1
  O  O521  1  0.420400  0.558100  0.043600  1
  O  O522  1  0.579600  0.441900  0.956400  1
  O  O523  1  0.077400  0.956200  0.441800  1
  O  O524  1  0.922600  0.043800  0.558200  1
  O  O525  1  0.161700  0.634700  0.508100  1
  O  O526  1  0.838300  0.365300  0.491900  1
  O  O527  1  0.337200  0.492000  0.365000  1
  O  O528  1  0.662800  0.508000  0.635000  1
  O  O529  1  0.161600  0.008400  0.364800  1
  O  O530  1  0.838400  0.991600  0.635200  1
  O  O531  1  0.337200  0.865400  0.508000  1
  O  O532  1  0.662800  0.134600  0.492000  1
  O  O533  1  0.955600  0.862000  0.477700  1
  O  O534  1  0.044400  0.138000  0.522300  1
  O  O535  1  0.937400  0.776900  0.454000  1
  O  O536  1  0.062600  0.223100  0.546000  1
  O  O537  1  0.948700  0.801800  0.541500  1
  O  O538  1  0.051300  0.198200  0.458500  1
  O  O539  1  0.944900  0.458100  0.302500  1
  O  O540  1  0.055100  0.541900  0.697500  1
  O  O541  1  0.957600  0.521600  0.364000  1
  O  O542  1  0.042400  0.478400  0.636000  1
  O  O543  1  0.941200  0.547600  0.274700  1
  O  O544  1  0.058800  0.452400  0.725300  1
  O  O545  1  0.043300  0.023000  0.862800  1
  O  O546  1  0.956700  0.977000  0.137200  1
  O  O547  1  0.058800  0.047600  0.774800  1
  O  O548  1  0.941200  0.952400  0.225200  1
  O  O549  1  0.047800  0.960100  0.801500  1
  O  O550  1  0.952200  0.039900  0.198500  1
  O  O551  1  0.541400  0.977400  0.363700  1
  O  O552  1  0.458600  0.022600  0.636300  1
  O  O553  1  0.548000  0.041500  0.300700  1
  O  O554  1  0.452000  0.958500  0.699300  1
  O  O555  1  0.556700  0.952100  0.274400  1
  O  O556  1  0.443300  0.047900  0.725600  1
  O  O557  1  0.954600  0.638200  0.022500  1
  O  O558  1  0.045400  0.361800  0.977500  1
  O  O559  1  0.937500  0.723600  0.047000  1
  O  O560  1  0.062500  0.276400  0.953000  1
  O  O561  1  0.941300  0.699000  0.957400  1
  O  O562  1  0.058700  0.301000  0.042600  1
  O  O563  1  0.543300  0.637000  0.477200  1
  O  O564  1  0.456700  0.363000  0.522800  1
  O  O565  1  0.558200  0.724700  0.451500  1
  O  O566  1  0.441800  0.275300  0.548500  1
  O  O567  1  0.548900  0.698800  0.538700  1
  O  O568  1  0.451100  0.301200  0.461300  1
  O  O569  1  0.250000  0.251500  0.151800  1
  O  O570  1  0.750000  0.748500  0.848200  1
  O  O571  1  0.247000  0.251300  0.348000  1
  O  O572  1  0.753000  0.748700  0.652000  1
  O  O573  1  0.248000  0.651700  0.750000  1
  O  O574  1  0.752000  0.348300  0.250000  1
  O  O575  1  0.747000  0.153800  0.249500  1
  O  O576  1  0.253000  0.846200  0.750500  1
  O  O577  1  0.750000  0.351400  0.753300  1
  O  O578  1  0.250000  0.648600  0.246700  1
  O  O579  1  0.542000  0.522900  0.136700  1
  O  O580  1  0.458000  0.477100  0.863300  1
  O  O581  1  0.559200  0.548200  0.225100  1
  O  O582  1  0.440800  0.451800  0.774900  1
  O  O583  1  0.547900  0.458300  0.199300  1
  O  O584  1  0.452100  0.541700  0.800700  1
  O  O585  1  0.752000  0.252800  0.850500  1
  O  O586  1  0.248000  0.747200  0.149500  1
  O  O587  1  0.750000  0.150400  0.751000  1
  O  O588  1  0.250000  0.849600  0.249000  1
  O  O589  1  0.750000  0.251100  0.649000  1
  O  O590  1  0.250000  0.748900  0.351000  1
  F  F591  1  0.698200  0.865500  0.980900  1
  F  F592  1  0.301800  0.134500  0.019100  1
  F  F593  1  0.691400  0.852500  0.052100  1
  F  F594  1  0.308600  0.147500  0.947900  1
  F  F595  1  0.716300  0.803600  0.013900  1
  F  F596  1  0.283700  0.196400  0.986100  1
  F  F597  1  0.785100  0.802900  0.484700  1
  F  F598  1  0.214900  0.197100  0.515300  1
  F  F599  1  0.805200  0.872400  0.518200  1
  F  F600  1  0.194800  0.127600  0.481800  1
  F  F601  1  0.805100  0.851200  0.443700  1
  F  F602  1  0.194900  0.148800  0.556300  1
  F  F603  1  0.805500  0.476800  0.369400  1
  F  F604  1  0.194500  0.523200  0.630600  1
  F  F605  1  0.786200  0.515000  0.300600  1
  F  F606  1  0.213800  0.485000  0.699400  1
  F  F607  1  0.805500  0.558300  0.351100  1
  F  F608  1  0.194500  0.441700  0.648900  1
  F  F609  1  0.195400  0.979400  0.868500  1
  F  F610  1  0.804600  0.020600  0.131500  1
  F  F611  1  0.215100  0.014600  0.800800  1
  F  F612  1  0.784900  0.985400  0.199200  1
  F  F613  1  0.195400  0.060700  0.853000  1
  F  F614  1  0.804600  0.939300  0.147000  1
  F  F615  1  0.713500  0.985400  0.302500  1
  F  F616  1  0.286500  0.014600  0.697500  1
  F  F617  1  0.699200  0.941500  0.354000  1
  F  F618  1  0.300800  0.058500  0.646000  1
  F  F619  1  0.697100  0.019000  0.370900  1
  F  F620  1  0.302900  0.981000  0.629100  1
  F  F621  1  0.787400  0.701400  0.012700  1
  F  F622  1  0.212600  0.298600  0.987300  1
  F  F623  1  0.802100  0.633400  0.978000  1
  F  F624  1  0.197900  0.366600  0.022000  1
  F  F625  1  0.804800  0.645100  0.063500  1
  F  F626  1  0.195200  0.354900  0.936500  1
  F  F627  1  0.712300  0.698200  0.484900  1
  F  F628  1  0.287700  0.301800  0.515100  1
  F  F629  1  0.696000  0.633300  0.517500  1
  F  F630  1  0.304000  0.366700  0.482500  1
  F  F631  1  0.692500  0.647000  0.440900  1
  F  F632  1  0.307500  0.353000  0.559100  1
  F  F633  1  0.717800  0.515600  0.199000  1
  F  F634  1  0.282200  0.484400  0.801000  1
  F  F635  1  0.693900  0.559200  0.146500  1
  F  F636  1  0.306100  0.440800  0.853500  1
  F  F637  1  0.693000  0.479000  0.134000  1
  F  F638  1  0.307000  0.521000  0.866000  1
