# generated using pymatgen
data_H34IrC39SN6(OF)3
_symmetry_space_group_name_H-M   'P 1'
_cell_length_a   14.38812698
_cell_length_b   14.38812698
_cell_length_c   19.03580000
_cell_angle_alpha   84.45615493
_cell_angle_beta   84.45615493
_cell_angle_gamma   85.24244840
_symmetry_Int_Tables_number   1
_chemical_formula_structural   H34IrC39SN6(OF)3
_chemical_formula_sum   'H136 Ir4 C156 S4 N24 O12 F12'
_cell_volume   3893.18708658
_cell_formula_units_Z   4
loop_
 _symmetry_equiv_pos_site_id
 _symmetry_equiv_pos_as_xyz
  1  'x, y, z'
loop_
 _atom_site_type_symbol
 _atom_site_label
 _atom_site_symmetry_multiplicity
 _atom_site_fract_x
 _atom_site_fract_y
 _atom_site_fract_z
 _atom_site_occupancy
  C  C1  1  0.661300  0.216100  0.999700  1
  C  C2  1  0.783900  0.338700  0.500300  1
  C  C3  1  0.338700  0.783900  0.000300  1
  C  C4  1  0.216100  0.661300  0.499700  1
  C  C5  1  0.056200  0.451200  0.326300  1
  C  C6  1  0.548800  0.943800  0.173700  1
  C  C7  1  0.943800  0.548800  0.673700  1
  C  C8  1  0.451200  0.056200  0.826300  1
  C  C9  1  0.031600  0.480200  0.394400  1
  C  C10  1  0.519800  0.968400  0.105600  1
  C  C11  1  0.968400  0.519800  0.605600  1
  C  C12  1  0.480200  0.031600  0.894400  1
  C  C13  1  0.972900  0.131300  0.975400  1
  C  C14  1  0.868700  0.027100  0.524600  1
  C  C15  1  0.027100  0.868700  0.024600  1
  C  C16  1  0.131300  0.972900  0.475400  1
  C  C17  1  0.997000  0.116000  0.048200  1
  C  C18  1  0.884000  0.003000  0.451800  1
  C  C19  1  0.003000  0.884000  0.951800  1
  C  C20  1  0.116000  0.997000  0.548200  1
  C  C21  1  0.358900  0.065300  0.400700  1.0
  C  C22  1  0.934700  0.641100  0.099300  1.0
  C  C23  1  0.641100  0.934700  0.599300  1.0
  C  C24  1  0.065300  0.358900  0.900700  1.0
  C  C25  1  0.213400  0.206800  0.391100  1.0
  C  C26  1  0.793200  0.786600  0.108900  1.0
  C  C27  1  0.786600  0.793200  0.608900  1.0
  C  C28  1  0.206800  0.213400  0.891100  1.0
  C  C29  1  0.697300  0.179300  0.305900  1.0
  C  C30  1  0.820700  0.302700  0.194100  1.0
  C  C31  1  0.302700  0.820700  0.694100  1.0
  C  C32  1  0.179300  0.697300  0.805900  1.0
  C  C33  1  0.066600  0.227800  0.465800  1.0
  C  C34  1  0.772200  0.933400  0.034200  1.0
  C  C35  1  0.933400  0.772200  0.534200  1.0
  C  C36  1  0.227800  0.066600  0.965800  1.0
  C  C37  1  0.381100  0.955900  0.505600  1.0
  C  C38  1  0.044100  0.618900  0.994400  1.0
  C  C39  1  0.618900  0.044100  0.494400  1.0
  C  C40  1  0.955900  0.381100  0.005600  1.0
  C  C41  1  0.651400  0.256200  0.334300  1.0
  C  C42  1  0.743800  0.348600  0.165700  1.0
  C  C43  1  0.348600  0.743800  0.665700  1.0
  C  C44  1  0.256200  0.651400  0.834300  1.0
  C  C45  1  0.159500  0.187100  0.336300  1.0
  C  C46  1  0.812900  0.840500  0.163700  1.0
  C  C47  1  0.840500  0.812900  0.663700  1.0
  C  C48  1  0.187100  0.159500  0.836300  1.0
  C  C49  1  0.390200  0.130400  0.582200  1.0
  C  C50  1  0.869600  0.609800  0.917800  1.0
  C  C51  1  0.609800  0.869600  0.417800  1.0
  C  C52  1  0.130400  0.390200  0.082200  1.0
  C  C53  1  0.373600  0.046400  0.472700  1.0
  C  C54  1  0.953600  0.626400  0.027300  1.0
  C  C55  1  0.626400  0.953600  0.527300  1.0
  C  C56  1  0.046400  0.373600  0.972700  1.0
  C  C57  1  0.165000  0.227600  0.454800  1.0
  C  C58  1  0.772400  0.835000  0.045200  1.0
  C  C59  1  0.835000  0.772400  0.545200  1.0
  C  C60  1  0.227600  0.165000  0.954800  1.0
  C  C61  1  0.392100  0.292500  0.495600  1.0
  C  C62  1  0.707500  0.607900  0.004400  1.0
  C  C63  1  0.607900  0.707500  0.504400  1.0
  C  C64  1  0.292500  0.392100  0.995600  1.0
  C  C65  1  0.361200  0.897000  0.394900  1.0
  C  C66  1  0.103000  0.638800  0.105100  1.0
  C  C67  1  0.638800  0.103000  0.605100  1.0
  C  C68  1  0.897000  0.361200  0.894900  1.0
  C  C69  1  0.016100  0.206900  0.411500  1.0
  C  C70  1  0.793100  0.983900  0.088500  1.0
  C  C71  1  0.983900  0.793100  0.588500  1.0
  C  C72  1  0.206900  0.016100  0.911500  1.0
  C  C73  1  0.062100  0.186700  0.347500  1.0
  C  C74  1  0.813300  0.937900  0.152500  1.0
  C  C75  1  0.937900  0.813300  0.652500  1.0
  C  C76  1  0.186700  0.062100  0.847500  1.0
  C  C77  1  0.801300  0.169500  0.289300  1.0
  C  C78  1  0.830500  0.198700  0.210700  1.0
  C  C79  1  0.198700  0.830500  0.710700  1.0
  C  C80  1  0.169500  0.801300  0.789300  1.0
  C  C81  1  0.377400  0.470000  0.233500  1.0
  C  C82  1  0.530000  0.622600  0.266500  1.0
  C  C83  1  0.622600  0.530000  0.766500  1.0
  C  C84  1  0.470000  0.377400  0.733500  1.0
  C  C85  1  0.326100  0.151900  0.146100  1.0
  C  C86  1  0.848100  0.673900  0.353900  1.0
  C  C87  1  0.673900  0.848100  0.853900  1.0
  C  C88  1  0.151900  0.326100  0.646100  1.0
  C  C89  1  0.381700  0.130500  0.510100  1.0
  C  C90  1  0.869500  0.618300  0.989900  1.0
  C  C91  1  0.618300  0.869500  0.489900  1.0
  C  C92  1  0.130500  0.381700  0.010100  1.0
  C  C93  1  0.286500  0.412900  0.359000  1.0
  C  C94  1  0.587100  0.713500  0.141000  1.0
  C  C95  1  0.713500  0.587100  0.641000  1.0
  C  C96  1  0.412900  0.286500  0.859000  1.0
  C  C97  1  0.642900  0.108900  0.291600  1.0
  C  C98  1  0.891100  0.357100  0.208400  1.0
  C  C99  1  0.357100  0.891100  0.708400  1.0
  C  C100  1  0.108900  0.642900  0.791600  1.0
  C  C101  1  0.360800  0.169000  0.207800  1.0
  C  C102  1  0.831000  0.639200  0.292200  1.0
  C  C103  1  0.639200  0.831000  0.792200  1.0
  C  C104  1  0.169000  0.360800  0.707800  1.0
  C  C105  1  0.352700  0.987100  0.362500  1.0
  C  C106  1  0.012900  0.647300  0.137500  1.0
  C  C107  1  0.647300  0.012900  0.637500  1.0
  C  C108  1  0.987100  0.352700  0.862500  1.0
  C  C109  1  0.376100  0.880500  0.466800  1.0
  C  C110  1  0.119500  0.623900  0.033200  1.0
  C  C111  1  0.623900  0.119500  0.533200  1.0
  C  C112  1  0.880500  0.376100  0.966800  1.0
  C  C113  1  0.231500  0.143500  0.146100  1.0
  C  C114  1  0.856500  0.768500  0.353900  1.0
  C  C115  1  0.768500  0.856500  0.853900  1.0
  C  C116  1  0.143500  0.231500  0.646100  1.0
  C  C117  1  0.212600  0.171600  0.269500  1.0
  C  C118  1  0.828400  0.787400  0.230500  1.0
  C  C119  1  0.787400  0.828400  0.730500  1.0
  C  C120  1  0.171600  0.212600  0.769500  1.0
  C  C121  1  0.174800  0.152800  0.208100  1.0
  C  C122  1  0.847200  0.825200  0.291900  1.0
  C  C123  1  0.825200  0.847200  0.791900  1.0
  C  C124  1  0.152800  0.174800  0.708100  1.0
  C  C125  1  0.389200  0.379200  0.264500  1.0
  C  C126  1  0.620800  0.610800  0.235500  1.0
  C  C127  1  0.610800  0.620800  0.735500  1.0
  C  C128  1  0.379200  0.389200  0.764500  1.0
  C  C129  1  0.401700  0.295500  0.566100  1.0
  C  C130  1  0.704500  0.598300  0.933900  1.0
  C  C131  1  0.598300  0.704500  0.433900  1.0
  C  C132  1  0.295500  0.401700  0.066100  1.0
  C  C133  1  0.555300  0.261300  0.348500  1.0
  C  C134  1  0.738700  0.444700  0.151500  1.0
  C  C135  1  0.444700  0.738700  0.651500  1.0
  C  C136  1  0.261300  0.555300  0.848500  1.0
  C  C137  1  0.547200  0.118400  0.306400  1.0
  C  C138  1  0.881600  0.452800  0.193600  1.0
  C  C139  1  0.452800  0.881600  0.693600  1.0
  C  C140  1  0.118400  0.547200  0.806400  1.0
  C  C141  1  0.399500  0.213500  0.610300  1.0
  C  C142  1  0.786500  0.600500  0.889700  1.0
  C  C143  1  0.600500  0.786500  0.389700  1.0
  C  C144  1  0.213500  0.399500  0.110300  1.0
  C  C145  1  0.272500  0.505100  0.331500  1.0
  C  C146  1  0.494900  0.727500  0.168500  1.0
  C  C147  1  0.727500  0.494900  0.668500  1.0
  C  C148  1  0.505100  0.272500  0.831500  1.0
  C  C149  1  0.316900  0.534500  0.266800  1.0
  C  C150  1  0.465500  0.683100  0.233200  1.0
  C  C151  1  0.683100  0.465500  0.733200  1.0
  C  C152  1  0.534500  0.316900  0.766800  1.0
  C  C153  1  0.300400  0.634600  0.236300  1.0
  C  C154  1  0.365400  0.699600  0.263700  1.0
  C  C155  1  0.699600  0.365400  0.763700  1.0
  C  C156  1  0.634600  0.300400  0.736300  1.0
  F  F157  1  0.736140  0.222520  0.034530  1
  F  F158  1  0.777480  0.263860  0.465470  1
  F  F159  1  0.263860  0.777480  0.965470  1
  F  F160  1  0.222520  0.736140  0.534530  1
  F  F161  1  0.662580  0.127180  0.984600  1
  F  F162  1  0.872820  0.337420  0.515400  1
  F  F163  1  0.337420  0.872820  0.015400  1
  F  F164  1  0.127180  0.662580  0.484600  1
  F  F165  1  0.675170  0.267170  0.937000  1
  F  F166  1  0.732830  0.324830  0.563000  1
  F  F167  1  0.324830  0.732830  0.063000  1
  F  F168  1  0.267170  0.675170  0.437000  1
  H  H169  1  0.033200  0.548400  0.392800  1
  H  H170  1  0.451600  0.966800  0.107200  1
  H  H171  1  0.966800  0.451600  0.607200  1
  H  H172  1  0.548400  0.033200  0.892800  1
  H  H173  1  0.076200  0.450000  0.426900  1
  H  H174  1  0.550000  0.923800  0.073100  1
  H  H175  1  0.923800  0.550000  0.573100  1
  H  H176  1  0.450000  0.076200  0.926900  1
  H  H177  1  0.968400  0.462600  0.411100  1
  H  H178  1  0.537400  0.031600  0.088900  1
  H  H179  1  0.031600  0.537400  0.588900  1
  H  H180  1  0.462600  0.968400  0.911100  1
  H  H181  1  0.028900  0.118500  0.943200  1
  H  H182  1  0.881500  0.971100  0.556800  1
  H  H183  1  0.971100  0.881500  0.056800  1
  H  H184  1  0.118500  0.028900  0.443200  1
  H  H185  1  0.948400  0.196400  0.965700  1
  H  H186  1  0.803600  0.051600  0.534300  1
  H  H187  1  0.051600  0.803600  0.034300  1
  H  H188  1  0.196400  0.948400  0.465700  1
  H  H189  1  0.925100  0.089100  0.968200  1
  H  H190  1  0.910900  0.074900  0.531800  1
  H  H191  1  0.074900  0.910900  0.031800  1
  H  H192  1  0.089100  0.925100  0.468200  1
  H  H193  1  0.035200  0.242200  0.510000  1.0
  H  H194  1  0.757800  0.964800  0.990000  1.0
  H  H195  1  0.964800  0.757800  0.490000  1.0
  H  H196  1  0.242200  0.035200  0.010000  1.0
  H  H197  1  0.389600  0.946000  0.554700  1.0
  H  H198  1  0.054000  0.610400  0.945300  1.0
  H  H199  1  0.610400  0.054000  0.445300  1.0
  H  H200  1  0.946000  0.389600  0.054700  1.0
  H  H201  1  0.685900  0.306100  0.344200  1.0
  H  H202  1  0.693900  0.314100  0.155800  1.0
  H  H203  1  0.314100  0.693900  0.655800  1.0
  H  H204  1  0.306100  0.685900  0.844200  1.0
  H  H205  1  0.389700  0.073500  0.612000  1.0
  H  H206  1  0.926500  0.610300  0.888000  1.0
  H  H207  1  0.610300  0.926500  0.388000  1.0
  H  H208  1  0.073500  0.389700  0.112000  1.0
  H  H209  1  0.198900  0.242100  0.492100  1.0
  H  H210  1  0.757900  0.801100  0.007900  1.0
  H  H211  1  0.801100  0.757900  0.507900  1.0
  H  H212  1  0.242100  0.198900  0.992100  1.0
  H  H213  1  0.393200  0.349200  0.465500  1.0
  H  H214  1  0.650800  0.606800  0.034500  1.0
  H  H215  1  0.606800  0.650800  0.534500  1.0
  H  H216  1  0.349200  0.393200  0.965500  1.0
  H  H217  1  0.356900  0.845500  0.368000  1.0
  H  H218  1  0.154500  0.643100  0.132000  1.0
  H  H219  1  0.643100  0.154500  0.632000  1.0
  H  H220  1  0.845500  0.356900  0.868000  1.0
  H  H221  1  0.949900  0.206500  0.418600  1.0
  H  H222  1  0.793500  0.050100  0.081400  1.0
  H  H223  1  0.050100  0.793500  0.581400  1.0
  H  H224  1  0.206500  0.949900  0.918600  1.0
  H  H225  1  0.027300  0.172500  0.310500  1.0
  H  H226  1  0.827500  0.972700  0.189500  1.0
  H  H227  1  0.972700  0.827500  0.689500  1.0
  H  H228  1  0.172500  0.027300  0.810500  1.0
  H  H229  1  0.824400  0.103600  0.300800  1.0
  H  H230  1  0.896400  0.175600  0.199200  1.0
  H  H231  1  0.175600  0.896400  0.699200  1.0
  H  H232  1  0.103600  0.824400  0.800800  1.0
  H  H233  1  0.830900  0.208900  0.319400  1.0
  H  H234  1  0.791100  0.169100  0.180600  1.0
  H  H235  1  0.169100  0.791100  0.680600  1.0
  H  H236  1  0.208900  0.830900  0.819400  1.0
  H  H237  1  0.410900  0.487700  0.189400  1.0
  H  H238  1  0.512300  0.589100  0.310600  1.0
  H  H239  1  0.589100  0.512300  0.810600  1.0
  H  H240  1  0.487700  0.410900  0.689400  1.0
  H  H241  1  0.366700  0.146100  0.104100  1.0
  H  H242  1  0.853900  0.633300  0.395900  1.0
  H  H243  1  0.633300  0.853900  0.895900  1.0
  H  H244  1  0.146100  0.366700  0.604100  1.0
  H  H245  1  0.253900  0.393900  0.403100  1.0
  H  H246  1  0.606100  0.746100  0.096900  1.0
  H  H247  1  0.746100  0.606100  0.596900  1.0
  H  H248  1  0.393900  0.253900  0.903100  1.0
  H  H249  1  0.671800  0.054400  0.271700  1.0
  H  H250  1  0.945600  0.328200  0.228300  1.0
  H  H251  1  0.328200  0.945600  0.728300  1.0
  H  H252  1  0.054400  0.671800  0.771700  1.0
  H  H253  1  0.426300  0.174500  0.207400  1.0
  H  H254  1  0.825500  0.573700  0.292600  1.0
  H  H255  1  0.573700  0.825500  0.792600  1.0
  H  H256  1  0.174500  0.426300  0.707400  1.0
  H  H257  1  0.342600  0.996600  0.313700  1.0
  H  H258  1  0.003400  0.657400  0.186300  1.0
  H  H259  1  0.657400  0.003400  0.686300  1.0
  H  H260  1  0.996600  0.342600  0.813700  1.0
  H  H261  1  0.382500  0.818300  0.488600  1.0
  H  H262  1  0.181700  0.617500  0.011400  1.0
  H  H263  1  0.617500  0.181700  0.511400  1.0
  H  H264  1  0.818300  0.382500  0.988600  1.0
  H  H265  1  0.205700  0.131500  0.104100  1.0
  H  H266  1  0.868500  0.794300  0.395900  1.0
  H  H267  1  0.794300  0.868500  0.895900  1.0
  H  H268  1  0.131500  0.205700  0.604100  1.0
  H  H269  1  0.109600  0.146200  0.209000  1.0
  H  H270  1  0.853800  0.890400  0.291000  1.0
  H  H271  1  0.890400  0.853800  0.791000  1.0
  H  H272  1  0.146200  0.109600  0.709000  1.0
  H  H273  1  0.431600  0.336200  0.240500  1.0
  H  H274  1  0.663800  0.568400  0.259500  1.0
  H  H275  1  0.568400  0.663800  0.759500  1.0
  H  H276  1  0.336200  0.431600  0.740500  1.0
  H  H277  1  0.409800  0.353200  0.584400  1.0
  H  H278  1  0.646800  0.590200  0.915600  1.0
  H  H279  1  0.590200  0.646800  0.415600  1.0
  H  H280  1  0.353200  0.409800  0.084400  1.0
  H  H281  1  0.525400  0.314800  0.369300  1.0
  H  H282  1  0.685200  0.474600  0.130700  1.0
  H  H283  1  0.474600  0.685200  0.630700  1.0
  H  H284  1  0.314800  0.525400  0.869300  1.0
  H  H285  1  0.511400  0.069400  0.296600  1.0
  H  H286  1  0.930600  0.488600  0.203400  1.0
  H  H287  1  0.488600  0.930600  0.703400  1.0
  H  H288  1  0.069400  0.511400  0.796600  1.0
  H  H289  1  0.404400  0.214600  0.659600  1.0
  H  H290  1  0.785400  0.595600  0.840400  1.0
  H  H291  1  0.595600  0.785400  0.340400  1.0
  H  H292  1  0.214600  0.404400  0.159600  1.0
  H  H293  1  0.232200  0.548000  0.357300  1.0
  H  H294  1  0.452000  0.767800  0.142700  1.0
  H  H295  1  0.767800  0.452000  0.642700  1.0
  H  H296  1  0.548000  0.232200  0.857300  1.0
  H  H297  1  0.234500  0.656900  0.249000  1.0
  H  H298  1  0.343100  0.765500  0.251000  1.0
  H  H299  1  0.765500  0.343100  0.751000  1.0
  H  H300  1  0.656900  0.234500  0.749000  1.0
  H  H301  1  0.310700  0.637300  0.184000  1.0
  H  H302  1  0.362700  0.689300  0.316000  1.0
  H  H303  1  0.689300  0.362700  0.816000  1.0
  H  H304  1  0.637300  0.310700  0.684000  1.0
  Ir  Ir305  1  0.351936  0.201464  0.364323  1.0
  Ir  Ir306  1  0.798536  0.648064  0.135677  1.0
  Ir  Ir307  1  0.648064  0.798536  0.635677  1.0
  Ir  Ir308  1  0.201464  0.351936  0.864323  1.0
  N  N309  1  0.076900  0.432100  0.269800  1
  N  N310  1  0.567900  0.923100  0.230200  1
  N  N311  1  0.923100  0.567900  0.730200  1
  N  N312  1  0.432100  0.076900  0.769800  1
  N  N313  1  0.017000  0.101600  0.105300  1
  N  N314  1  0.898400  0.983000  0.394700  1
  N  N315  1  0.983000  0.898400  0.894700  1
  N  N316  1  0.101600  0.017000  0.605300  1
  N  N317  1  0.344760  0.348360  0.325900  1.0
  N  N318  1  0.651640  0.655240  0.174100  1.0
  N  N319  1  0.655240  0.651640  0.674100  1.0
  N  N320  1  0.348360  0.344760  0.825900  1.0
  N  N321  1  0.501970  0.194370  0.334300  1.0
  N  N322  1  0.805630  0.498030  0.165700  1.0
  N  N323  1  0.498030  0.805630  0.665700  1.0
  N  N324  1  0.194370  0.501970  0.834300  1.0
  N  N325  1  0.380900  0.212100  0.466800  1.0
  N  N326  1  0.787900  0.619100  0.033200  1.0
  N  N327  1  0.619100  0.787900  0.533200  1.0
  N  N328  1  0.212100  0.380900  0.966800  1.0
  N  N329  1  0.307000  0.178400  0.268500  1.0
  N  N330  1  0.821600  0.693000  0.231500  1.0
  N  N331  1  0.693000  0.821600  0.731500  1.0
  N  N332  1  0.178400  0.307000  0.768500  1.0
  O  O333  1  0.563100  0.208700  0.117700  1
  O  O334  1  0.791300  0.436900  0.382300  1
  O  O335  1  0.436900  0.791300  0.882300  1
  O  O336  1  0.208700  0.563100  0.617700  1
  O  O337  1  0.484100  0.218500  0.010100  1
  O  O338  1  0.781500  0.515900  0.489900  1
  O  O339  1  0.515900  0.781500  0.989900  1
  O  O340  1  0.218500  0.484100  0.510100  1
  O  O341  1  0.557200  0.353200  0.041400  1
  O  O342  1  0.646800  0.442800  0.458600  1
  O  O343  1  0.442800  0.646800  0.958600  1
  O  O344  1  0.353200  0.557200  0.541400  1
  S  S345  1  0.554040  0.252600  0.048740  1
  S  S346  1  0.747400  0.445960  0.451260  1
  S  S347  1  0.445960  0.747400  0.951260  1
  S  S348  1  0.252600  0.554040  0.548740  1
