# generated using pymatgen
data_H26IrC35SN4O5F3
_symmetry_space_group_name_H-M   'P 1'
_cell_length_a   10.83460000
_cell_length_b   19.25490000
_cell_length_c   42.13900000
_cell_angle_alpha   90.00000000
_cell_angle_beta   90.00000000
_cell_angle_gamma   103.90400000
_symmetry_Int_Tables_number   1
_chemical_formula_structural   H26IrC35SN4O5F3
_chemical_formula_sum   'H208 Ir8 C280 S8 N32 O40 F24'
_cell_volume   8533.42299897
_cell_formula_units_Z   8
loop_
 _symmetry_equiv_pos_site_id
 _symmetry_equiv_pos_as_xyz
  1  'x, y, z'
loop_
 _atom_site_type_symbol
 _atom_site_label
 _atom_site_symmetry_multiplicity
 _atom_site_fract_x
 _atom_site_fract_y
 _atom_site_fract_z
 _atom_site_occupancy
  H  H1  1  0.895100  0.616200  0.951700  1
  H  H2  1  0.604900  0.383800  0.451700  1
  H  H3  1  0.104900  0.383800  0.048300  1
  H  H4  1  0.395100  0.616200  0.548300  1
  H  H5  1  0.046100  0.576700  0.035800  1
  H  H6  1  0.453900  0.423300  0.535800  1
  H  H7  1  0.953900  0.423300  0.964200  1
  H  H8  1  0.546100  0.576700  0.464200  1
  H  H9  1  0.188700  0.801400  0.034700  1
  H  H10  1  0.311300  0.198600  0.534700  1
  H  H11  1  0.811300  0.198600  0.965300  1
  H  H12  1  0.688700  0.801400  0.465300  1
  H  H13  1  0.385200  0.889700  0.164700  1
  H  H14  1  0.114800  0.110300  0.664700  1
  H  H15  1  0.614800  0.110300  0.835300  1
  H  H16  1  0.885200  0.889700  0.335300  1
  H  H17  1  0.586000  0.852000  0.075800  1
  H  H18  1  0.914000  0.148000  0.575800  1
  H  H19  1  0.414000  0.148000  0.924200  1
  H  H20  1  0.086000  0.852000  0.424200  1
  H  H21  1  0.545800  0.811300  0.026100  1
  H  H22  1  0.954200  0.188700  0.526100  1
  H  H23  1  0.454200  0.188700  0.973900  1
  H  H24  1  0.045800  0.811300  0.473900  1
  H  H25  1  0.500600  0.916500  0.121700  1
  H  H26  1  0.999400  0.083500  0.621700  1
  H  H27  1  0.499400  0.083500  0.878300  1
  H  H28  1  0.000600  0.916500  0.378300  1
  H  H29  1  0.077500  0.709600  0.943500  1
  H  H30  1  0.422500  0.290400  0.443500  1
  H  H31  1  0.922500  0.290400  0.056500  1
  H  H32  1  0.577500  0.709600  0.556500  1
  H  H33  1  0.225000  0.664500  0.025400  1
  H  H34  1  0.275000  0.335500  0.525400  1
  H  H35  1  0.775000  0.335500  0.974600  1
  H  H36  1  0.725000  0.664500  0.474600  1
  H  H37  1  0.170900  0.442200  0.182900  1
  H  H38  1  0.329100  0.557800  0.682900  1
  H  H39  1  0.829100  0.557800  0.817100  1
  H  H40  1  0.670900  0.442200  0.317100  1
  H  H41  1  0.050400  0.510800  0.157100  1
  H  H42  1  0.449600  0.489200  0.657100  1
  H  H43  1  0.949600  0.489200  0.842900  1
  H  H44  1  0.550400  0.510800  0.342900  1
  H  H45  1  0.209600  0.833100  0.085700  1
  H  H46  1  0.290400  0.166900  0.585700  1
  H  H47  1  0.790400  0.166900  0.914300  1
  H  H48  1  0.709600  0.833100  0.414300  1
  H  H49  1  0.797700  0.510700  0.980700  1
  H  H50  1  0.702300  0.489300  0.480700  1
  H  H51  1  0.202300  0.489300  0.019300  1
  H  H52  1  0.297700  0.510700  0.519300  1
  H  H53  1  0.719700  0.458100  0.024800  1
  H  H54  1  0.780300  0.541900  0.524800  1
  H  H55  1  0.280300  0.541900  0.975200  1
  H  H56  1  0.219700  0.458100  0.475200  1
  H  H57  1  0.065400  0.518800  0.266000  1
  H  H58  1  0.434600  0.481200  0.766000  1
  H  H59  1  0.934600  0.481200  0.734000  1
  H  H60  1  0.565400  0.518800  0.234000  1
  H  H61  1  0.477000  0.741100  0.137200  1
  H  H62  1  0.023000  0.258900  0.637200  1
  H  H63  1  0.523000  0.258900  0.862800  1
  H  H64  1  0.977000  0.741100  0.362800  1
  H  H65  1  0.696400  0.806300  0.134800  1
  H  H66  1  0.803600  0.193700  0.634800  1
  H  H67  1  0.303600  0.193700  0.865200  1
  H  H68  1  0.196400  0.806300  0.365200  1
  H  H69  1  0.829000  0.731500  0.141000  1
  H  H70  1  0.671000  0.268500  0.641000  1
  H  H71  1  0.171000  0.268500  0.859000  1
  H  H72  1  0.329000  0.731500  0.359000  1
  H  H73  1  0.433900  0.622300  0.151900  1
  H  H74  1  0.066100  0.377700  0.651900  1
  H  H75  1  0.566100  0.377700  0.848100  1
  H  H76  1  0.933900  0.622300  0.348100  1
  H  H77  1  0.188400  0.444200  0.236300  1
  H  H78  1  0.311600  0.555800  0.736300  1
  H  H79  1  0.811600  0.555800  0.763700  1
  H  H80  1  0.688400  0.444200  0.263700  1
  H  H81  1  0.901000  0.664500  0.105000  1
  H  H82  1  0.599000  0.335500  0.605000  1
  H  H83  1  0.099000  0.335500  0.895000  1
  H  H84  1  0.401000  0.664500  0.395000  1
  H  H85  1  0.520900  0.610400  0.911800  1
  H  H86  1  0.979100  0.389600  0.411800  1
  H  H87  1  0.479100  0.389600  0.088200  1
  H  H88  1  0.020900  0.610400  0.588200  1
  H  H89  1  0.394400  0.391600  0.181000  1
  H  H90  1  0.105600  0.608400  0.681000  1
  H  H91  1  0.605600  0.608400  0.819000  1
  H  H92  1  0.894400  0.391600  0.319000  1
  H  H93  1  0.987600  0.913900  0.978900  1
  H  H94  1  0.512400  0.086100  0.478900  1
  H  H95  1  0.012400  0.086100  0.021100  1
  H  H96  1  0.487600  0.913900  0.521100  1
  H  H97  1  0.110100  0.636800  0.131000  1
  H  H98  1  0.389900  0.363200  0.631000  1
  H  H99  1  0.889900  0.363200  0.869000  1
  H  H100  1  0.610100  0.636800  0.369000  1
  H  H101  1  0.407600  0.653300  0.876800  1
  H  H102  1  0.092400  0.346700  0.376800  1
  H  H103  1  0.592400  0.346700  0.123200  1
  H  H104  1  0.907600  0.653300  0.623200  1
  H  H105  1  0.795600  0.423100  0.080000  1
  H  H106  1  0.704400  0.576900  0.580000  1
  H  H107  1  0.204400  0.576900  0.920000  1
  H  H108  1  0.295600  0.423100  0.420000  1
  H  H109  1  0.994300  0.755600  0.196500  1
  H  H110  1  0.505700  0.244400  0.696500  1
  H  H111  1  0.005700  0.244400  0.803500  1
  H  H112  1  0.494300  0.755600  0.303500  1
  H  H113  1  0.637200  0.812100  0.959400  1
  H  H114  1  0.862800  0.187900  0.459400  1
  H  H115  1  0.362800  0.187900  0.040600  1
  H  H116  1  0.137200  0.812100  0.540600  1
  H  H117  1  0.753600  0.025200  0.944700  1
  H  H118  1  0.746400  0.974800  0.444700  1
  H  H119  1  0.246400  0.974800  0.055300  1
  H  H120  1  0.253600  0.025200  0.555300  1
  H  H121  1  0.163300  0.849700  0.185300  1
  H  H122  1  0.336700  0.150300  0.685300  1
  H  H123  1  0.836700  0.150300  0.814700  1
  H  H124  1  0.663300  0.849700  0.314700  1
  H  H125  1  0.076600  0.818400  0.982300  1
  H  H126  1  0.423400  0.181600  0.482300  1
  H  H127  1  0.923400  0.181600  0.017700  1
  H  H128  1  0.576600  0.818400  0.517700  1
  H  H129  1  0.121900  0.027200  0.967600  1
  H  H130  1  0.378100  0.972800  0.467600  1
  H  H131  1  0.878100  0.972800  0.032400  1
  H  H132  1  0.621900  0.027200  0.532400  1
  H  H133  1  0.832100  0.462100  0.131300  1
  H  H134  1  0.667900  0.537900  0.631300  1
  H  H135  1  0.167900  0.537900  0.868700  1
  H  H136  1  0.332100  0.462100  0.368700  1
  H  H137  1  0.410800  0.506600  0.160700  1
  H  H138  1  0.089200  0.493400  0.660700  1
  H  H139  1  0.589200  0.493400  0.839300  1
  H  H140  1  0.910800  0.506600  0.339300  1
  H  H141  1  0.567700  0.353300  0.201400  1
  H  H142  1  0.932300  0.646700  0.701400  1
  H  H143  1  0.432300  0.646700  0.798600  1
  H  H144  1  0.067700  0.353300  0.298600  1
  H  H145  1  0.214700  0.800900  0.857500  1
  H  H146  1  0.285300  0.199100  0.357500  1
  H  H147  1  0.785300  0.199100  0.142500  1
  H  H148  1  0.714700  0.800900  0.642500  1
  H  H149  1  0.853300  0.630000  0.053000  1
  H  H150  1  0.646700  0.370000  0.553000  1
  H  H151  1  0.146700  0.370000  0.947000  1
  H  H152  1  0.353300  0.630000  0.447000  1
  H  H153  1  0.728000  0.718400  0.268900  1
  H  H154  1  0.772000  0.281600  0.768900  1
  H  H155  1  0.272000  0.281600  0.731100  1
  H  H156  1  0.228000  0.718400  0.231100  1
  H  H157  1  0.730700  0.697100  0.213500  1
  H  H158  1  0.769300  0.302900  0.713500  1
  H  H159  1  0.269300  0.302900  0.786500  1
  H  H160  1  0.230700  0.697100  0.286500  1
  H  H161  1  0.285000  0.725900  0.121700  1
  H  H162  1  0.215000  0.274100  0.621700  1
  H  H163  1  0.715000  0.274100  0.878300  1
  H  H164  1  0.785000  0.725900  0.378300  1
  H  H165  1  0.956700  0.599100  0.287800  1
  H  H166  1  0.543300  0.400900  0.787800  1
  H  H167  1  0.043300  0.400900  0.712200  1
  H  H168  1  0.456700  0.599100  0.212200  1
  H  H169  1  0.476700  0.693500  0.013900  1
  H  H170  1  0.023300  0.306500  0.513900  1
  H  H171  1  0.523300  0.306500  0.986100  1
  H  H172  1  0.976700  0.693500  0.486100  1
  H  H173  1  0.782000  0.443300  0.193700  1
  H  H174  1  0.718000  0.556700  0.693700  1
  H  H175  1  0.218000  0.556700  0.806300  1
  H  H176  1  0.282000  0.443300  0.306300  1
  H  H177  1  0.200600  0.825700  0.911400  1
  H  H178  1  0.299400  0.174300  0.411400  1
  H  H179  1  0.799400  0.174300  0.088600  1
  H  H180  1  0.700600  0.825700  0.588600  1
  H  H181  1  0.792700  0.911500  0.949000  1
  H  H182  1  0.707300  0.088500  0.449000  1
  H  H183  1  0.207300  0.088500  0.051000  1
  H  H184  1  0.292700  0.911500  0.551000  1
  H  H185  1  0.542200  0.034700  0.957900  1
  H  H186  1  0.957800  0.965300  0.457900  1
  H  H187  1  0.457800  0.965300  0.042100  1
  H  H188  1  0.042200  0.034700  0.542100  1
  H  H189  1  0.338900  0.035100  0.958900  1
  H  H190  1  0.161100  0.964900  0.458900  1
  H  H191  1  0.661100  0.964900  0.041100  1
  H  H192  1  0.838900  0.035100  0.541100  1
  H  H193  1  0.616600  0.568400  0.952500  1
  H  H194  1  0.883400  0.431600  0.452500  1
  H  H195  1  0.383400  0.431600  0.047500  1
  H  H196  1  0.116600  0.568400  0.547500  1
  H  H197  1  0.831400  0.670000  0.304100  1
  H  H198  1  0.668600  0.330000  0.804100  1
  H  H199  1  0.168600  0.330000  0.695900  1
  H  H200  1  0.331400  0.670000  0.195900  1
  H  H201  1  0.295400  0.704500  0.841800  1
  H  H202  1  0.204600  0.295500  0.341800  1
  H  H203  1  0.704600  0.295500  0.158200  1
  H  H204  1  0.795400  0.704500  0.658200  1
  H  H205  1  0.591800  0.604900  0.005400  1
  H  H206  1  0.908200  0.395100  0.505400  1
  H  H207  1  0.408200  0.395100  0.994600  1
  H  H208  1  0.091800  0.604900  0.494600  1
  Ir  Ir209  1  0.865710  0.600380  0.172682  1
  Ir  Ir210  1  0.634290  0.399620  0.672682  1
  Ir  Ir211  1  0.134290  0.399620  0.827318  1
  Ir  Ir212  1  0.365710  0.600380  0.327318  1
  Ir  Ir213  1  0.337910  0.782430  0.973720  1
  Ir  Ir214  1  0.162090  0.217570  0.473720  1
  Ir  Ir215  1  0.662090  0.217570  0.026280  1
  Ir  Ir216  1  0.837910  0.782430  0.526280  1
  C  C217  1  0.960000  0.627600  0.967200  1
  C  C218  1  0.540000  0.372400  0.467200  1
  C  C219  1  0.040000  0.372400  0.032800  1
  C  C220  1  0.460000  0.627600  0.532800  1
  C  C221  1  0.051200  0.604200  0.017000  1
  C  C222  1  0.448800  0.395800  0.517000  1
  C  C223  1  0.948800  0.395800  0.983000  1
  C  C224  1  0.551200  0.604200  0.483000  1
  C  C225  1  0.951300  0.591300  0.995800  1
  C  C226  1  0.548700  0.408700  0.495800  1
  C  C227  1  0.048700  0.408700  0.004200  1
  C  C228  1  0.451300  0.591300  0.504200  1
  C  C229  1  0.271700  0.811700  0.043500  1
  C  C230  1  0.228300  0.188300  0.543500  1
  C  C231  1  0.728300  0.188300  0.956500  1
  C  C232  1  0.771700  0.811700  0.456500  1
  C  C233  1  0.358000  0.860000  0.146800  1
  C  C234  1  0.142000  0.140000  0.646800  1
  C  C235  1  0.642000  0.140000  0.853200  1
  C  C236  1  0.858000  0.860000  0.353200  1
  C  C237  1  0.501000  0.840400  0.068300  1
  C  C238  1  0.999000  0.159600  0.568300  1
  C  C239  1  0.499000  0.159600  0.931700  1
  C  C240  1  0.001000  0.840400  0.431700  1
  C  C241  1  0.476500  0.818500  0.038400  1
  C  C242  1  0.023500  0.181500  0.538400  1
  C  C243  1  0.523500  0.181500  0.961600  1
  C  C244  1  0.976500  0.818500  0.461600  1
  C  C245  1  0.427200  0.878100  0.119800  1
  C  C246  1  0.072800  0.121900  0.619800  1
  C  C247  1  0.572800  0.121900  0.880200  1
  C  C248  1  0.927200  0.878100  0.380200  1
  C  C249  1  0.071000  0.682500  0.962500  1
  C  C250  1  0.429000  0.317500  0.462500  1
  C  C251  1  0.929000  0.317500  0.037500  1
  C  C252  1  0.571000  0.682500  0.537500  1
  C  C253  1  0.156600  0.656300  0.010700  1
  C  C254  1  0.343400  0.343700  0.510700  1
  C  C255  1  0.843400  0.343700  0.989300  1
  C  C256  1  0.656600  0.656300  0.489300  1
  C  C257  1  0.127000  0.469800  0.195200  1
  C  C258  1  0.373000  0.530200  0.695200  1
  C  C259  1  0.873000  0.530200  0.804800  1
  C  C260  1  0.627000  0.469800  0.304800  1
  C  C261  1  0.049000  0.510600  0.179600  1
  C  C262  1  0.451000  0.489400  0.679600  1
  C  C263  1  0.951000  0.489400  0.820400  1
  C  C264  1  0.549000  0.510600  0.320400  1
  C  C265  1  0.283000  0.830400  0.073800  1
  C  C266  1  0.217000  0.169600  0.573800  1
  C  C267  1  0.717000  0.169600  0.926200  1
  C  C268  1  0.783000  0.830400  0.426200  1
  C  C269  1  0.992000  0.551500  0.225500  1
  C  C270  1  0.508000  0.448500  0.725500  1
  C  C271  1  0.008000  0.448500  0.774500  1
  C  C272  1  0.492000  0.551500  0.274500  1
  C  C273  1  0.838300  0.530700  0.999700  1
  C  C274  1  0.661700  0.469300  0.499700  1
  C  C275  1  0.161700  0.469300  0.000300  1
  C  C276  1  0.338300  0.530700  0.500300  1
  C  C277  1  0.403300  0.846000  0.088100  1
  C  C278  1  0.096700  0.154000  0.588100  1
  C  C279  1  0.596700  0.154000  0.911900  1
  C  C280  1  0.903300  0.846000  0.411900  1
  C  C281  1  0.786000  0.500200  0.027100  1
  C  C282  1  0.714000  0.499800  0.527100  1
  C  C283  1  0.214000  0.499800  0.972900  1
  C  C284  1  0.286000  0.500200  0.472900  1
  C  C285  1  0.708300  0.520500  0.179600  1
  C  C286  1  0.791700  0.479500  0.679600  1
  C  C287  1  0.291700  0.479500  0.820400  1
  C  C288  1  0.208300  0.520500  0.320400  1
  C  C289  1  0.063000  0.515500  0.243600  1
  C  C290  1  0.437000  0.484500  0.743600  1
  C  C291  1  0.937000  0.484500  0.756400  1
  C  C292  1  0.563000  0.515500  0.256400  1
  C  C293  1  0.545000  0.719000  0.141700  1
  C  C294  1  0.955000  0.281000  0.641700  1
  C  C295  1  0.455000  0.281000  0.858300  1
  C  C296  1  0.045000  0.719000  0.358300  1
  C  C297  1  0.668000  0.756900  0.139800  1
  C  C298  1  0.832000  0.243100  0.639800  1
  C  C299  1  0.332000  0.243100  0.860200  1
  C  C300  1  0.168000  0.756900  0.360200  1
  C  C301  1  0.853700  0.631200  0.218500  1
  C  C302  1  0.646300  0.368800  0.718500  1
  C  C303  1  0.146300  0.368800  0.781500  1
  C  C304  1  0.353700  0.631200  0.281500  1
  C  C305  1  0.492900  0.860700  0.964200  1
  C  C306  1  0.007100  0.139300  0.464200  1
  C  C307  1  0.507100  0.139300  0.035800  1
  C  C308  1  0.992900  0.860700  0.535800  1
  C  C309  1  0.743000  0.710000  0.146600  1
  C  C310  1  0.757000  0.290000  0.646600  1
  C  C311  1  0.257000  0.290000  0.853400  1
  C  C312  1  0.243000  0.710000  0.353400  1
  C  C313  1  0.618000  0.614100  0.156300  1
  C  C314  1  0.882000  0.385900  0.656300  1
  C  C315  1  0.382000  0.385900  0.843700  1
  C  C316  1  0.118000  0.614100  0.343700  1
  C  C317  1  0.520000  0.648700  0.150100  1
  C  C318  1  0.980000  0.351300  0.650100  1
  C  C319  1  0.480000  0.351300  0.849900  1
  C  C320  1  0.020000  0.648700  0.349900  1
  C  C321  1  0.243000  0.798800  0.151900  1
  C  C322  1  0.257000  0.201200  0.651900  1
  C  C323  1  0.757000  0.201200  0.848100  1
  C  C324  1  0.743000  0.798800  0.348100  1
  C  C325  1  0.137000  0.470500  0.225600  1
  C  C326  1  0.363000  0.529500  0.725600  1
  C  C327  1  0.863000  0.529500  0.774400  1
  C  C328  1  0.637000  0.470500  0.274400  1
  C  C329  1  0.877200  0.615000  0.100100  1
  C  C330  1  0.622800  0.385000  0.600100  1
  C  C331  1  0.122800  0.385000  0.899900  1
  C  C332  1  0.377200  0.615000  0.399900  1
  C  C333  1  0.513000  0.627400  0.932700  1
  C  C334  1  0.987000  0.372600  0.432700  1
  C  C335  1  0.487000  0.372600  0.067300  1
  C  C336  1  0.013000  0.627400  0.567300  1
  C  C337  1  0.476000  0.423800  0.180700  1
  C  C338  1  0.024000  0.576200  0.680700  1
  C  C339  1  0.524000  0.576200  0.819300  1
  C  C340  1  0.976000  0.423800  0.319300  1
  C  C341  1  0.378000  0.713100  0.915100  1
  C  C342  1  0.122000  0.286900  0.415100  1
  C  C343  1  0.622000  0.286900  0.084900  1
  C  C344  1  0.878000  0.713100  0.584900  1
  C  C345  1  0.076200  0.919700  0.975600  1
  C  C346  1  0.423800  0.080300  0.475600  1
  C  C347  1  0.923800  0.080300  0.024400  1
  C  C348  1  0.576200  0.919700  0.524400  1
  C  C349  1  0.818100  0.524100  0.060200  1
  C  C350  1  0.681900  0.475900  0.560200  1
  C  C351  1  0.181900  0.475900  0.939800  1
  C  C352  1  0.318100  0.524100  0.439800  1
  C  C353  1  0.120900  0.680300  0.142500  1
  C  C354  1  0.379100  0.319700  0.642500  1
  C  C355  1  0.879100  0.319700  0.857500  1
  C  C356  1  0.620900  0.680300  0.357500  1
  C  C357  1  0.369000  0.690000  0.883500  1
  C  C358  1  0.131000  0.310000  0.383500  1
  C  C359  1  0.631000  0.310000  0.116500  1
  C  C360  1  0.869000  0.690000  0.616500  1
  C  C361  1  0.814400  0.472800  0.084700  1
  C  C362  1  0.685600  0.527200  0.584700  1
  C  C363  1  0.185600  0.527200  0.915300  1
  C  C364  1  0.314400  0.472800  0.415300  1
  C  C365  1  0.052000  0.750000  0.180400  1
  C  C366  1  0.448000  0.250000  0.680400  1
  C  C367  1  0.948000  0.250000  0.819600  1
  C  C368  1  0.552000  0.750000  0.319600  1
  C  C369  1  0.616000  0.857200  0.958700  1
  C  C370  1  0.884000  0.142800  0.458700  1
  C  C371  1  0.384000  0.142800  0.041300  1
  C  C372  1  0.116000  0.857200  0.541300  1
  C  C373  1  0.466000  0.931400  0.962700  1
  C  C374  1  0.034000  0.068600  0.462700  1
  C  C375  1  0.534000  0.068600  0.037300  1
  C  C376  1  0.966000  0.931400  0.537300  1
  C  C377  1  0.688000  0.984500  0.950200  1
  C  C378  1  0.812000  0.015500  0.450200  1
  C  C379  1  0.312000  0.015500  0.049800  1
  C  C380  1  0.188000  0.984500  0.549800  1
  C  C381  1  0.320000  0.763800  0.927300  1
  C  C382  1  0.180000  0.236200  0.427300  1
  C  C383  1  0.680000  0.236200  0.072700  1
  C  C384  1  0.820000  0.763800  0.572700  1
  C  C385  1  0.154000  0.805800  0.174200  1
  C  C386  1  0.346000  0.194200  0.674200  1
  C  C387  1  0.846000  0.194200  0.825800  1
  C  C388  1  0.654000  0.805800  0.325800  1
  C  C389  1  0.130500  0.863800  0.977300  1
  C  C390  1  0.369500  0.136200  0.477300  1
  C  C391  1  0.869500  0.136200  0.022700  1
  C  C392  1  0.630500  0.863800  0.522700  1
  C  C393  1  0.155000  0.985700  0.968900  1
  C  C394  1  0.345000  0.014300  0.468900  1
  C  C395  1  0.845000  0.014300  0.031100  1
  C  C396  1  0.655000  0.985700  0.531100  1
  C  C397  1  0.838000  0.496500  0.114800  1
  C  C398  1  0.662000  0.503500  0.614800  1
  C  C399  1  0.162000  0.503500  0.885200  1
  C  C400  1  0.338000  0.496500  0.385200  1
  C  C401  1  0.484000  0.493000  0.168200  1
  C  C402  1  0.016000  0.507000  0.668200  1
  C  C403  1  0.516000  0.507000  0.831800  1
  C  C404  1  0.984000  0.493000  0.331800  1
  C  C405  1  0.576000  0.399300  0.192300  1
  C  C406  1  0.924000  0.600700  0.692300  1
  C  C407  1  0.424000  0.600700  0.807700  1
  C  C408  1  0.076000  0.399300  0.307700  1
  C  C409  1  0.251000  0.775400  0.872800  1
  C  C410  1  0.249000  0.224600  0.372800  1
  C  C411  1  0.749000  0.224600  0.127200  1
  C  C412  1  0.751000  0.775400  0.627200  1
  C  C413  1  0.849900  0.594400  0.068800  1
  C  C414  1  0.650100  0.405600  0.568800  1
  C  C415  1  0.150100  0.405600  0.931200  1
  C  C416  1  0.349900  0.594400  0.431200  1
  C  C417  1  0.778000  0.687400  0.261400  1
  C  C418  1  0.722000  0.312600  0.761400  1
  C  C419  1  0.222000  0.312600  0.738600  1
  C  C420  1  0.278000  0.687400  0.238600  1
  C  C421  1  0.440000  0.680900  0.937800  1
  C  C422  1  0.060000  0.319100  0.437800  1
  C  C423  1  0.560000  0.319100  0.062200  1
  C  C424  1  0.940000  0.680900  0.562200  1
  C  C425  1  0.778100  0.675900  0.227900  1
  C  C426  1  0.721900  0.324100  0.727900  1
  C  C427  1  0.221900  0.324100  0.772100  1
  C  C428  1  0.278100  0.675900  0.272100  1
  C  C429  1  0.223800  0.733400  0.136700  1
  C  C430  1  0.276200  0.266600  0.636700  1
  C  C431  1  0.776200  0.266600  0.863300  1
  C  C432  1  0.723800  0.733400  0.363300  1
  C  C433  1  0.598000  0.538600  0.167200  1
  C  C434  1  0.902000  0.461400  0.667200  1
  C  C435  1  0.402000  0.461400  0.832800  1
  C  C436  1  0.098000  0.538600  0.332800  1
  C  C437  1  0.909000  0.617800  0.272600  1
  C  C438  1  0.591000  0.382200  0.772600  1
  C  C439  1  0.091000  0.382200  0.727400  1
  C  C440  1  0.409000  0.617800  0.227400  1
  C  C441  1  0.486000  0.676900  0.993000  1
  C  C442  1  0.014000  0.323100  0.493000  1
  C  C443  1  0.514000  0.323100  0.007000  1
  C  C444  1  0.986000  0.676900  0.507000  1
  C  C445  1  0.334400  0.931500  0.966600  1
  C  C446  1  0.165600  0.068500  0.466600  1
  C  C447  1  0.665600  0.068500  0.033400  1
  C  C448  1  0.834400  0.931500  0.533400  1
  C  C449  1  0.705000  0.456200  0.188900  1
  C  C450  1  0.795000  0.543800  0.688900  1
  C  C451  1  0.295000  0.543800  0.811100  1
  C  C452  1  0.205000  0.456200  0.311100  1
  C  C453  1  0.249000  0.793400  0.904700  1
  C  C454  1  0.251000  0.206600  0.404700  1
  C  C455  1  0.751000  0.206600  0.095300  1
  C  C456  1  0.749000  0.793400  0.595300  1
  C  C457  1  0.709000  0.916800  0.952300  1
  C  C458  1  0.791000  0.083200  0.452300  1
  C  C459  1  0.291000  0.083200  0.047700  1
  C  C460  1  0.209000  0.916800  0.547700  1
  C  C461  1  0.560000  0.988800  0.957200  1
  C  C462  1  0.940000  0.011200  0.457200  1
  C  C463  1  0.440000  0.011200  0.042800  1
  C  C464  1  0.060000  0.988800  0.542800  1
  C  C465  1  0.284000  0.990200  0.964100  1
  C  C466  1  0.216000  0.009800  0.464100  1
  C  C467  1  0.716000  0.009800  0.035900  1
  C  C468  1  0.784000  0.990200  0.535900  1
  C  C469  1  0.916000  0.599000  0.240100  1
  C  C470  1  0.584000  0.401000  0.740100  1
  C  C471  1  0.084000  0.401000  0.759900  1
  C  C472  1  0.416000  0.599000  0.259900  1
  C  C473  1  0.568000  0.602300  0.956600  1
  C  C474  1  0.932000  0.397700  0.456600  1
  C  C475  1  0.432000  0.397700  0.043400  1
  C  C476  1  0.068000  0.602300  0.543400  1
  C  C477  1  0.838000  0.660000  0.282200  1
  C  C478  1  0.662000  0.340000  0.782200  1
  C  C479  1  0.162000  0.340000  0.717800  1
  C  C480  1  0.338000  0.660000  0.217800  1
  C  C481  1  0.305000  0.720500  0.863200  1
  C  C482  1  0.195000  0.279500  0.363200  1
  C  C483  1  0.695000  0.279500  0.136800  1
  C  C484  1  0.805000  0.720500  0.636800  1
  C  C485  1  0.555000  0.624500  0.988200  1
  C  C486  1  0.945000  0.375500  0.488200  1
  C  C487  1  0.445000  0.375500  0.011800  1
  C  C488  1  0.055000  0.624500  0.511800  1
  C  C489  1  0.836600  0.788400  0.041000  1
  C  C490  1  0.663400  0.211600  0.541000  1
  C  C491  1  0.163400  0.211600  0.959000  1
  C  C492  1  0.336600  0.788400  0.459000  1
  C  C493  1  0.386000  0.582000  0.076500  1
  C  C494  1  0.114000  0.418000  0.576500  1
  C  C495  1  0.614000  0.418000  0.923500  1
  C  C496  1  0.886000  0.582000  0.423500  1
  S  S497  1  0.916400  0.838500  0.070550  1
  S  S498  1  0.583600  0.161500  0.570550  1
  S  S499  1  0.083600  0.161500  0.929450  1
  S  S500  1  0.416400  0.838500  0.429450  1
  S  S501  1  0.245600  0.531900  0.093640  1
  S  S502  1  0.254400  0.468100  0.593640  1
  S  S503  1  0.754400  0.468100  0.906360  1
  S  S504  1  0.745600  0.531900  0.406360  1
  N  N505  1  0.365700  0.806300  0.024600  1
  N  N506  1  0.134300  0.193700  0.524600  1
  N  N507  1  0.634300  0.193700  0.975400  1
  N  N508  1  0.865700  0.806300  0.475400  1
  N  N509  1  0.737300  0.653500  0.156700  1
  N  N510  1  0.762700  0.346500  0.656700  1
  N  N511  1  0.262700  0.346500  0.843300  1
  N  N512  1  0.237300  0.653500  0.343300  1
  N  N513  1  0.980500  0.545500  0.192700  1
  N  N514  1  0.519500  0.454500  0.692700  1
  N  N515  1  0.019500  0.454500  0.807300  1
  N  N516  1  0.480500  0.545500  0.307300  1
  N  N517  1  0.168500  0.698700  0.983300  1
  N  N518  1  0.331500  0.301300  0.483300  1
  N  N519  1  0.831500  0.301300  0.016700  1
  N  N520  1  0.668500  0.698700  0.516700  1
  N  N521  1  0.030800  0.686500  0.164500  1
  N  N522  1  0.469200  0.313500  0.664500  1
  N  N523  1  0.969200  0.313500  0.835500  1
  N  N524  1  0.530800  0.686500  0.335500  1
  N  N525  1  0.253100  0.866500  0.972700  1
  N  N526  1  0.246900  0.133500  0.472700  1
  N  N527  1  0.746900  0.133500  0.027300  1
  N  N528  1  0.753100  0.866500  0.527300  1
  N  N529  1  0.435200  0.702400  0.969900  1
  N  N530  1  0.064800  0.297600  0.469900  1
  N  N531  1  0.564800  0.297600  0.030100  1
  N  N532  1  0.935200  0.702400  0.530100  1
  N  N533  1  0.871200  0.568100  0.122900  1
  N  N534  1  0.628800  0.431900  0.622900  1
  N  N535  1  0.128800  0.431900  0.877100  1
  N  N536  1  0.371200  0.568100  0.377100  1
  O  O537  1  0.822300  0.870800  0.084400  1
  O  O538  1  0.677700  0.129200  0.584400  1
  O  O539  1  0.177700  0.129200  0.915600  1
  O  O540  1  0.322300  0.870800  0.415600  1
  O  O541  1  0.955900  0.788300  0.090600  1
  O  O542  1  0.544100  0.211700  0.590600  1
  O  O543  1  0.044100  0.211700  0.909400  1
  O  O544  1  0.455900  0.788300  0.409400  1
  O  O545  1  0.018400  0.889300  0.055700  1
  O  O546  1  0.481600  0.110700  0.555700  1
  O  O547  1  0.981600  0.110700  0.944300  1
  O  O548  1  0.518400  0.889300  0.444300  1
  O  O549  1  0.254600  0.545900  0.126700  1
  O  O550  1  0.245400  0.454100  0.626700  1
  O  O551  1  0.745400  0.454100  0.873300  1
  O  O552  1  0.754600  0.545900  0.373300  1
  O  O553  1  0.244000  0.459900  0.087600  1
  O  O554  1  0.256000  0.540100  0.587600  1
  O  O555  1  0.756000  0.540100  0.912400  1
  O  O556  1  0.744000  0.459900  0.412400  1
  O  O557  1  0.148000  0.557900  0.080900  1
  O  O558  1  0.352000  0.442100  0.580900  1
  O  O559  1  0.852000  0.442100  0.919100  1
  O  O560  1  0.648000  0.557900  0.419100  1
  O  O561  1  0.868700  0.776600  0.916600  1
  O  O562  1  0.631300  0.223400  0.416600  1
  O  O563  1  0.131300  0.223400  0.083400  1
  O  O564  1  0.368700  0.776600  0.583400  1
  O  O565  1  0.121000  0.962200  0.134900  1
  O  O566  1  0.379000  0.037800  0.634900  1
  O  O567  1  0.879000  0.037800  0.865100  1
  O  O568  1  0.621000  0.962200  0.365100  1
  O  O569  1  0.968000  0.657500  0.876000  1
  O  O570  1  0.532000  0.342500  0.376000  1
  O  O571  1  0.032000  0.342500  0.124000  1
  O  O572  1  0.468000  0.657500  0.624000  1
  O  O573  1  0.546000  0.057900  0.156100  1
  O  O574  1  0.954000  0.942100  0.656100  1
  O  O575  1  0.454000  0.942100  0.843900  1
  O  O576  1  0.046000  0.057900  0.343900  1
  F  F577  1  0.794300  0.827300  0.017200  1
  F  F578  1  0.705700  0.172700  0.517200  1
  F  F579  1  0.205700  0.172700  0.982800  1
  F  F580  1  0.294300  0.827300  0.482800  1
  F  F581  1  0.730600  0.737000  0.049000  1
  F  F582  1  0.769400  0.263000  0.549000  1
  F  F583  1  0.269400  0.263000  0.951000  1
  F  F584  1  0.230600  0.737000  0.451000  1
  F  F585  1  0.912200  0.751000  0.024400  1
  F  F586  1  0.587800  0.249000  0.524400  1
  F  F587  1  0.087800  0.249000  0.975600  1
  F  F588  1  0.412200  0.751000  0.475600  1
  F  F589  1  0.493700  0.564900  0.088700  1
  F  F590  1  0.006300  0.435100  0.588700  1
  F  F591  1  0.506300  0.435100  0.911300  1
  F  F592  1  0.993700  0.564900  0.411300  1
  F  F593  1  0.392000  0.652800  0.080800  1
  F  F594  1  0.108000  0.347200  0.580800  1
  F  F595  1  0.608000  0.347200  0.919200  1
  F  F596  1  0.892000  0.652800  0.419200  1
  F  F597  1  0.384700  0.572000  0.044600  1
  F  F598  1  0.115300  0.428000  0.544600  1
  F  F599  1  0.615300  0.428000  0.955400  1
  F  F600  1  0.884700  0.572000  0.455400  1
