# generated using pymatgen
data_FeH48C58(N2O)2
_symmetry_space_group_name_H-M   'P 1'
_cell_length_a   12.55320000
_cell_length_b   15.94310000
_cell_length_c   22.11510000
_cell_angle_alpha   92.71600000
_cell_angle_beta   90.00000000
_cell_angle_gamma   90.00000000
_symmetry_Int_Tables_number   1
_chemical_formula_structural   FeH48C58(N2O)2
_chemical_formula_sum   'Fe4 H192 C232 N16 O8'
_cell_volume   4421.07620201
_cell_formula_units_Z   4
loop_
 _symmetry_equiv_pos_site_id
 _symmetry_equiv_pos_as_xyz
  1  'x, y, z'
loop_
 _atom_site_type_symbol
 _atom_site_label
 _atom_site_symmetry_multiplicity
 _atom_site_fract_x
 _atom_site_fract_y
 _atom_site_fract_z
 _atom_site_occupancy
  Fe  Fe1  1  0.822780  0.915320  0.428703  1
  Fe  Fe2  1  0.322780  0.084680  0.071297  1
  Fe  Fe3  1  0.177220  0.084680  0.571297  1
  Fe  Fe4  1  0.677220  0.915320  0.928703  1
  H  H5  1  0.595000  0.501800  0.262700  1
  H  H6  1  0.095000  0.498200  0.237300  1
  H  H7  1  0.405000  0.498200  0.737300  1
  H  H8  1  0.905000  0.501800  0.762700  1
  H  H9  1  0.571000  0.610200  0.190100  1
  H  H10  1  0.071000  0.389800  0.309900  1
  H  H11  1  0.429000  0.389800  0.809900  1
  H  H12  1  0.929000  0.610200  0.690100  1
  H  H13  1  0.776000  0.890100  0.144000  1
  H  H14  1  0.276000  0.109900  0.356000  1
  H  H15  1  0.224000  0.109900  0.856000  1
  H  H16  1  0.724000  0.890100  0.644000  1
  H  H17  1  0.947800  0.958300  0.173000  1
  H  H18  1  0.447800  0.041700  0.327000  1
  H  H19  1  0.052200  0.041700  0.827000  1
  H  H20  1  0.552200  0.958300  0.673000  1
  H  H21  1  0.147000  0.964500  0.215400  1
  H  H22  1  0.647000  0.035500  0.284600  1
  H  H23  1  0.853000  0.035500  0.784600  1
  H  H24  1  0.353000  0.964500  0.715400  1
  H  H25  1  0.300000  0.939900  0.282500  1
  H  H26  1  0.800000  0.060100  0.217500  1
  H  H27  1  0.700000  0.060100  0.717500  1
  H  H28  1  0.200000  0.939900  0.782500  1
  H  H29  1  0.357000  0.676700  0.437300  1
  H  H30  1  0.857000  0.323300  0.062700  1
  H  H31  1  0.643000  0.323300  0.562700  1
  H  H32  1  0.143000  0.676700  0.937300  1
  H  H33  1  0.238000  0.560200  0.454400  1
  H  H34  1  0.738000  0.439800  0.045600  1
  H  H35  1  0.762000  0.439800  0.545600  1
  H  H36  1  0.262000  0.560200  0.954400  1
  H  H37  1  0.060000  0.475400  0.454300  1
  H  H38  1  0.560000  0.524600  0.045700  1
  H  H39  1  0.940000  0.524600  0.545700  1
  H  H40  1  0.440000  0.475400  0.954300  1
  H  H41  1  0.874000  0.430400  0.423400  1
  H  H42  1  0.374000  0.569600  0.076600  1
  H  H43  1  0.126000  0.569600  0.576600  1
  H  H44  1  0.626000  0.430400  0.923400  1
  H  H45  1  0.777700  0.365500  0.245800  1
  H  H46  1  0.277700  0.634500  0.254200  1
  H  H47  1  0.222300  0.634500  0.754200  1
  H  H48  1  0.722300  0.365500  0.745800  1
  H  H49  1  0.815100  0.284200  0.276900  1
  H  H50  1  0.315100  0.715800  0.223100  1
  H  H51  1  0.184900  0.715800  0.723100  1
  H  H52  1  0.684900  0.284200  0.776900  1
  H  H53  1  0.872000  0.370100  0.292300  1
  H  H54  1  0.372000  0.629900  0.207700  1
  H  H55  1  0.128000  0.629900  0.707700  1
  H  H56  1  0.628000  0.370100  0.792300  1
  H  H57  1  0.689000  0.240700  0.342400  1
  H  H58  1  0.189000  0.759300  0.157600  1
  H  H59  1  0.311000  0.759300  0.657600  1
  H  H60  1  0.811000  0.240700  0.842400  1
  H  H61  1  0.486900  0.255100  0.457600  1
  H  H62  1  0.986900  0.744900  0.042400  1
  H  H63  1  0.513100  0.744900  0.542400  1
  H  H64  1  0.013100  0.255100  0.957600  1
  H  H65  1  0.597300  0.209700  0.462100  1
  H  H66  1  0.097300  0.790300  0.037900  1
  H  H67  1  0.402700  0.790300  0.537900  1
  H  H68  1  0.902700  0.209700  0.962100  1
  H  H69  1  0.526400  0.194800  0.404200  1
  H  H70  1  0.026400  0.805200  0.095800  1
  H  H71  1  0.473600  0.805200  0.595800  1
  H  H72  1  0.973600  0.194800  0.904200  1
  H  H73  1  0.536000  0.399000  0.457400  1
  H  H74  1  0.036000  0.601000  0.042600  1
  H  H75  1  0.464000  0.601000  0.542600  1
  H  H76  1  0.964000  0.399000  0.957400  1
  H  H77  1  0.678400  0.579900  0.424300  1
  H  H78  1  0.178400  0.420100  0.075700  1
  H  H79  1  0.321600  0.420100  0.575700  1
  H  H80  1  0.821600  0.579900  0.924300  1
  H  H81  1  0.600600  0.543800  0.472100  1
  H  H82  1  0.100600  0.456200  0.027900  1
  H  H83  1  0.399400  0.456200  0.527900  1
  H  H84  1  0.899400  0.543800  0.972100  1
  H  H85  1  0.556900  0.570000  0.409300  1
  H  H86  1  0.056900  0.430000  0.090700  1
  H  H87  1  0.443100  0.430000  0.590700  1
  H  H88  1  0.943100  0.570000  0.909300  1
  H  H89  1  0.483700  0.873000  0.232700  1
  H  H90  1  0.983700  0.127000  0.267300  1
  H  H91  1  0.516300  0.127000  0.767300  1
  H  H92  1  0.016300  0.873000  0.732700  1
  H  H93  1  0.606300  0.890200  0.228600  1
  H  H94  1  0.106300  0.109800  0.271400  1
  H  H95  1  0.393700  0.109800  0.771400  1
  H  H96  1  0.893700  0.890200  0.728600  1
  H  H97  1  0.565000  0.808400  0.257400  1
  H  H98  1  0.065000  0.191600  0.242600  1
  H  H99  1  0.435000  0.191600  0.742600  1
  H  H100  1  0.935000  0.808400  0.757400  1
  H  H101  1  0.411000  0.842000  0.138200  1
  H  H102  1  0.911000  0.158000  0.361800  1
  H  H103  1  0.589000  0.158000  0.861800  1
  H  H104  1  0.089000  0.842000  0.638200  1
  H  H105  1  0.389900  0.760800  0.988300  1
  H  H106  1  0.889900  0.239200  0.511700  1
  H  H107  1  0.610100  0.239200  0.011700  1
  H  H108  1  0.110100  0.760800  0.488300  1
  H  H109  1  0.336700  0.824600  0.035200  1
  H  H110  1  0.836700  0.175400  0.464800  1
  H  H111  1  0.663300  0.175400  0.964800  1
  H  H112  1  0.163300  0.824600  0.535200  1
  H  H113  1  0.320100  0.727800  0.041000  1
  H  H114  1  0.820100  0.272200  0.459000  1
  H  H115  1  0.679900  0.272200  0.959000  1
  H  H116  1  0.179900  0.727800  0.541000  1
  H  H117  1  0.554000  0.690700  0.013000  1
  H  H118  1  0.054000  0.309300  0.487000  1
  H  H119  1  0.446000  0.309300  0.987000  1
  H  H120  1  0.946000  0.690700  0.513000  1
  H  H121  1  0.733700  0.606200  0.089800  1
  H  H122  1  0.233700  0.393800  0.410200  1
  H  H123  1  0.266300  0.393800  0.910200  1
  H  H124  1  0.766300  0.606200  0.589800  1
  H  H125  1  0.800300  0.686600  0.076900  1
  H  H126  1  0.300300  0.313400  0.423100  1
  H  H127  1  0.199700  0.313400  0.923100  1
  H  H128  1  0.699700  0.686600  0.576900  1
  H  H129  1  0.728600  0.644700  0.025900  1
  H  H130  1  0.228600  0.355300  0.474100  1
  H  H131  1  0.271400  0.355300  0.974100  1
  H  H132  1  0.771400  0.644700  0.525900  1
  H  H133  1  0.327000  0.942300  0.397900  1
  H  H134  1  0.827000  0.057700  0.102100  1
  H  H135  1  0.673000  0.057700  0.602100  1
  H  H136  1  0.173000  0.942300  0.897900  1
  H  H137  1  0.484000  0.993000  0.443000  1
  H  H138  1  0.984000  0.007000  0.057000  1
  H  H139  1  0.516000  0.007000  0.557000  1
  H  H140  1  0.016000  0.993000  0.943000  1
  H  H141  1  0.625000  0.773400  0.400200  1
  H  H142  1  0.125000  0.226600  0.099800  1
  H  H143  1  0.375000  0.226600  0.599800  1
  H  H144  1  0.875000  0.773400  0.900200  1
  H  H145  1  0.467900  0.727100  0.358400  1
  H  H146  1  0.967900  0.272900  0.141600  1
  H  H147  1  0.532100  0.272900  0.641600  1
  H  H148  1  0.032100  0.727100  0.858400  1
  H  H149  1  0.687000  0.050300  0.442100  1
  H  H150  1  0.187000  0.949700  0.057900  1
  H  H151  1  0.313000  0.949700  0.557900  1
  H  H152  1  0.813000  0.050300  0.942100  1
  H  H153  1  0.854000  0.049000  0.510200  1
  H  H154  1  0.354000  0.951000  0.989800  1
  H  H155  1  0.146000  0.951000  0.489800  1
  H  H156  1  0.646000  0.049000  0.010200  1
  H  H157  1  0.882000  0.895800  0.547100  1
  H  H158  1  0.382000  0.104200  0.952900  1
  H  H159  1  0.118000  0.104200  0.452900  1
  H  H160  1  0.618000  0.895800  0.047100  1
  H  H161  1  0.724000  0.804000  0.501600  1
  H  H162  1  0.224000  0.196000  0.998400  1
  H  H163  1  0.276000  0.196000  0.498400  1
  H  H164  1  0.776000  0.804000  0.001600  1
  H  H165  1  0.760000  0.864000  0.322900  1
  H  H166  1  0.260000  0.136000  0.177100  1
  H  H167  1  0.240000  0.136000  0.677100  1
  H  H168  1  0.740000  0.864000  0.822900  1
  H  H169  1  0.835000  0.006000  0.329200  1
  H  H170  1  0.335000  0.994000  0.170800  1
  H  H171  1  0.165000  0.994000  0.670800  1
  H  H172  1  0.665000  0.006000  0.829200  1
  H  H173  1  0.003000  0.990000  0.392000  1
  H  H174  1  0.503000  0.010000  0.108000  1
  H  H175  1  0.997000  0.010000  0.608000  1
  H  H176  1  0.497000  0.990000  0.892000  1
  H  H177  1  0.021000  0.844000  0.427000  1
  H  H178  1  0.521000  0.156000  0.073000  1
  H  H179  1  0.979000  0.156000  0.573000  1
  H  H180  1  0.479000  0.844000  0.927000  1
  H  H181  1  0.864000  0.765000  0.382100  1
  H  H182  1  0.364000  0.235000  0.117900  1
  H  H183  1  0.136000  0.235000  0.617900  1
  H  H184  1  0.636000  0.765000  0.882100  1
  H  H185  1  0.956000  0.608500  0.326500  1
  H  H186  1  0.456000  0.391500  0.173500  1
  H  H187  1  0.044000  0.391500  0.673500  1
  H  H188  1  0.544000  0.608500  0.826500  1
  H  H189  1  0.927000  0.735500  0.241500  1
  H  H190  1  0.427000  0.264500  0.258500  1
  H  H191  1  0.073000  0.264500  0.758500  1
  H  H192  1  0.573000  0.735500  0.741500  1
  H  H193  1  0.094000  0.765100  0.301100  1
  H  H194  1  0.594000  0.234900  0.198900  1
  H  H195  1  0.906000  0.234900  0.698900  1
  H  H196  1  0.406000  0.765100  0.801100  1
  C  C197  1  0.774400  0.515180  0.334520  1
  C  C198  1  0.274400  0.484820  0.165480  1
  C  C199  1  0.225600  0.484820  0.665480  1
  C  C200  1  0.725600  0.515180  0.834520  1
  C  C201  1  0.731200  0.561680  0.290310  1
  C  C202  1  0.231200  0.438320  0.209690  1
  C  C203  1  0.268800  0.438320  0.709690  1
  C  C204  1  0.768800  0.561680  0.790310  1
  C  C205  1  0.636200  0.547200  0.257800  1
  C  C206  1  0.136200  0.452800  0.242200  1
  C  C207  1  0.363800  0.452800  0.742200  1
  C  C208  1  0.863800  0.547200  0.757800  1
  C  C209  1  0.624400  0.608300  0.217900  1
  C  C210  1  0.124400  0.391700  0.282100  1
  C  C211  1  0.375600  0.391700  0.782100  1
  C  C212  1  0.875600  0.608300  0.717900  1
  C  C213  1  0.711200  0.663500  0.223530  1
  C  C214  1  0.211200  0.336500  0.276470  1
  C  C215  1  0.288800  0.336500  0.776470  1
  C  C216  1  0.788800  0.663500  0.723530  1
  C  C217  1  0.730300  0.733740  0.191330  1
  C  C218  1  0.230300  0.266260  0.308670  1
  C  C219  1  0.269700  0.266260  0.808670  1
  C  C220  1  0.769700  0.733740  0.691330  1
  C  C221  1  0.818150  0.789930  0.194160  1
  C  C222  1  0.318150  0.210070  0.305840  1
  C  C223  1  0.181850  0.210070  0.805840  1
  C  C224  1  0.681850  0.789930  0.694160  1
  C  C225  1  0.827200  0.867130  0.167560  1
  C  C226  1  0.327200  0.132870  0.332440  1
  C  C227  1  0.172800  0.132870  0.832440  1
  C  C228  1  0.672800  0.867130  0.667560  1
  C  C229  1  0.923900  0.902230  0.183270  1
  C  C230  1  0.423900  0.097770  0.316730  1
  C  C231  1  0.076100  0.097770  0.816730  1
  C  C232  1  0.576100  0.902230  0.683270  1
  C  C233  1  0.977860  0.847450  0.219870  1
  C  C234  1  0.477860  0.152550  0.280130  1
  C  C235  1  0.022140  0.152550  0.780130  1
  C  C236  1  0.522140  0.847450  0.719870  1
  C  C237  1  0.078930  0.858670  0.247850  1
  C  C238  1  0.578930  0.141330  0.252150  1
  C  C239  1  0.921070  0.141330  0.752150  1
  C  C240  1  0.421070  0.858670  0.747850  1
  C  C241  1  0.153900  0.922930  0.240520  1
  C  C242  1  0.653900  0.077070  0.259480  1
  C  C243  1  0.846100  0.077070  0.759480  1
  C  C244  1  0.346100  0.922930  0.740520  1
  C  C245  1  0.239200  0.908590  0.277520  1
  C  C246  1  0.739200  0.091410  0.222480  1
  C  C247  1  0.760800  0.091410  0.722480  1
  C  C248  1  0.260800  0.908590  0.777520  1
  C  C249  1  0.218530  0.835010  0.308420  1
  C  C250  1  0.718530  0.164990  0.191580  1
  C  C251  1  0.781470  0.164990  0.691580  1
  C  C252  1  0.281470  0.835010  0.808420  1
  C  C253  1  0.279400  0.791510  0.351120  1
  C  C254  1  0.779400  0.208490  0.148880  1
  C  C255  1  0.720600  0.208490  0.648880  1
  C  C256  1  0.220600  0.791510  0.851120  1
  C  C257  1  0.243450  0.716410  0.373990  1
  C  C258  1  0.743450  0.283590  0.126010  1
  C  C259  1  0.756550  0.283590  0.626010  1
  C  C260  1  0.256550  0.716410  0.873990  1
  C  C261  1  0.292600  0.666740  0.418920  1
  C  C262  1  0.792600  0.333260  0.081080  1
  C  C263  1  0.707400  0.333260  0.581080  1
  C  C264  1  0.207400  0.666740  0.918920  1
  C  C265  1  0.225800  0.602160  0.428900  1
  C  C266  1  0.725800  0.397840  0.071100  1
  C  C267  1  0.774200  0.397840  0.571100  1
  C  C268  1  0.274200  0.602160  0.928900  1
  C  C269  1  0.135300  0.612530  0.390460  1
  C  C270  1  0.635300  0.387470  0.109540  1
  C  C271  1  0.864700  0.387470  0.609540  1
  C  C272  1  0.364700  0.612530  0.890460  1
  C  C273  1  0.041600  0.563840  0.389030  1
  C  C274  1  0.541600  0.436160  0.110970  1
  C  C275  1  0.958400  0.436160  0.610970  1
  C  C276  1  0.458400  0.563840  0.889030  1
  C  C277  1  0.014400  0.497480  0.424810  1
  C  C278  1  0.514400  0.502520  0.075190  1
  C  C279  1  0.985600  0.502520  0.575190  1
  C  C280  1  0.485600  0.497480  0.924810  1
  C  C281  1  0.912700  0.472570  0.409730  1
  C  C282  1  0.412700  0.527430  0.090270  1
  C  C283  1  0.087300  0.527430  0.590270  1
  C  C284  1  0.587300  0.472570  0.909730  1
  C  C285  1  0.874900  0.522720  0.364010  1
  C  C286  1  0.374900  0.477280  0.135990  1
  C  C287  1  0.125100  0.477280  0.635990  1
  C  C288  1  0.625100  0.522720  0.864010  1
  C  C289  1  0.708700  0.443420  0.356200  1
  C  C290  1  0.208700  0.556580  0.143800  1
  C  C291  1  0.291300  0.556580  0.643800  1
  C  C292  1  0.791300  0.443420  0.856200  1
  C  C293  1  0.727200  0.361740  0.333170  1
  C  C294  1  0.227200  0.638260  0.166830  1
  C  C295  1  0.272800  0.638260  0.666830  1
  C  C296  1  0.772800  0.361740  0.833170  1
  C  C297  1  0.805100  0.343750  0.282470  1
  C  C298  1  0.305100  0.656250  0.217530  1
  C  C299  1  0.194900  0.656250  0.717530  1
  C  C300  1  0.694900  0.343750  0.782470  1
  C  C301  1  0.672800  0.295530  0.358500  1
  C  C302  1  0.172800  0.704470  0.141500  1
  C  C303  1  0.327200  0.704470  0.641500  1
  C  C304  1  0.827200  0.295530  0.858500  1
  C  C305  1  0.602100  0.308800  0.406460  1
  C  C306  1  0.102100  0.691200  0.093540  1
  C  C307  1  0.397900  0.691200  0.593540  1
  C  C308  1  0.897900  0.308800  0.906460  1
  C  C309  1  0.548200  0.235400  0.435220  1
  C  C310  1  0.048200  0.764600  0.064780  1
  C  C311  1  0.451800  0.764600  0.564780  1
  C  C312  1  0.951800  0.235400  0.935220  1
  C  C313  1  0.585000  0.389100  0.427350  1
  C  C314  1  0.085000  0.610900  0.072650  1
  C  C315  1  0.415000  0.610900  0.572650  1
  C  C316  1  0.915000  0.389100  0.927350  1
  C  C317  1  0.636500  0.458400  0.403530  1
  C  C318  1  0.136500  0.541600  0.096470  1
  C  C319  1  0.363500  0.541600  0.596470  1
  C  C320  1  0.863500  0.458400  0.903530  1
  C  C321  1  0.616200  0.546000  0.429670  1
  C  C322  1  0.116200  0.454000  0.070330  1
  C  C323  1  0.383800  0.454000  0.570330  1
  C  C324  1  0.883800  0.546000  0.929670  1
  C  C325  1  0.642320  0.751470  0.147350  1
  C  C326  1  0.142320  0.248530  0.352650  1
  C  C327  1  0.357680  0.248530  0.852650  1
  C  C328  1  0.857680  0.751470  0.647350  1
  C  C329  1  0.555500  0.802030  0.165370  1
  C  C330  1  0.055500  0.197970  0.334630  1
  C  C331  1  0.444500  0.197970  0.834630  1
  C  C332  1  0.944500  0.802030  0.665370  1
  C  C333  1  0.552300  0.847500  0.226570  1
  C  C334  1  0.052300  0.152500  0.273430  1
  C  C335  1  0.447700  0.152500  0.773430  1
  C  C336  1  0.947700  0.847500  0.726570  1
  C  C337  1  0.469800  0.808630  0.126230  1
  C  C338  1  0.969800  0.191370  0.373770  1
  C  C339  1  0.530200  0.191370  0.873770  1
  C  C340  1  0.030200  0.808630  0.626230  1
  C  C341  1  0.467200  0.767160  0.069610  1
  C  C342  1  0.967200  0.232840  0.430390  1
  C  C343  1  0.532800  0.232840  0.930390  1
  C  C344  1  0.032800  0.767160  0.569610  1
  C  C345  1  0.369600  0.770400  0.029910  1
  C  C346  1  0.869600  0.229600  0.470090  1
  C  C347  1  0.630400  0.229600  0.970090  1
  C  C348  1  0.130400  0.770400  0.529910  1
  C  C349  1  0.555200  0.720490  0.051490  1
  C  C350  1  0.055200  0.279510  0.448510  1
  C  C351  1  0.444800  0.279510  0.948510  1
  C  C352  1  0.944800  0.720490  0.551490  1
  C  C353  1  0.643300  0.711520  0.089250  1
  C  C354  1  0.143300  0.288480  0.410750  1
  C  C355  1  0.356700  0.288480  0.910750  1
  C  C356  1  0.856700  0.711520  0.589250  1
  C  C357  1  0.734600  0.657400  0.068600  1
  C  C358  1  0.234600  0.342600  0.431400  1
  C  C359  1  0.265400  0.342600  0.931400  1
  C  C360  1  0.765400  0.657400  0.568600  1
  C  C361  1  0.382140  0.826820  0.373670  1
  C  C362  1  0.882140  0.173180  0.126330  1
  C  C363  1  0.617860  0.173180  0.626330  1
  C  C364  1  0.117860  0.826820  0.873670  1
  C  C365  1  0.389600  0.908300  0.398370  1
  C  C366  1  0.889600  0.091700  0.101630  1
  C  C367  1  0.610400  0.091700  0.601630  1
  C  C368  1  0.110400  0.908300  0.898370  1
  C  C369  1  0.483200  0.938150  0.424660  1
  C  C370  1  0.983200  0.061850  0.075340  1
  C  C371  1  0.516800  0.061850  0.575340  1
  C  C372  1  0.016800  0.938150  0.924660  1
  C  C373  1  0.572890  0.887190  0.427560  1
  C  C374  1  0.072890  0.112810  0.072440  1
  C  C375  1  0.427110  0.112810  0.572440  1
  C  C376  1  0.927110  0.887190  0.927560  1
  C  C377  1  0.566500  0.806600  0.401230  1
  C  C378  1  0.066500  0.193400  0.098770  1
  C  C379  1  0.433500  0.193400  0.598770  1
  C  C380  1  0.933500  0.806600  0.901230  1
  C  C381  1  0.473800  0.777300  0.374540  1
  C  C382  1  0.973800  0.222700  0.125460  1
  C  C383  1  0.526200  0.222700  0.625460  1
  C  C384  1  0.026200  0.777300  0.874540  1
  C  C385  1  0.669800  0.916840  0.459990  1
  C  C386  1  0.169800  0.083160  0.040010  1
  C  C387  1  0.330200  0.083160  0.540010  1
  C  C388  1  0.830200  0.916840  0.959990  1
  C  C389  1  0.713900  0.998870  0.463220  1
  C  C390  1  0.213900  0.001130  0.036780  1
  C  C391  1  0.286100  0.001130  0.536780  1
  C  C392  1  0.786100  0.998870  0.963220  1
  C  C393  1  0.806400  0.998500  0.500620  1
  C  C394  1  0.306400  0.001500  0.999380  1
  C  C395  1  0.193600  0.001500  0.499380  1
  C  C396  1  0.693600  0.998500  0.000620  1
  C  C397  1  0.819800  0.917220  0.520970  1
  C  C398  1  0.319800  0.082780  0.979030  1
  C  C399  1  0.180200  0.082780  0.479030  1
  C  C400  1  0.680200  0.917220  0.020970  1
  C  C401  1  0.736100  0.866600  0.496360  1
  C  C402  1  0.236100  0.133400  0.003640  1
  C  C403  1  0.263900  0.133400  0.503640  1
  C  C404  1  0.763900  0.866600  0.996360  1
  C  C405  1  0.816800  0.873300  0.341300  1
  C  C406  1  0.316800  0.126700  0.158700  1
  C  C407  1  0.183200  0.126700  0.658700  1
  C  C408  1  0.683200  0.873300  0.841300  1
  C  C409  1  0.865300  0.951400  0.344680  1
  C  C410  1  0.365300  0.048600  0.155320  1
  C  C411  1  0.134700  0.048600  0.655320  1
  C  C412  1  0.634700  0.951400  0.844680  1
  C  C413  1  0.955500  0.947200  0.381310  1
  C  C414  1  0.455500  0.052800  0.118690  1
  C  C415  1  0.044500  0.052800  0.618690  1
  C  C416  1  0.544500  0.947200  0.881310  1
  C  C417  1  0.964700  0.865700  0.400170  1
  C  C418  1  0.464700  0.134300  0.099830  1
  C  C419  1  0.035300  0.134300  0.599830  1
  C  C420  1  0.535300  0.865700  0.900170  1
  C  C421  1  0.878300  0.818500  0.375880  1
  C  C422  1  0.378300  0.181500  0.124120  1
  C  C423  1  0.121700  0.181500  0.624120  1
  C  C424  1  0.621700  0.818500  0.875880  1
  C  C425  1  0.908800  0.530800  0.177200  1
  C  C426  1  0.408800  0.469200  0.322800  1
  C  C427  1  0.091200  0.469200  0.822800  1
  C  C428  1  0.591200  0.530800  0.677200  1
  N  N429  1  0.954990  0.577910  0.352800  1
  N  N430  1  0.454990  0.422090  0.147200  1
  N  N431  1  0.045010  0.422090  0.647200  1
  N  N432  1  0.545010  0.577910  0.852800  1
  N  N433  1  0.911860  0.779340  0.225710  1
  N  N434  1  0.411860  0.220660  0.274290  1
  N  N435  1  0.088140  0.220660  0.774290  1
  N  N436  1  0.588140  0.779340  0.725710  1
  N  N437  1  0.120660  0.806910  0.288350  1
  N  N438  1  0.620660  0.193090  0.211650  1
  N  N439  1  0.879340  0.193090  0.711650  1
  N  N440  1  0.379340  0.806910  0.788350  1
  N  N441  1  0.146590  0.680580  0.357370  1
  N  N442  1  0.646590  0.319420  0.142630  1
  N  N443  1  0.853410  0.319420  0.642630  1
  N  N444  1  0.353410  0.680580  0.857370  1
  O  O445  1  0.778510  0.635140  0.269240  1
  O  O446  1  0.278510  0.364860  0.230760  1
  O  O447  1  0.221490  0.364860  0.730760  1
  O  O448  1  0.721490  0.635140  0.769240  1
  O  O449  1  0.971800  0.600000  0.208350  1
  O  O450  1  0.471800  0.400000  0.291650  1
  O  O451  1  0.028200  0.400000  0.791650  1
  O  O452  1  0.528200  0.600000  0.708350  1
