# generated using pymatgen
data_FeH48C57N4O
_symmetry_space_group_name_H-M   'P 1'
_cell_length_a   9.65500000
_cell_length_b   17.79600000
_cell_length_c   24.89200000
_cell_angle_alpha   90.00000000
_cell_angle_beta   90.00000000
_cell_angle_gamma   90.00000000
_symmetry_Int_Tables_number   1
_chemical_formula_structural   FeH48C57N4O
_chemical_formula_sum   'Fe4 H192 C228 N16 O4'
_cell_volume   4276.95289896
_cell_formula_units_Z   4
loop_
 _symmetry_equiv_pos_site_id
 _symmetry_equiv_pos_as_xyz
  1  'x, y, z'
loop_
 _atom_site_type_symbol
 _atom_site_label
 _atom_site_symmetry_multiplicity
 _atom_site_fract_x
 _atom_site_fract_y
 _atom_site_fract_z
 _atom_site_occupancy
  Fe  Fe1  1  0.797090  0.754440  0.537670  1
  Fe  Fe2  1  0.297090  0.245560  0.462330  1
  Fe  Fe3  1  0.297090  0.745560  0.037670  1
  Fe  Fe4  1  0.797090  0.254440  0.962330  1
  H  H5  1  0.922400  0.488200  0.199600  1
  H  H6  1  0.422400  0.511800  0.800400  1
  H  H7  1  0.422400  0.011800  0.699600  1
  H  H8  1  0.922400  0.988200  0.300400  1
  H  H9  1  0.055300  0.514800  0.923500  1
  H  H10  1  0.555300  0.485200  0.076500  1
  H  H11  1  0.555300  0.985200  0.423500  1
  H  H12  1  0.055300  0.014800  0.576500  1
  H  H13  1  0.659600  0.546900  0.884000  1
  H  H14  1  0.159600  0.453100  0.116000  1
  H  H15  1  0.159600  0.953100  0.384000  1
  H  H16  1  0.659600  0.046900  0.616000  1
  H  H17  1  0.828200  0.805200  0.857900  1
  H  H18  1  0.328200  0.194800  0.142100  1
  H  H19  1  0.328200  0.694800  0.357900  1
  H  H20  1  0.828200  0.305200  0.642100  1
  H  H21  1  0.733900  0.009000  0.007800  1
  H  H22  1  0.233900  0.991000  0.992200  1
  H  H23  1  0.233900  0.491000  0.507800  1
  H  H24  1  0.733900  0.509000  0.492200  1
  H  H25  1  0.000600  0.816000  0.313500  1
  H  H26  1  0.500600  0.184000  0.686500  1
  H  H27  1  0.500600  0.684000  0.813500  1
  H  H28  1  0.000600  0.316000  0.186500  1
  H  H29  1  0.871600  0.443200  0.098300  1
  H  H30  1  0.371600  0.556800  0.901700  1
  H  H31  1  0.371600  0.056800  0.598300  1
  H  H32  1  0.871600  0.943200  0.401700  1
  H  H33  1  0.863600  0.671300  0.856000  1
  H  H34  1  0.363600  0.328700  0.144000  1
  H  H35  1  0.363600  0.828700  0.356000  1
  H  H36  1  0.863600  0.171300  0.644000  1
  H  H37  1  0.923400  0.573400  0.277400  1
  H  H38  1  0.423400  0.426600  0.722600  1
  H  H39  1  0.423400  0.926600  0.777400  1
  H  H40  1  0.923400  0.073400  0.222600  1
  H  H41  1  0.786700  0.640400  0.421900  1
  H  H42  1  0.286700  0.359600  0.578100  1
  H  H43  1  0.286700  0.859600  0.921900  1
  H  H44  1  0.786700  0.140400  0.078100  1
  H  H45  1  0.679100  0.459000  0.816300  1
  H  H46  1  0.179100  0.541000  0.183700  1
  H  H47  1  0.179100  0.041000  0.316300  1
  H  H48  1  0.679100  0.959000  0.683700  1
  H  H49  1  0.916700  0.324100  0.809000  1
  H  H50  1  0.416700  0.675900  0.191000  1
  H  H51  1  0.416700  0.175900  0.309000  1
  H  H52  1  0.916700  0.824100  0.691000  1
  H  H53  1  0.771800  0.877500  0.284300  1
  H  H54  1  0.271800  0.122500  0.715700  1
  H  H55  1  0.271800  0.622500  0.784300  1
  H  H56  1  0.771800  0.377500  0.215700  1
  H  H57  1  0.039400  0.817000  0.405400  1
  H  H58  1  0.539400  0.183000  0.594600  1
  H  H59  1  0.539400  0.683000  0.905400  1
  H  H60  1  0.039400  0.317000  0.094600  1
  H  H61  1  0.746600  0.640000  0.331100  1
  H  H62  1  0.246600  0.360000  0.668900  1
  H  H63  1  0.246600  0.860000  0.831100  1
  H  H64  1  0.746600  0.140000  0.168900  1
  H  H65  1  0.978000  0.948700  0.914600  1
  H  H66  1  0.478000  0.051300  0.085400  1
  H  H67  1  0.478000  0.551300  0.414600  1
  H  H68  1  0.978000  0.448700  0.585400  1
  H  H69  1  0.732000  0.963900  0.208100  1
  H  H70  1  0.232000  0.036100  0.791900  1
  H  H71  1  0.232000  0.536100  0.708100  1
  H  H72  1  0.732000  0.463900  0.291900  1
  H  H73  1  0.969600  0.039200  0.849700  1
  H  H74  1  0.469600  0.960800  0.150300  1
  H  H75  1  0.469600  0.460800  0.349700  1
  H  H76  1  0.969600  0.539200  0.650300  1
  H  H77  1  0.075400  0.429100  0.855400  1
  H  H78  1  0.575400  0.570900  0.144600  1
  H  H79  1  0.575400  0.070900  0.355400  1
  H  H80  1  0.075400  0.929100  0.644600  1
  H  H81  1  0.565400  0.928800  0.907000  1
  H  H82  1  0.065400  0.071200  0.093000  1
  H  H83  1  0.065400  0.571200  0.407000  1
  H  H84  1  0.565400  0.428800  0.593000  1
  H  H85  1  0.721000  0.390700  0.745000  1
  H  H86  1  0.221000  0.609300  0.255000  1
  H  H87  1  0.221000  0.109300  0.245000  1
  H  H88  1  0.721000  0.890700  0.755000  1
  H  H89  1  0.700200  0.325600  0.786600  1
  H  H90  1  0.200200  0.674400  0.213400  1
  H  H91  1  0.200200  0.174400  0.286600  1
  H  H92  1  0.700200  0.825600  0.713400  1
  H  H93  1  0.782200  0.310800  0.733300  1
  H  H94  1  0.282200  0.689200  0.266700  1
  H  H95  1  0.282200  0.189200  0.233300  1
  H  H96  1  0.782200  0.810800  0.766700  1
  H  H97  1  0.850400  0.452300  0.999500  1
  H  H98  1  0.350400  0.547700  0.000500  1
  H  H99  1  0.350400  0.047700  0.499500  1
  H  H100  1  0.850400  0.952300  0.500500  1
  H  H101  1  0.728700  0.012100  0.107100  1
  H  H102  1  0.228700  0.987900  0.892900  1
  H  H103  1  0.228700  0.487900  0.607100  1
  H  H104  1  0.728700  0.512100  0.392900  1
  H  H105  1  0.876200  0.156200  0.740700  1
  H  H106  1  0.376200  0.843800  0.259300  1
  H  H107  1  0.376200  0.343800  0.240700  1
  H  H108  1  0.876200  0.656200  0.759300  1
  H  H109  1  0.909900  0.070400  0.746700  1
  H  H110  1  0.409900  0.929600  0.253300  1
  H  H111  1  0.409900  0.429600  0.246700  1
  H  H112  1  0.909900  0.570400  0.753300  1
  H  H113  1  0.964200  0.127700  0.789600  1
  H  H114  1  0.464200  0.872300  0.210400  1
  H  H115  1  0.464200  0.372300  0.289600  1
  H  H116  1  0.964200  0.627700  0.710400  1
  H  H117  1  0.561900  0.021800  0.842800  1
  H  H118  1  0.061900  0.978200  0.157200  1
  H  H119  1  0.061900  0.478200  0.342800  1
  H  H120  1  0.561900  0.521800  0.657200  1
  H  H121  1  0.722700  0.070300  0.770800  1
  H  H122  1  0.222700  0.929700  0.229200  1
  H  H123  1  0.222700  0.429700  0.270800  1
  H  H124  1  0.722700  0.570300  0.729200  1
  H  H125  1  0.026900  0.334000  0.732100  1
  H  H126  1  0.526900  0.666000  0.267900  1
  H  H127  1  0.526900  0.166000  0.232100  1
  H  H128  1  0.026900  0.834000  0.767900  1
  H  H129  1  0.090800  0.391400  0.773000  1
  H  H130  1  0.590800  0.608600  0.227000  1
  H  H131  1  0.590800  0.108600  0.273000  1
  H  H132  1  0.090800  0.891400  0.727000  1
  H  H133  1  0.991200  0.419700  0.727600  1
  H  H134  1  0.491200  0.580300  0.272400  1
  H  H135  1  0.491200  0.080300  0.227600  1
  H  H136  1  0.991200  0.919700  0.772400  1
  H  H137  1  0.583800  0.128800  0.816800  1
  H  H138  1  0.083800  0.871200  0.183200  1
  H  H139  1  0.083800  0.371200  0.316800  1
  H  H140  1  0.583800  0.628800  0.683200  1
  H  H141  1  0.622500  0.143600  0.756600  1
  H  H142  1  0.122500  0.856400  0.243400  1
  H  H143  1  0.122500  0.356400  0.256600  1
  H  H144  1  0.622500  0.643600  0.743400  1
  H  H145  1  0.679400  0.196800  0.801600  1
  H  H146  1  0.179400  0.803200  0.198400  1
  H  H147  1  0.179400  0.303200  0.301600  1
  H  H148  1  0.679400  0.696800  0.698400  1
  H  H149  1  0.854000  0.655800  0.053000  1
  H  H150  1  0.354000  0.344200  0.947000  1
  H  H151  1  0.354000  0.844200  0.553000  1
  H  H152  1  0.854000  0.155800  0.447000  1
  H  H153  1  0.794000  0.802600  0.062500  1
  H  H154  1  0.294000  0.197400  0.937500  1
  H  H155  1  0.294000  0.697400  0.562500  1
  H  H156  1  0.794000  0.302600  0.437500  1
  H  H157  1  0.835000  0.758300  0.155800  1
  H  H158  1  0.335000  0.241700  0.844200  1
  H  H159  1  0.335000  0.741700  0.655800  1
  H  H160  1  0.835000  0.258300  0.344200  1
  H  H161  1  0.909000  0.620600  0.510000  1
  H  H162  1  0.409000  0.379400  0.490000  1
  H  H163  1  0.409000  0.879400  0.010000  1
  H  H164  1  0.909000  0.120600  0.990000  1
  H  H165  1  0.003000  0.838000  0.501000  1
  H  H166  1  0.503000  0.162000  0.499000  1
  H  H167  1  0.503000  0.662000  0.001000  1
  H  H168  1  0.003000  0.338000  0.999000  1
  H  H169  1  0.023000  0.800000  0.596200  1
  H  H170  1  0.523000  0.200000  0.403800  1
  H  H171  1  0.523000  0.700000  0.096200  1
  H  H172  1  0.023000  0.300000  0.903800  1
  H  H173  1  0.679000  0.890800  0.550000  1
  H  H174  1  0.179000  0.109200  0.450000  1
  H  H175  1  0.179000  0.609200  0.050000  1
  H  H176  1  0.679000  0.390800  0.950000  1
  H  H177  1  0.956000  0.662000  0.599700  1
  H  H178  1  0.456000  0.338000  0.400300  1
  H  H179  1  0.456000  0.838000  0.099700  1
  H  H180  1  0.956000  0.162000  0.900300  1
  H  H181  1  0.637000  0.836000  0.469900  1
  H  H182  1  0.137000  0.164000  0.530100  1
  H  H183  1  0.137000  0.664000  0.969900  1
  H  H184  1  0.637000  0.336000  0.030100  1
  H  H185  1  0.593000  0.672400  0.572000  1
  H  H186  1  0.093000  0.327600  0.428000  1
  H  H187  1  0.093000  0.827600  0.072000  1
  H  H188  1  0.593000  0.172400  0.928000  1
  H  H189  1  0.654000  0.782000  0.623800  1
  H  H190  1  0.154000  0.218000  0.376200  1
  H  H191  1  0.154000  0.718000  0.123800  1
  H  H192  1  0.654000  0.282000  0.876200  1
  H  H193  1  0.576000  0.703000  0.482900  1
  H  H194  1  0.076000  0.297000  0.517100  1
  H  H195  1  0.076000  0.797000  0.982900  1
  H  H196  1  0.576000  0.203000  0.017100  1
  C  C197  1  0.802800  0.796700  0.940900  1
  C  C198  1  0.302800  0.203300  0.059100  1
  C  C199  1  0.302800  0.703300  0.440900  1
  C  C200  1  0.802800  0.296700  0.559100  1
  C  C201  1  0.779200  0.867600  0.959700  1
  C  C202  1  0.279200  0.132400  0.040300  1
  C  C203  1  0.279200  0.632400  0.459700  1
  C  C204  1  0.779200  0.367600  0.540300  1
  C  C205  1  0.840300  0.598100  0.954900  1
  C  C206  1  0.340300  0.401900  0.045100  1
  C  C207  1  0.340300  0.901900  0.454900  1
  C  C208  1  0.840300  0.098100  0.545100  1
  C  C209  1  0.870200  0.726900  0.312100  1
  C  C210  1  0.370200  0.273100  0.687900  1
  C  C211  1  0.370200  0.773100  0.812100  1
  C  C212  1  0.870200  0.226900  0.187900  1
  C  C213  1  0.773100  0.929300  0.917900  1
  C  C214  1  0.273100  0.070700  0.082100  1
  C  C215  1  0.273100  0.570700  0.417900  1
  C  C216  1  0.773100  0.429300  0.582100  1
  C  C217  1  0.860000  0.559700  0.098600  1
  C  C218  1  0.360000  0.440300  0.901400  1
  C  C219  1  0.360000  0.940300  0.598600  1
  C  C220  1  0.860000  0.059700  0.401400  1
  C  C221  1  0.812600  0.793400  0.226900  1
  C  C222  1  0.312600  0.206600  0.773100  1
  C  C223  1  0.312600  0.706600  0.726900  1
  C  C224  1  0.812600  0.293400  0.273100  1
  C  C225  1  0.903600  0.539400  0.199200  1
  C  C226  1  0.403600  0.460600  0.800800  1
  C  C227  1  0.403600  0.960600  0.699200  1
  C  C228  1  0.903600  0.039400  0.300800  1
  C  C229  1  0.866900  0.659600  0.223800  1
  C  C230  1  0.366900  0.340400  0.776200  1
  C  C231  1  0.366900  0.840400  0.723800  1
  C  C232  1  0.866900  0.159600  0.276200  1
  C  C233  1  0.979200  0.504000  0.901900  1
  C  C234  1  0.479200  0.496000  0.098100  1
  C  C235  1  0.479200  0.996000  0.401900  1
  C  C236  1  0.979200  0.004000  0.598100  1
  C  C237  1  0.773000  0.870800  0.158600  1
  C  C238  1  0.273000  0.129200  0.841400  1
  C  C239  1  0.273000  0.629200  0.658600  1
  C  C240  1  0.773000  0.370800  0.341400  1
  C  C241  1  0.764100  0.894300  0.014000  1
  C  C242  1  0.264100  0.105700  0.986000  1
  C  C243  1  0.264100  0.605700  0.514000  1
  C  C244  1  0.764100  0.394300  0.486000  1
  C  C245  1  0.831300  0.671000  0.939100  1
  C  C246  1  0.331300  0.329000  0.060900  1
  C  C247  1  0.331300  0.829000  0.439100  1
  C  C248  1  0.831300  0.171000  0.560900  1
  C  C249  1  0.878000  0.431200  0.829300  1
  C  C250  1  0.378000  0.568800  0.170700  1
  C  C251  1  0.378000  0.068800  0.329300  1
  C  C252  1  0.878000  0.931200  0.670700  1
  C  C253  1  0.744100  0.522900  0.878600  1
  C  C254  1  0.244100  0.477100  0.121400  1
  C  C255  1  0.244100  0.977100  0.378600  1
  C  C256  1  0.744100  0.022900  0.621400  1
  C  C257  1  0.826100  0.773700  0.887700  1
  C  C258  1  0.326100  0.226300  0.112300  1
  C  C259  1  0.326100  0.726300  0.387700  1
  C  C260  1  0.826100  0.273700  0.612300  1
  C  C261  1  0.744100  0.967700  0.030400  1
  C  C262  1  0.244100  0.032300  0.969600  1
  C  C263  1  0.244100  0.532300  0.530400  1
  C  C264  1  0.744100  0.467700  0.469600  1
  C  C265  1  0.869500  0.584200  0.153200  1
  C  C266  1  0.369500  0.415800  0.846800  1
  C  C267  1  0.369500  0.915800  0.653200  1
  C  C268  1  0.869500  0.084200  0.346800  1
  C  C269  1  0.957700  0.780300  0.335200  1
  C  C270  1  0.457700  0.219700  0.664800  1
  C  C271  1  0.457700  0.719700  0.835200  1
  C  C272  1  0.957700  0.280300  0.164800  1
  C  C273  1  0.846600  0.725400  0.253200  1
  C  C274  1  0.346600  0.274600  0.746800  1
  C  C275  1  0.346600  0.774600  0.753200  1
  C  C276  1  0.846600  0.225400  0.246800  1
  C  C277  1  0.844000  0.567900  0.008700  1
  C  C278  1  0.344000  0.432100  0.991300  1
  C  C279  1  0.344000  0.932100  0.508700  1
  C  C280  1  0.844000  0.067900  0.491300  1
  C  C281  1  0.853300  0.541000  0.910500  1
  C  C282  1  0.353300  0.459000  0.089500  1
  C  C283  1  0.353300  0.959000  0.410500  1
  C  C284  1  0.853300  0.041000  0.589500  1
  C  C285  1  0.863400  0.487200  0.078500  1
  C  C286  1  0.363400  0.512800  0.921500  1
  C  C287  1  0.363400  0.012800  0.578500  1
  C  C288  1  0.863400  0.987200  0.421500  1
  C  C289  1  0.844800  0.699600  0.886500  1
  C  C290  1  0.344800  0.300400  0.113500  1
  C  C291  1  0.344800  0.800400  0.386500  1
  C  C292  1  0.844800  0.199600  0.613500  1
  C  C293  1  0.903300  0.586600  0.242100  1
  C  C294  1  0.403300  0.413400  0.757900  1
  C  C295  1  0.403300  0.913400  0.742100  1
  C  C296  1  0.903300  0.086600  0.257900  1
  C  C297  1  0.830600  0.675700  0.400300  1
  C  C298  1  0.330600  0.324300  0.599700  1
  C  C299  1  0.330600  0.824300  0.900300  1
  C  C300  1  0.830600  0.175700  0.099700  1
  C  C301  1  0.763300  0.896600  0.104300  1
  C  C302  1  0.263300  0.103400  0.895700  1
  C  C303  1  0.263300  0.603400  0.604300  1
  C  C304  1  0.763300  0.396600  0.395700  1
  C  C305  1  0.945800  0.728300  0.483100  1
  C  C306  1  0.445800  0.271700  0.516900  1
  C  C307  1  0.445800  0.771700  0.983100  1
  C  C308  1  0.945800  0.228300  0.016900  1
  C  C309  1  0.755300  0.469300  0.837900  1
  C  C310  1  0.255300  0.530700  0.162100  1
  C  C311  1  0.255300  0.030700  0.337900  1
  C  C312  1  0.755300  0.969300  0.662100  1
  C  C313  1  0.892000  0.368500  0.787700  1
  C  C314  1  0.392000  0.631500  0.212300  1
  C  C315  1  0.392000  0.131500  0.287700  1
  C  C316  1  0.892000  0.868500  0.712300  1
  C  C317  1  0.777900  0.865200  0.248000  1
  C  C318  1  0.277900  0.134800  0.752000  1
  C  C319  1  0.277900  0.634800  0.748000  1
  C  C320  1  0.777900  0.365200  0.252000  1
  C  C321  1  0.981400  0.780800  0.390600  1
  C  C322  1  0.481400  0.219200  0.609400  1
  C  C323  1  0.481400  0.719200  0.890600  1
  C  C324  1  0.981400  0.280800  0.109400  1
  C  C325  1  0.806700  0.675400  0.345700  1
  C  C326  1  0.306700  0.324600  0.654300  1
  C  C327  1  0.306700  0.824600  0.845700  1
  C  C328  1  0.806700  0.175400  0.154300  1
  C  C329  1  0.893100  0.963000  0.900300  1
  C  C330  1  0.393100  0.037000  0.099700  1
  C  C331  1  0.393100  0.537000  0.400300  1
  C  C332  1  0.893100  0.463000  0.599700  1
  C  C333  1  0.919900  0.728100  0.423700  1
  C  C334  1  0.419900  0.271900  0.576300  1
  C  C335  1  0.419900  0.771900  0.923700  1
  C  C336  1  0.919900  0.228100  0.076300  1
  C  C337  1  0.925300  0.668800  0.519600  1
  C  C338  1  0.425300  0.331200  0.480400  1
  C  C339  1  0.425300  0.831200  0.019600  1
  C  C340  1  0.925300  0.168800  0.980400  1
  C  C341  1  0.754900  0.913200  0.205900  1
  C  C342  1  0.254900  0.086800  0.794100  1
  C  C343  1  0.254900  0.586800  0.705900  1
  C  C344  1  0.754900  0.413200  0.294100  1
  C  C345  1  0.986500  0.792200  0.514400  1
  C  C346  1  0.486500  0.207800  0.485600  1
  C  C347  1  0.486500  0.707800  0.014400  1
  C  C348  1  0.986500  0.292200  0.985600  1
  C  C349  1  0.887200  0.017800  0.861500  1
  C  C350  1  0.387200  0.982200  0.138500  1
  C  C351  1  0.387200  0.482200  0.361500  1
  C  C352  1  0.887200  0.517800  0.638500  1
  C  C353  1  0.765700  0.042200  0.839400  1
  C  C354  1  0.265700  0.957800  0.160600  1
  C  C355  1  0.265700  0.457800  0.339400  1
  C  C356  1  0.765700  0.542200  0.660600  1
  C  C357  1  0.990000  0.451700  0.861500  1
  C  C358  1  0.490000  0.548300  0.138500  1
  C  C359  1  0.490000  0.048300  0.361500  1
  C  C360  1  0.990000  0.951700  0.638500  1
  C  C361  1  0.647500  0.951300  0.896000  1
  C  C362  1  0.147500  0.048700  0.104000  1
  C  C363  1  0.147500  0.548700  0.396000  1
  C  C364  1  0.647500  0.451300  0.604000  1
  C  C365  1  0.762600  0.347000  0.760800  1
  C  C366  1  0.262600  0.653000  0.239200  1
  C  C367  1  0.262600  0.153000  0.260800  1
  C  C368  1  0.762600  0.847000  0.739200  1
  C  C369  1  0.852200  0.492600  0.023200  1
  C  C370  1  0.352200  0.507400  0.976800  1
  C  C371  1  0.352200  0.007400  0.523200  1
  C  C372  1  0.852200  0.992600  0.476800  1
  C  C373  1  0.742000  0.969700  0.085800  1
  C  C374  1  0.242000  0.030300  0.914200  1
  C  C375  1  0.242000  0.530300  0.585800  1
  C  C376  1  0.742000  0.469700  0.414200  1
  C  C377  1  0.993100  0.771300  0.567900  1
  C  C378  1  0.493100  0.228700  0.432100  1
  C  C379  1  0.493100  0.728700  0.067900  1
  C  C380  1  0.993100  0.271300  0.932100  1
  C  C381  1  0.663600  0.840700  0.553200  1
  C  C382  1  0.163600  0.159300  0.446800  1
  C  C383  1  0.163600  0.659300  0.053200  1
  C  C384  1  0.663600  0.340700  0.946800  1
  C  C385  1  0.957100  0.694000  0.571300  1
  C  C386  1  0.457100  0.306000  0.428700  1
  C  C387  1  0.457100  0.806000  0.071300  1
  C  C388  1  0.957100  0.194000  0.928700  1
  C  C389  1  0.889000  0.115800  0.765800  1
  C  C390  1  0.389000  0.884200  0.234200  1
  C  C391  1  0.389000  0.384200  0.265800  1
  C  C392  1  0.889000  0.615800  0.734200  1
  C  C393  1  0.641800  0.813200  0.502300  1
  C  C394  1  0.141800  0.186800  0.497700  1
  C  C395  1  0.141800  0.686800  0.002300  1
  C  C396  1  0.641800  0.313200  0.997700  1
  C  C397  1  0.646500  0.007200  0.857300  1
  C  C398  1  0.146500  0.992800  0.142700  1
  C  C399  1  0.146500  0.492800  0.357300  1
  C  C400  1  0.646500  0.507200  0.642700  1
  C  C401  1  0.758900  0.105100  0.797800  1
  C  C402  1  0.258900  0.894900  0.202200  1
  C  C403  1  0.258900  0.394900  0.297800  1
  C  C404  1  0.758900  0.605100  0.702200  1
  C  C405  1  0.010300  0.379300  0.752100  1
  C  C406  1  0.510300  0.620700  0.247900  1
  C  C407  1  0.510300  0.120700  0.252100  1
  C  C408  1  0.010300  0.879300  0.747900  1
  C  C409  1  0.606200  0.719600  0.560100  1
  C  C410  1  0.106200  0.280400  0.439900  1
  C  C411  1  0.106200  0.780400  0.060100  1
  C  C412  1  0.606200  0.219600  0.939900  1
  C  C413  1  0.639800  0.786400  0.589000  1
  C  C414  1  0.139800  0.213600  0.411000  1
  C  C415  1  0.139800  0.713600  0.089000  1
  C  C416  1  0.639800  0.286400  0.911000  1
  C  C417  1  0.606300  0.738100  0.505300  1
  C  C418  1  0.106300  0.261900  0.494700  1
  C  C419  1  0.106300  0.761900  0.005300  1
  C  C420  1  0.606300  0.238100  0.994700  1
  C  C421  1  0.655300  0.145900  0.792900  1
  C  C422  1  0.155300  0.854100  0.207100  1
  C  C423  1  0.155300  0.354100  0.292900  1
  C  C424  1  0.655300  0.645900  0.707100  1
  N  N425  1  0.843100  0.606800  0.056310  1
  N  N426  1  0.343100  0.393200  0.943690  1
  N  N427  1  0.343100  0.893200  0.556310  1
  N  N428  1  0.843100  0.106800  0.443690  1
  N  N429  1  0.776500  0.851700  0.059720  1
  N  N430  1  0.276500  0.148300  0.940280  1
  N  N431  1  0.276500  0.648300  0.559720  1
  N  N432  1  0.776500  0.351700  0.440280  1
  N  N433  1  0.805000  0.799700  0.171770  1
  N  N434  1  0.305000  0.200300  0.828230  1
  N  N435  1  0.305000  0.700300  0.671770  1
  N  N436  1  0.805000  0.299700  0.328230  1
  N  N437  1  0.848200  0.655300  0.168750  1
  N  N438  1  0.348200  0.344700  0.831250  1
  N  N439  1  0.348200  0.844700  0.668750  1
  N  N440  1  0.848200  0.155300  0.331250  1
  O  O441  1  0.806600  0.731720  0.973630  1
  O  O442  1  0.306600  0.268280  0.026370  1
  O  O443  1  0.306600  0.768280  0.473630  1
  O  O444  1  0.806600  0.231720  0.526370  1
