# generated using pymatgen
data_Zn4BH3C146N37F4
_symmetry_space_group_name_H-M   'P 1'
_cell_length_a   19.44000000
_cell_length_b   21.85500000
_cell_length_c   23.82800000
_cell_angle_alpha   106.28600000
_cell_angle_beta   105.45000000
_cell_angle_gamma   107.42400000
_symmetry_Int_Tables_number   1
_chemical_formula_structural   Zn4BH3C146N37F4
_chemical_formula_sum   'Zn8 B2 H6 C292 N74 F8'
_cell_volume   8566.17121823
_cell_formula_units_Z   2
loop_
 _symmetry_equiv_pos_site_id
 _symmetry_equiv_pos_as_xyz
  1  'x, y, z'
loop_
 _atom_site_type_symbol
 _atom_site_label
 _atom_site_symmetry_multiplicity
 _atom_site_fract_x
 _atom_site_fract_y
 _atom_site_fract_z
 _atom_site_occupancy
  Zn  Zn1  1  0.520750  0.922170  0.676080  1.0
  Zn  Zn2  1  0.479250  0.077830  0.323920  1.0
  Zn  Zn3  1  0.739220  0.541590  0.288060  1.0
  Zn  Zn4  1  0.260780  0.458410  0.711940  1.0
  Zn  Zn5  1  0.012480  0.873300  0.731230  1.0
  Zn  Zn6  1  0.987520  0.126700  0.268770  1.0
  Zn  Zn7  1  0.234680  0.587070  0.232440  1.0
  Zn  Zn8  1  0.765320  0.412930  0.767560  1.0
  B  B9  1  0.468900  0.368700  0.447400  1
  B  B10  1  0.531100  0.631300  0.552600  1
  H  H11  1  0.134700  0.068800  0.486300  1
  H  H12  1  0.865300  0.931200  0.513700  1
  H  H13  1  0.048900  0.065400  0.477200  1
  H  H14  1  0.951100  0.934600  0.522800  1
  H  H15  1  0.063900  0.995600  0.464700  1
  H  H16  1  0.936100  0.004400  0.535300  1
  C  C17  1  0.104000  0.057000  0.562200  1
  C  C18  1  0.896000  0.943000  0.437800  1
  C  C19  1  0.086100  0.045600  0.490900  1
  C  C20  1  0.913900  0.954400  0.509100  1
  C  C21  1  0.841300  0.526900  0.676300  1.0
  C  C22  1  0.158700  0.473100  0.323700  1.0
  C  C23  1  0.872700  0.596800  0.730800  1.0
  C  C24  1  0.127300  0.403200  0.269200  1.0
  C  C25  1  0.442600  0.618100  0.767900  1.0
  C  C26  1  0.557400  0.381900  0.232100  1.0
  C  C27  1  0.493500  0.914600  0.793700  1.0
  C  C28  1  0.506500  0.085400  0.206300  1.0
  C  C29  1  0.475000  0.926600  0.847300  1.0
  C  C30  1  0.525000  0.073400  0.152700  1.0
  C  C31  1  0.446600  0.977900  0.861900  1.0
  C  C32  1  0.553400  0.022100  0.138100  1.0
  C  C33  1  0.436400  0.014400  0.824600  1.0
  C  C34  1  0.563600  0.985600  0.175400  1.0
  C  C35  1  0.454800  0.998800  0.770900  1.0
  C  C36  1  0.545200  0.001200  0.229100  1.0
  C  C37  1  0.591900  0.796500  0.773900  1.0
  C  C38  1  0.408100  0.203500  0.226100  1.0
  C  C39  1  0.554900  0.826300  0.808200  1.0
  C  C40  1  0.445100  0.173700  0.191800  1.0
  C  C41  1  0.532500  0.867400  0.778900  1.0
  C  C42  1  0.467500  0.132600  0.221100  1.0
  C  C43  1  0.634700  0.813200  0.686700  1.0
  C  C44  1  0.365300  0.186800  0.313300  1.0
  C  C45  1  0.714000  0.875900  0.717500  1.0
  C  C46  1  0.286000  0.124100  0.282500  1.0
  C  C47  1  0.758900  0.886600  0.680000  1.0
  C  C48  1  0.241100  0.113400  0.320000  1.0
  C  C49  1  0.830100  0.939100  0.704500  1.0
  C  C50  1  0.169900  0.060900  0.295500  1.0
  C  C51  1  0.861700  0.985100  0.768600  1.0
  C  C52  1  0.138300  0.014900  0.231400  1.0
  C  C53  1  0.817000  0.974500  0.805200  1.0
  C  C54  1  0.183000  0.025500  0.194800  1.0
  C  C55  1  0.745500  0.921100  0.780000  1.0
  C  C56  1  0.254500  0.078900  0.220000  1.0
  C  C57  1  0.874800  0.950100  0.662600  1.0
  C  C58  1  0.125200  0.049900  0.337400  1.0
  C  C59  1  0.993500  0.064400  0.714300  1.0
  C  C60  1  0.006500  0.935600  0.285700  1.0
  C  C61  1  0.068100  0.088700  0.756100  1.0
  C  C62  1  0.931900  0.911300  0.243900  1.0
  C  C63  1  0.073500  0.028200  0.763100  1.0
  C  C64  1  0.926500  0.971800  0.236900  1.0
  C  C65  1  0.143100  0.020200  0.801200  1.0
  C  C66  1  0.856900  0.979800  0.198800  1.0
  C  C67  1  0.209100  0.076700  0.844900  1.0
  C  C68  1  0.790900  0.923300  0.155100  1.0
  C  C69  1  0.271300  0.064900  0.879200  1.0
  C  C70  1  0.728700  0.935100  0.120800  1.0
  C  C71  1  0.259100  0.995300  0.867600  1.0
  C  C72  1  0.740900  0.004700  0.132400  1.0
  C  C73  1  0.190700  0.941200  0.823500  1.0
  C  C74  1  0.809300  0.058800  0.176500  1.0
  C  C75  1  0.906700  0.844800  0.800300  1.0
  C  C76  1  0.093300  0.155200  0.199700  1.0
  C  C77  1  0.877600  0.851800  0.849100  1.0
  C  C78  1  0.122400  0.148200  0.150900  1.0
  C  C79  1  0.926800  0.897500  0.909200  1.0
  C  C80  1  0.073200  0.102500  0.090800  1.0
  C  C81  1  0.001300  0.936900  0.921500  1.0
  C  C82  1  0.998700  0.063100  0.078500  1.0
  C  C83  1  0.027900  0.929100  0.871700  1.0
  C  C84  1  0.972100  0.070900  0.128300  1.0
  C  C85  1  0.767200  0.718300  0.645200  1.0
  C  C86  1  0.232800  0.281700  0.354800  1.0
  C  C87  1  0.784900  0.743800  0.708900  1.0
  C  C88  1  0.215100  0.256200  0.291100  1.0
  C  C89  1  0.859100  0.796200  0.736200  1.0
  C  C90  1  0.140900  0.203800  0.263800  1.0
  C  C91  1  0.834200  0.744500  0.573900  1.0
  C  C92  1  0.165800  0.255500  0.426100  1.0
  C  C93  1  0.873800  0.696700  0.555000  1.0
  C  C94  1  0.126200  0.303300  0.445000  1.0
  C  C95  1  0.888500  0.692200  0.499500  1.0
  C  C96  1  0.111500  0.307800  0.500500  1.0
  C  C97  1  0.925200  0.649600  0.478900  1.0
  C  C98  1  0.074800  0.350400  0.521100  1.0
  C  C99  1  0.946900  0.612300  0.513300  1.0
  C  C100  1  0.053100  0.387700  0.486700  1.0
  C  C101  1  0.933300  0.616200  0.567900  1.0
  C  C102  1  0.066700  0.383800  0.432100  1.0
  C  C103  1  0.897200  0.660000  0.589100  1.0
  C  C104  1  0.102800  0.340000  0.410900  1.0
  C  C105  1  0.944400  0.646300  0.421000  1.0
  C  C106  1  0.055600  0.353700  0.579000  1.0
  C  C107  1  0.938400  0.744600  0.386500  1.0
  C  C108  1  0.061600  0.255400  0.613500  1.0
  C  C109  1  0.879000  0.755600  0.351500  1.0
  C  C110  1  0.121000  0.244400  0.648500  1.0
  C  C111  1  0.812900  0.695300  0.328700  1.0
  C  C112  1  0.187100  0.304700  0.671300  1.0
  C  C113  1  0.733300  0.676100  0.285700  1.0
  C  C114  1  0.266700  0.323900  0.714300  1.0
  C  C115  1  0.705500  0.725200  0.273300  1.0
  C  C116  1  0.294500  0.274800  0.726700  1.0
  C  C117  1  0.630500  0.698700  0.228800  1.0
  C  C118  1  0.369500  0.301300  0.771200  1.0
  C  C119  1  0.586800  0.631700  0.198800  1.0
  C  C120  1  0.413200  0.368300  0.801200  1.0
  C  C121  1  0.614300  0.583300  0.213700  1.0
  C  C122  1  0.385700  0.416700  0.786300  1.0
  C  C123  1  0.783900  0.476900  0.379400  1.0
  C  C124  1  0.216100  0.523100  0.620600  1.0
  C  C125  1  0.822300  0.444900  0.410600  1.0
  C  C126  1  0.177700  0.555100  0.589400  1.0
  C  C127  1  0.873200  0.422200  0.390000  1.0
  C  C128  1  0.126800  0.577800  0.610000  1.0
  C  C129  1  0.885000  0.431500  0.338600  1.0
  C  C130  1  0.115000  0.568500  0.661400  1.0
  C  C131  1  0.844200  0.462200  0.306800  1.0
  C  C132  1  0.155800  0.537800  0.693200  1.0
  C  C133  1  0.662300  0.542200  0.448900  1.0
  C  C134  1  0.337700  0.457800  0.551100  1.0
  C  C135  1  0.713300  0.508800  0.452900  1.0
  C  C136  1  0.286700  0.491200  0.547100  1.0
  C  C137  1  0.730700  0.505300  0.398700  1.0
  C  C138  1  0.269300  0.494700  0.601300  1.0
  C  C139  1  0.599000  0.586300  0.372600  1.0
  C  C140  1  0.401000  0.413700  0.627400  1.0
  C  C141  1  0.519400  0.533000  0.325300  1.0
  C  C142  1  0.480600  0.467000  0.674700  1.0
  C  C143  1  0.482100  0.545100  0.274300  1.0
  C  C144  1  0.517900  0.454900  0.725700  1.0
  C  C145  1  0.407400  0.497100  0.229100  1.0
  C  C146  1  0.592600  0.502900  0.770900  1.0
  C  C147  1  0.372100  0.436200  0.235400  1.0
  C  C148  1  0.627900  0.563800  0.764600  1.0
  C  C149  1  0.407700  0.425000  0.287700  1.0
  C  C150  1  0.592300  0.575000  0.712300  1.0
  C  C151  1  0.481700  0.473200  0.333000  1.0
  C  C152  1  0.518300  0.526800  0.667000  1.0
  C  C153  1  0.373200  0.513800  0.173400  1.0
  C  C154  1  0.626800  0.486200  0.826600  1.0
  C  C155  1  0.248400  0.422500  0.083600  1.0
  C  C156  1  0.751600  0.577500  0.916400  1.0
  C  C157  1  0.169900  0.403900  0.071800  1.0
  C  C158  1  0.830100  0.596100  0.928200  1.0
  C  C159  1  0.167400  0.451400  0.124900  1.0
  C  C160  1  0.832600  0.548600  0.875100  1.0
  C  C161  1  0.099300  0.454600  0.139300  1.0
  C  C162  1  0.900700  0.545400  0.860700  1.0
  C  C163  1  0.025400  0.403400  0.106600  1.0
  C  C164  1  0.974600  0.596600  0.893400  1.0
  C  C165  1  0.965200  0.410600  0.125500  1.0
  C  C166  1  0.034800  0.589400  0.874500  1.0
  C  C167  1  0.983300  0.470600  0.177000  1.0
  C  C168  1  0.016700  0.529400  0.823000  1.0
  C  C169  1  0.056100  0.519100  0.207100  1.0
  C  C170  1  0.943900  0.480900  0.792900  1.0
  C  C171  1  0.172600  0.665100  0.158700  1.0
  C  C172  1  0.827400  0.334900  0.841300  1.0
  C  C173  1  0.149200  0.688500  0.111600  1.0
  C  C174  1  0.850800  0.311500  0.888400  1.0
  C  C175  1  0.166500  0.669900  0.058900  1.0
  C  C176  1  0.833500  0.330100  0.941100  1.0
  C  C177  1  0.207100  0.626100  0.054000  1.0
  C  C178  1  0.792900  0.373900  0.946000  1.0
  C  C179  1  0.227800  0.604700  0.102500  1.0
  C  C180  1  0.772200  0.395300  0.897500  1.0
  C  C181  1  0.125300  0.726800  0.296400  1.0
  C  C182  1  0.874700  0.273200  0.703600  1.0
  C  C183  1  0.112200  0.718000  0.234200  1.0
  C  C184  1  0.887800  0.282000  0.765800  1.0
  C  C185  1  0.159300  0.684400  0.217200  1.0
  C  C186  1  0.840700  0.315600  0.782800  1.0
  C  C187  1  0.220000  0.707400  0.378100  1.0
  C  C188  1  0.780000  0.292600  0.621900  1.0
  C  C189  1  0.298000  0.768600  0.408400  1.0
  C  C190  1  0.702000  0.231400  0.591600  1.0
  C  C191  1  0.363600  0.762900  0.443800  1.0
  C  C192  1  0.636400  0.237100  0.556200  1.0
  C  C193  1  0.435100  0.818300  0.475200  1.0
  C  C194  1  0.564900  0.181700  0.524800  1.0
  C  C195  1  0.444300  0.883000  0.472400  1.0
  C  C196  1  0.555700  0.117000  0.527600  1.0
  C  C197  1  0.379100  0.888700  0.435300  1.0
  C  C198  1  0.620900  0.111300  0.564700  1.0
  C  C199  1  0.308000  0.833400  0.404400  1.0
  C  C200  1  0.692000  0.166600  0.595600  1.0
  C  C201  1  0.504300  0.808000  0.514800  1.0
  C  C202  1  0.495700  0.192000  0.485200  1.0
  C  C203  1  0.632400  0.903300  0.537700  1.0
  C  C204  1  0.367600  0.096700  0.462300  1.0
  C  C205  1  0.682200  0.964300  0.585300  1.0
  C  C206  1  0.317800  0.035700  0.414700  1.0
  C  C207  1  0.649400  0.970000  0.631300  1.0
  C  C208  1  0.350600  0.030000  0.368700  1.0
  C  C209  1  0.679000  0.022300  0.695300  1.0
  C  C210  1  0.321000  0.977700  0.304700  1.0
  C  C211  1  0.750800  0.076000  0.721300  1.0
  C  C212  1  0.249200  0.924000  0.278700  1.0
  C  C213  1  0.780100  0.120400  0.785000  1.0
  C  C214  1  0.219900  0.879600  0.215000  1.0
  C  C215  1  0.733500  0.108300  0.819600  1.0
  C  C216  1  0.266500  0.891700  0.180400  1.0
  C  C217  1  0.660900  0.053500  0.789100  1.0
  C  C218  1  0.339100  0.946500  0.210900  1.0
  C  C219  1  0.385600  0.937900  0.597900  1.0
  C  C220  1  0.614400  0.062100  0.402100  1.0
  C  C221  1  0.334400  0.967000  0.572500  1.0
  C  C222  1  0.665600  0.033000  0.427500  1.0
  C  C223  1  0.368100  0.037500  0.586100  1.0
  C  C224  1  0.631900  0.962500  0.413900  1.0
  C  C225  1  0.443300  0.075600  0.619400  1.0
  C  C226  1  0.556700  0.924400  0.380600  1.0
  C  C227  1  0.490900  0.043000  0.643400  1.0
  C  C228  1  0.509100  0.957000  0.356600  1.0
  C  C229  1  0.281300  0.808900  0.548400  1.0
  C  C230  1  0.718700  0.191100  0.451600  1.0
  C  C231  1  0.288600  0.750200  0.552200  1.0
  C  C232  1  0.711400  0.249800  0.447800  1.0
  C  C233  1  0.362800  0.768100  0.588700  1.0
  C  C234  1  0.637200  0.231900  0.411300  1.0
  C  C235  1  0.395100  0.722800  0.608100  1.0
  C  C236  1  0.604900  0.277200  0.391900  1.0
  C  C237  1  0.384000  0.713100  0.665700  1.0
  C  C238  1  0.616000  0.286900  0.334300  1.0
  C  C239  1  0.411900  0.669700  0.688100  1.0
  C  C240  1  0.588100  0.330300  0.311900  1.0
  C  C241  1  0.404800  0.660300  0.742400  1.0
  C  C242  1  0.595200  0.339700  0.257600  1.0
  C  C243  1  0.365800  0.695100  0.773100  1.0
  C  C244  1  0.634200  0.304900  0.226900  1.0
  C  C245  1  0.337100  0.736800  0.749700  1.0
  C  C246  1  0.662900  0.263200  0.250300  1.0
  C  C247  1  0.345300  0.747100  0.696600  1.0
  C  C248  1  0.654700  0.252900  0.303400  1.0
  C  C249  1  0.447900  0.634800  0.878600  1.0
  C  C250  1  0.552100  0.365200  0.121400  1.0
  C  C251  1  0.394800  0.604200  0.900600  1.0
  C  C252  1  0.605200  0.395800  0.099400  1.0
  C  C253  1  0.667600  0.448100  0.150400  1.0
  C  C254  1  0.332400  0.551900  0.849600  1.0
  C  C255  1  0.741900  0.496800  0.155500  1.0
  C  C256  1  0.258100  0.503200  0.844500  1.0
  C  C257  1  0.759200  0.497700  0.102900  1.0
  C  C258  1  0.240800  0.502300  0.897100  1.0
  C  C259  1  0.829900  0.546200  0.112100  1.0
  C  C260  1  0.170100  0.453800  0.887900  1.0
  C  C261  1  0.882000  0.592100  0.171200  1.0
  C  C262  1  0.118000  0.407900  0.828800  1.0
  C  C263  1  0.860900  0.589300  0.223200  1.0
  C  C264  1  0.139100  0.410700  0.776800  1.0
  C  C265  1  0.073300  0.809000  0.638600  1.0
  C  C266  1  0.926700  0.191000  0.361400  1.0
  C  C267  1  0.098200  0.795600  0.587600  1.0
  C  C268  1  0.901800  0.204400  0.412400  1.0
  C  C269  1  0.085000  0.826200  0.546300  1.0
  C  C270  1  0.915000  0.173800  0.453700  1.0
  C  C271  1  0.047300  0.871500  0.553100  1.0
  C  C272  1  0.952700  0.128500  0.446900  1.0
  C  C273  1  0.023700  0.882000  0.604900  1.0
  C  C274  1  0.976300  0.118000  0.395100  1.0
  C  C275  1  0.131600  0.732400  0.748500  1.0
  C  C276  1  0.868400  0.267600  0.251500  1.0
  C  C277  1  0.135300  0.743800  0.697100  1.0
  C  C278  1  0.864700  0.256200  0.302900  1.0
  C  C279  1  0.088100  0.781000  0.685200  1.0
  C  C280  1  0.911900  0.219000  0.314800  1.0
  C  C281  1  0.061700  0.759100  0.821800  1.0
  C  C282  1  0.938300  0.240900  0.178200  1.0
  C  C283  1  0.981100  0.707400  0.801900  1.0
  C  C284  1  0.018900  0.292600  0.198100  1.0
  C  C285  1  0.946500  0.643400  0.749000  1.0
  C  C286  1  0.053500  0.356600  0.251000  1.0
  C  C287  1  0.827200  0.612500  0.765100  1.0
  C  C288  1  0.172800  0.387500  0.234900  1.0
  C  C289  1  0.860000  0.675000  0.817400  1.0
  C  C290  1  0.140000  0.325000  0.182600  1.0
  C  C291  1  0.935400  0.720500  0.837000  1.0
  C  C292  1  0.064600  0.279500  0.163000  1.0
  C  C293  1  0.699800  0.484100  0.610100  1.0
  C  C294  1  0.300200  0.515900  0.389900  1.0
  C  C295  1  0.631700  0.437300  0.605000  1.0
  C  C296  1  0.368300  0.562700  0.395000  1.0
  C  C297  1  0.345700  0.589500  0.348800  1.0
  C  C298  1  0.654300  0.410500  0.651200  1.0
  C  C299  1  0.392400  0.641500  0.331200  1.0
  C  C300  1  0.607600  0.358500  0.668800  1.0
  C  C301  1  0.472200  0.679500  0.364800  1.0
  C  C302  1  0.527800  0.320500  0.635200  1.0
  C  C303  1  0.512900  0.725900  0.344300  1.0
  C  C304  1  0.487100  0.274100  0.655700  1.0
  C  C305  1  0.474800  0.733900  0.291100  1.0
  C  C306  1  0.525200  0.266100  0.708900  1.0
  C  C307  1  0.394900  0.695400  0.260500  1.0
  C  C308  1  0.605100  0.304600  0.739500  1.0
  N  N309  1  0.081000  0.043600  0.603500  1
  N  N310  1  0.919000  0.956400  0.396500  1
  N  N311  1  0.481700  0.948600  0.756100  1.0
  N  N312  1  0.518300  0.051400  0.243900  1.0
  N  N313  1  0.553300  0.864300  0.728600  1.0
  N  N314  1  0.446700  0.135700  0.271400  1.0
  N  N315  1  0.589100  0.817800  0.725800  1.0
  N  N316  1  0.410900  0.182200  0.274200  1.0
  N  N317  1  0.007300  0.971000  0.728300  1.0
  N  N318  1  0.992700  0.029000  0.271700  1.0
  N  N319  1  0.956600  0.995100  0.697500  1.0
  N  N320  1  0.043400  0.004900  0.302500  1.0
  N  N321  1  0.130400  0.951700  0.790800  1.0
  N  N322  1  0.869600  0.048300  0.209200  1.0
  N  N323  1  0.980800  0.883500  0.812100  1.0
  N  N324  1  0.019200  0.116500  0.187900  1.0
  N  N325  1  0.886600  0.803500  0.690400  1.0
  N  N326  1  0.113400  0.196500  0.309600  1.0
  N  N327  1  0.827700  0.753700  0.634900  1.0
  N  N328  1  0.172300  0.246300  0.365100  1.0
  N  N329  1  0.828800  0.646600  0.348000  1.0
  N  N330  1  0.171200  0.353400  0.652000  1.0
  N  N331  1  0.907400  0.678600  0.383500  1.0
  N  N332  1  0.092600  0.321400  0.616500  1.0
  N  N333  1  0.688100  0.606500  0.257600  1.0
  N  N334  1  0.311900  0.393500  0.742400  1.0
  N  N335  1  0.795100  0.486600  0.328400  1.0
  N  N336  1  0.204900  0.513400  0.671600  1.0
  N  N337  1  0.694200  0.532200  0.364200  1.0
  N  N338  1  0.305800  0.467800  0.635800  1.0
  N  N339  1  0.652600  0.556200  0.396900  1.0
  N  N340  1  0.347400  0.443800  0.603100  1.0
  N  N341  1  0.239000  0.496500  0.167000  1.0
  N  N342  1  0.761000  0.503500  0.833000  1.0
  N  N343  1  0.288700  0.477800  0.140800  1.0
  N  N344  1  0.711300  0.522200  0.859200  1.0
  N  N345  1  0.117100  0.513500  0.190700  1.0
  N  N346  1  0.882900  0.486500  0.809300  1.0
  N  N347  1  0.211600  0.622800  0.154500  1.0
  N  N348  1  0.788400  0.377200  0.845500  1.0
  N  N349  1  0.198400  0.672300  0.266000  1.0
  N  N350  1  0.801600  0.327700  0.734000  1.0
  N  N351  1  0.176200  0.697600  0.314000  1.0
  N  N352  1  0.823800  0.302400  0.686000  1.0
  N  N353  1  0.582400  0.914300  0.611500  1.0
  N  N354  1  0.417600  0.085700  0.388500  1.0
  N  N355  1  0.572600  0.872400  0.553600  1.0
  N  N356  1  0.427400  0.127600  0.446400  1.0
  N  N357  1  0.632000  0.009600  0.727900  1.0
  N  N358  1  0.368000  0.990400  0.272100  1.0
  N  N359  1  0.459800  0.974000  0.632300  1.0
  N  N360  1  0.540200  0.026000  0.367700  1.0
  N  N361  1  0.406000  0.836900  0.610300  1.0
  N  N362  1  0.594000  0.163100  0.389700  1.0
  N  N363  1  0.354500  0.862800  0.584700  1.0
  N  N364  1  0.645500  0.137200  0.415300  1.0
  N  N365  1  0.656000  0.452400  0.205000  1.0
  N  N366  1  0.344000  0.547600  0.795000  1.0
  N  N367  1  0.415800  0.598700  0.814700  1.0
  N  N368  1  0.584200  0.401300  0.185300  1.0
  N  N369  1  0.792600  0.543100  0.214700  1.0
  N  N370  1  0.207400  0.456900  0.785300  1.0
  N  N371  1  0.035500  0.852600  0.645800  1.0
  N  N372  1  0.964500  0.147400  0.354200  1.0
  N  N373  1  0.057600  0.791500  0.730500  1.0
  N  N374  1  0.942400  0.208500  0.269500  1.0
  N  N375  1  0.086100  0.763100  0.770000  1.0
  N  N376  1  0.913900  0.236900  0.230000  1.0
  N  N377  1  0.267800  0.560700  0.318000  1.0
  N  N378  1  0.732200  0.439300  0.682000  1.0
  N  N379  1  0.759300  0.484200  0.655200  1.0
  N  N380  1  0.240700  0.515800  0.344800  1.0
  N  N381  1  0.354400  0.648900  0.279200  1.0
  N  N382  1  0.645600  0.351100  0.720800  1.0
  F  F383  1  0.410900  0.354400  0.392000  1
  F  F384  1  0.589100  0.645600  0.608000  1
  F  F385  1  0.478700  0.312200  0.454400  1
  F  F386  1  0.521300  0.687800  0.545600  1
  F  F387  1  0.537600  0.420600  0.461100  1
  F  F388  1  0.462400  0.579400  0.538900  1
  F  F389  1  0.449900  0.393900  0.499600  1
  F  F390  1  0.550100  0.606100  0.500400  1
