# generated using pymatgen
data_Ir12C204S6N48Cl7(OF)18
_symmetry_space_group_name_H-M   'P 1'
_cell_length_a   23.41283997
_cell_length_b   23.41283997
_cell_length_c   23.41283997
_cell_angle_alpha   90.10125463
_cell_angle_beta   89.89874537
_cell_angle_gamma   89.89874537
_symmetry_Int_Tables_number   1
_chemical_formula_structural   Ir12C204S6N48Cl7(OF)18
_chemical_formula_sum   'Ir24 C408 S12 N96 Cl14 O36 F36'
_cell_volume   12833.94734829
_cell_formula_units_Z   2
loop_
 _symmetry_equiv_pos_site_id
 _symmetry_equiv_pos_as_xyz
  1  'x, y, z'
loop_
 _atom_site_type_symbol
 _atom_site_label
 _atom_site_symmetry_multiplicity
 _atom_site_fract_x
 _atom_site_fract_y
 _atom_site_fract_z
 _atom_site_occupancy
  C  C1  1  0.054300  0.265100  0.546700  1
  C  C2  1  0.734900  0.546700  0.945700  1
  C  C3  1  0.453300  0.945700  0.265100  1
  C  C4  1  0.945700  0.734900  0.453300  1
  C  C5  1  0.265100  0.453300  0.054300  1
  C  C6  1  0.546700  0.054300  0.734900  1
  C  C7  1  0.112300  0.272600  0.781800  1
  C  C8  1  0.727400  0.781800  0.887700  1
  C  C9  1  0.218200  0.887700  0.272600  1
  C  C10  1  0.887700  0.727400  0.218200  1
  C  C11  1  0.272600  0.218200  0.112300  1
  C  C12  1  0.781800  0.112300  0.727400  1
  C  C13  1  0.167900  0.680000  0.391000  1
  C  C14  1  0.320000  0.391000  0.832100  1
  C  C15  1  0.609000  0.832100  0.680000  1
  C  C16  1  0.832100  0.320000  0.609000  1
  C  C17  1  0.680000  0.609000  0.167900  1
  C  C18  1  0.391000  0.167900  0.320000  1
  C  C19  1  0.183800  0.710000  0.334000  1
  C  C20  1  0.290000  0.334000  0.816200  1
  C  C21  1  0.666000  0.816200  0.710000  1
  C  C22  1  0.816200  0.290000  0.666000  1
  C  C23  1  0.710000  0.666000  0.183800  1
  C  C24  1  0.334000  0.183800  0.290000  1
  C  C25  1  0.214100  0.703900  0.395900  1
  C  C26  1  0.296100  0.395900  0.785900  1
  C  C27  1  0.604100  0.785900  0.703900  1
  C  C28  1  0.785900  0.296100  0.604100  1
  C  C29  1  0.703900  0.604100  0.214100  1
  C  C30  1  0.395900  0.214100  0.296100  1
  C  C31  1  0.126800  0.729200  0.389200  1
  C  C32  1  0.270800  0.389200  0.873200  1
  C  C33  1  0.610800  0.873200  0.729200  1
  C  C34  1  0.873200  0.270800  0.610800  1
  C  C35  1  0.729200  0.610800  0.126800  1
  C  C36  1  0.389200  0.126800  0.270800  1
  C  C37  1  0.190000  0.635000  0.342000  1
  C  C38  1  0.365000  0.342000  0.810000  1
  C  C39  1  0.658000  0.810000  0.635000  1
  C  C40  1  0.810000  0.365000  0.658000  1
  C  C41  1  0.635000  0.658000  0.190000  1
  C  C42  1  0.342000  0.190000  0.365000  1
  C  C43  1  0.258000  0.161000  0.547000  1
  C  C44  1  0.839000  0.547000  0.742000  1
  C  C45  1  0.453000  0.742000  0.161000  1
  C  C46  1  0.742000  0.839000  0.453000  1
  C  C47  1  0.161000  0.453000  0.258000  1
  C  C48  1  0.547000  0.258000  0.839000  1
  C  C49  1  0.314200  0.208600  0.673500  1
  C  C50  1  0.791400  0.673500  0.685800  1
  C  C51  1  0.326500  0.685800  0.208600  1
  C  C52  1  0.685800  0.791400  0.326500  1
  C  C53  1  0.208600  0.326500  0.314200  1
  C  C54  1  0.673500  0.314200  0.791400  1
  C  C55  1  0.320700  0.166200  0.630300  1
  C  C56  1  0.833800  0.630300  0.679300  1
  C  C57  1  0.369700  0.679300  0.166200  1
  C  C58  1  0.679300  0.833800  0.369700  1
  C  C59  1  0.166200  0.369700  0.320700  1
  C  C60  1  0.630300  0.320700  0.833800  1
  C  C61  1  0.256000  0.788800  0.918700  1
  C  C62  1  0.211200  0.918700  0.744000  1
  C  C63  1  0.081300  0.744000  0.788800  1
  C  C64  1  0.744000  0.211200  0.081300  1
  C  C65  1  0.788800  0.081300  0.256000  1
  C  C66  1  0.918700  0.256000  0.211200  1
  C  C67  1  0.965000  0.056000  0.857000  1
  C  C68  1  0.944000  0.857000  0.035000  1
  C  C69  1  0.143000  0.035000  0.056000  1
  C  C70  1  0.035000  0.944000  0.143000  1
  C  C71  1  0.056000  0.143000  0.965000  1
  C  C72  1  0.857000  0.965000  0.944000  1
  C  C73  1  0.887000  0.025000  0.813000  1
  C  C74  1  0.975000  0.813000  0.113000  1
  C  C75  1  0.187000  0.113000  0.025000  1
  C  C76  1  0.113000  0.975000  0.187000  1
  C  C77  1  0.025000  0.187000  0.887000  1
  C  C78  1  0.813000  0.887000  0.975000  1
  C  C79  1  0.905000  0.040000  0.834000  1
  C  C80  1  0.960000  0.834000  0.095000  1
  C  C81  1  0.166000  0.095000  0.040000  1
  C  C82  1  0.095000  0.960000  0.166000  1
  C  C83  1  0.040000  0.166000  0.905000  1
  C  C84  1  0.834000  0.905000  0.960000  1
  C  C85  1  0.902000  0.043000  0.903000  1
  C  C86  1  0.957000  0.903000  0.098000  1
  C  C87  1  0.097000  0.098000  0.043000  1
  C  C88  1  0.098000  0.957000  0.097000  1
  C  C89  1  0.043000  0.097000  0.902000  1
  C  C90  1  0.903000  0.902000  0.957000  1
  C  C91  1  0.312000  0.657600  0.705400  1
  C  C92  1  0.342400  0.705400  0.688000  1
  C  C93  1  0.294600  0.688000  0.657600  1
  C  C94  1  0.688000  0.342400  0.294600  1
  C  C95  1  0.657600  0.294600  0.312000  1
  C  C96  1  0.705400  0.312000  0.342400  1
  C  C97  1  0.985000  0.503500  0.702000  1.0
  C  C98  1  0.496500  0.702000  0.015000  1.0
  C  C99  1  0.298000  0.015000  0.503500  1.0
  C  C100  1  0.015000  0.496500  0.298000  1.0
  C  C101  1  0.503500  0.298000  0.985000  1.0
  C  C102  1  0.702000  0.985000  0.496500  1.0
  C  C103  1  0.975400  0.464600  0.657500  1.0
  C  C104  1  0.535400  0.657500  0.024600  1.0
  C  C105  1  0.342500  0.024600  0.464600  1.0
  C  C106  1  0.024600  0.535400  0.342500  1.0
  C  C107  1  0.464600  0.342500  0.975400  1.0
  C  C108  1  0.657500  0.975400  0.535400  1.0
  C  C109  1  0.962100  0.493000  0.605600  1.0
  C  C110  1  0.507000  0.605600  0.037900  1.0
  C  C111  1  0.394400  0.037900  0.493000  1.0
  C  C112  1  0.037900  0.507000  0.394400  1.0
  C  C113  1  0.493000  0.394400  0.962100  1.0
  C  C114  1  0.605600  0.962100  0.507000  1.0
  C  C115  1  0.960900  0.551500  0.617000  1.0
  C  C116  1  0.448500  0.617000  0.039100  1.0
  C  C117  1  0.383000  0.039100  0.551500  1.0
  C  C118  1  0.039100  0.448500  0.383000  1.0
  C  C119  1  0.551500  0.383000  0.960900  1.0
  C  C120  1  0.617000  0.960900  0.448500  1.0
  C  C121  1  0.979700  0.560200  0.676300  1.0
  C  C122  1  0.439800  0.676300  0.020300  1.0
  C  C123  1  0.323700  0.020300  0.560200  1.0
  C  C124  1  0.020300  0.439800  0.323700  1.0
  C  C125  1  0.560200  0.323700  0.979700  1.0
  C  C126  1  0.676300  0.979700  0.439800  1.0
  C  C127  1  0.998600  0.493100  0.762900  1.0
  C  C128  1  0.506900  0.762900  0.001400  1.0
  C  C129  1  0.237100  0.001400  0.493100  1.0
  C  C130  1  0.001400  0.506900  0.237100  1.0
  C  C131  1  0.493100  0.237100  0.998600  1.0
  C  C132  1  0.762900  0.998600  0.506900  1.0
  C  C133  1  0.974500  0.398600  0.666500  1.0
  C  C134  1  0.601400  0.666500  0.025500  1.0
  C  C135  1  0.333500  0.025500  0.398600  1.0
  C  C136  1  0.025500  0.601400  0.333500  1.0
  C  C137  1  0.398600  0.333500  0.974500  1.0
  C  C138  1  0.666500  0.974500  0.601400  1.0
  C  C139  1  0.943400  0.461400  0.552800  1.0
  C  C140  1  0.538600  0.552800  0.056600  1.0
  C  C141  1  0.447200  0.056600  0.461400  1.0
  C  C142  1  0.056600  0.538600  0.447200  1.0
  C  C143  1  0.461400  0.447200  0.943400  1.0
  C  C144  1  0.552800  0.943400  0.538600  1.0
  C  C145  1  0.945400  0.598400  0.575300  1.0
  C  C146  1  0.401600  0.575300  0.054600  1.0
  C  C147  1  0.424700  0.054600  0.598400  1.0
  C  C148  1  0.054600  0.401600  0.424700  1.0
  C  C149  1  0.598400  0.424700  0.945400  1.0
  C  C150  1  0.575300  0.945400  0.401600  1.0
  C  C151  1  0.984900  0.618400  0.706400  1.0
  C  C152  1  0.381600  0.706400  0.015100  1.0
  C  C153  1  0.293600  0.015100  0.618400  1.0
  C  C154  1  0.015100  0.381600  0.293600  1.0
  C  C155  1  0.618400  0.293600  0.984900  1.0
  C  C156  1  0.706400  0.984900  0.381600  1.0
  C  C157  1  0.229600  0.420500  0.527400  1.0
  C  C158  1  0.579500  0.527400  0.770400  1.0
  C  C159  1  0.472600  0.770400  0.420500  1.0
  C  C160  1  0.770400  0.579500  0.472600  1.0
  C  C161  1  0.420500  0.472600  0.229600  1.0
  C  C162  1  0.527400  0.229600  0.579500  1.0
  C  C163  1  0.230400  0.470000  0.492500  1.0
  C  C164  1  0.530000  0.492500  0.769600  1.0
  C  C165  1  0.507500  0.769600  0.470000  1.0
  C  C166  1  0.769600  0.530000  0.507500  1.0
  C  C167  1  0.470000  0.507500  0.230400  1.0
  C  C168  1  0.492500  0.230400  0.530000  1.0
  C  C169  1  0.263000  0.512500  0.521000  1.0
  C  C170  1  0.487500  0.521000  0.737000  1.0
  C  C171  1  0.479000  0.737000  0.512500  1.0
  C  C172  1  0.737000  0.487500  0.479000  1.0
  C  C173  1  0.512500  0.479000  0.263000  1.0
  C  C174  1  0.521000  0.263000  0.487500  1.0
  C  C175  1  0.282300  0.489100  0.573600  1.0
  C  C176  1  0.510900  0.573600  0.717700  1.0
  C  C177  1  0.426400  0.717700  0.489100  1.0
  C  C178  1  0.717700  0.510900  0.426400  1.0
  C  C179  1  0.489100  0.426400  0.282300  1.0
  C  C180  1  0.573600  0.282300  0.510900  1.0
  C  C181  1  0.261600  0.432300  0.577600  1.0
  C  C182  1  0.567700  0.577600  0.738400  1.0
  C  C183  1  0.422400  0.738400  0.432300  1.0
  C  C184  1  0.738400  0.567700  0.422400  1.0
  C  C185  1  0.432300  0.422400  0.261600  1.0
  C  C186  1  0.577600  0.261600  0.567700  1.0
  C  C187  1  0.199800  0.365000  0.513800  1.0
  C  C188  1  0.635000  0.513800  0.800200  1.0
  C  C189  1  0.486200  0.800200  0.365000  1.0
  C  C190  1  0.800200  0.635000  0.486200  1.0
  C  C191  1  0.365000  0.486200  0.199800  1.0
  C  C192  1  0.513800  0.199800  0.635000  1.0
  C  C193  1  0.201700  0.476400  0.435200  1.0
  C  C194  1  0.523600  0.435200  0.798300  1.0
  C  C195  1  0.564800  0.798300  0.476400  1.0
  C  C196  1  0.798300  0.523600  0.564800  1.0
  C  C197  1  0.476400  0.564800  0.201700  1.0
  C  C198  1  0.435200  0.201700  0.523600  1.0
  C  C199  1  0.275100  0.571900  0.499200  1.0
  C  C200  1  0.428100  0.499200  0.724900  1.0
  C  C201  1  0.500800  0.724900  0.571900  1.0
  C  C202  1  0.724900  0.428100  0.500800  1.0
  C  C203  1  0.571900  0.500800  0.275100  1.0
  C  C204  1  0.499200  0.275100  0.428100  1.0
  C  C205  1  0.318400  0.519500  0.617400  1.0
  C  C206  1  0.480500  0.617400  0.681600  1.0
  C  C207  1  0.382600  0.681600  0.519500  1.0
  C  C208  1  0.681600  0.480500  0.382600  1.0
  C  C209  1  0.519500  0.382600  0.318400  1.0
  C  C210  1  0.617400  0.318400  0.480500  1.0
  C  C211  1  0.271800  0.391600  0.626400  1.0
  C  C212  1  0.608400  0.626400  0.728200  1.0
  C  C213  1  0.373600  0.728200  0.391600  1.0
  C  C214  1  0.728200  0.608400  0.373600  1.0
  C  C215  1  0.391600  0.373600  0.271800  1.0
  C  C216  1  0.626400  0.271800  0.608400  1.0
  C  C217  1  0.822800  0.878100  0.713600  1.0
  C  C218  1  0.121900  0.713600  0.177200  1.0
  C  C219  1  0.286400  0.177200  0.878100  1.0
  C  C220  1  0.177200  0.121900  0.286400  1.0
  C  C221  1  0.878100  0.286400  0.822800  1.0
  C  C222  1  0.713600  0.822800  0.121900  1.0
  C  C223  1  0.857600  0.844800  0.745400  1.0
  C  C224  1  0.155200  0.745400  0.142400  1.0
  C  C225  1  0.254600  0.142400  0.844800  1.0
  C  C226  1  0.142400  0.155200  0.254600  1.0
  C  C227  1  0.844800  0.254600  0.857600  1.0
  C  C228  1  0.745400  0.857600  0.155200  1.0
  C  C229  1  0.886100  0.806800  0.712300  1.0
  C  C230  1  0.193200  0.712300  0.113900  1.0
  C  C231  1  0.287700  0.113900  0.806800  1.0
  C  C232  1  0.113900  0.193200  0.287700  1.0
  C  C233  1  0.806800  0.287700  0.886100  1.0
  C  C234  1  0.712300  0.886100  0.193200  1.0
  C  C235  1  0.871200  0.810700  0.655100  1.0
  C  C236  1  0.189300  0.655100  0.128800  1.0
  C  C237  1  0.344900  0.128800  0.810700  1.0
  C  C238  1  0.128800  0.189300  0.344900  1.0
  C  C239  1  0.810700  0.344900  0.871200  1.0
  C  C240  1  0.655100  0.871200  0.189300  1.0
  C  C241  1  0.828100  0.859200  0.653800  1.0
  C  C242  1  0.140800  0.653800  0.171900  1.0
  C  C243  1  0.346200  0.171900  0.859200  1.0
  C  C244  1  0.171900  0.140800  0.346200  1.0
  C  C245  1  0.859200  0.346200  0.828100  1.0
  C  C246  1  0.653800  0.828100  0.140800  1.0
  C  C247  1  0.783000  0.929800  0.728900  1.0
  C  C248  1  0.070200  0.728900  0.217000  1.0
  C  C249  1  0.271100  0.217000  0.929800  1.0
  C  C250  1  0.217000  0.070200  0.271100  1.0
  C  C251  1  0.929800  0.271100  0.783000  1.0
  C  C252  1  0.728900  0.783000  0.070200  1.0
  C  C253  1  0.858300  0.854000  0.807400  1.0
  C  C254  1  0.146000  0.807400  0.141700  1.0
  C  C255  1  0.192600  0.141700  0.854000  1.0
  C  C256  1  0.141700  0.146000  0.192600  1.0
  C  C257  1  0.854000  0.192600  0.858300  1.0
  C  C258  1  0.807400  0.858300  0.146000  1.0
  C  C259  1  0.929700  0.763800  0.741000  1.0
  C  C260  1  0.236200  0.741000  0.070300  1.0
  C  C261  1  0.259000  0.070300  0.763800  1.0
  C  C262  1  0.070300  0.236200  0.259000  1.0
  C  C263  1  0.763800  0.259000  0.929700  1.0
  C  C264  1  0.741000  0.929700  0.236200  1.0
  C  C265  1  0.886400  0.772400  0.609600  1.0
  C  C266  1  0.227600  0.609600  0.113600  1.0
  C  C267  1  0.390400  0.113600  0.772400  1.0
  C  C268  1  0.113600  0.227600  0.390400  1.0
  C  C269  1  0.772400  0.390400  0.886400  1.0
  C  C270  1  0.609600  0.886400  0.227600  1.0
  C  C271  1  0.794700  0.884400  0.599700  1.0
  C  C272  1  0.115600  0.599700  0.205300  1.0
  C  C273  1  0.400300  0.205300  0.884400  1.0
  C  C274  1  0.205300  0.115600  0.400300  1.0
  C  C275  1  0.884400  0.400300  0.794700  1.0
  C  C276  1  0.599700  0.794700  0.115600  1.0
  C  C277  1  0.993500  0.089700  0.601300  1.0
  C  C278  1  0.910300  0.601300  0.006500  1.0
  C  C279  1  0.398700  0.006500  0.089700  1.0
  C  C280  1  0.006500  0.910300  0.398700  1.0
  C  C281  1  0.089700  0.398700  0.993500  1.0
  C  C282  1  0.601300  0.993500  0.910300  1.0
  C  C283  1  0.041700  0.063100  0.585200  1.0
  C  C284  1  0.936900  0.585200  0.958300  1.0
  C  C285  1  0.414800  0.958300  0.063100  1.0
  C  C286  1  0.958300  0.936900  0.414800  1.0
  C  C287  1  0.063100  0.414800  0.041700  1.0
  C  C288  1  0.585200  0.041700  0.936900  1.0
  C  C289  1  0.079600  0.059800  0.635100  1.0
  C  C290  1  0.940200  0.635100  0.920400  1.0
  C  C291  1  0.364900  0.920400  0.059800  1.0
  C  C292  1  0.920400  0.940200  0.364900  1.0
  C  C293  1  0.059800  0.364900  0.079600  1.0
  C  C294  1  0.635100  0.079600  0.940200  1.0
  C  C295  1  0.051400  0.087300  0.680200  1.0
  C  C296  1  0.912700  0.680200  0.948600  1.0
  C  C297  1  0.319800  0.948600  0.087300  1.0
  C  C298  1  0.948600  0.912700  0.319800  1.0
  C  C299  1  0.087300  0.319800  0.051400  1.0
  C  C300  1  0.680200  0.051400  0.912700  1.0
  C  C301  1  0.996500  0.104400  0.663100  1.0
  C  C302  1  0.895600  0.663100  0.003500  1.0
  C  C303  1  0.336900  0.003500  0.104400  1.0
  C  C304  1  0.003500  0.895600  0.336900  1.0
  C  C305  1  0.104400  0.336900  0.996500  1.0
  C  C306  1  0.663100  0.996500  0.895600  1.0
  C  C307  1  0.941500  0.106300  0.562100  1.0
  C  C308  1  0.893700  0.562100  0.058500  1.0
  C  C309  1  0.437900  0.058500  0.106300  1.0
  C  C310  1  0.058500  0.893700  0.437900  1.0
  C  C311  1  0.106300  0.437900  0.941500  1.0
  C  C312  1  0.562100  0.941500  0.893700  1.0
  C  C313  1  0.061300  0.046100  0.525200  1.0
  C  C314  1  0.953900  0.525200  0.938700  1.0
  C  C315  1  0.474800  0.938700  0.046100  1.0
  C  C316  1  0.938700  0.953900  0.474800  1.0
  C  C317  1  0.046100  0.474800  0.061300  1.0
  C  C318  1  0.525200  0.061300  0.953900  1.0
  C  C319  1  0.139200  0.036700  0.634100  1.0
  C  C320  1  0.963300  0.634100  0.860800  1.0
  C  C321  1  0.365900  0.860800  0.036700  1.0
  C  C322  1  0.860800  0.963300  0.365900  1.0
  C  C323  1  0.036700  0.365900  0.139200  1.0
  C  C324  1  0.634100  0.139200  0.963300  1.0
  C  C325  1  0.075600  0.098000  0.738400  1.0
  C  C326  1  0.902000  0.738400  0.924400  1.0
  C  C327  1  0.261600  0.924400  0.098000  1.0
  C  C328  1  0.924400  0.902000  0.261600  1.0
  C  C329  1  0.098000  0.261600  0.075600  1.0
  C  C330  1  0.738400  0.075600  0.902000  1.0
  C  C331  1  0.954300  0.136500  0.695300  1.0
  C  C332  1  0.863500  0.695300  0.045700  1.0
  C  C333  1  0.304700  0.045700  0.136500  1.0
  C  C334  1  0.045700  0.863500  0.304700  1.0
  C  C335  1  0.136500  0.304700  0.954300  1.0
  C  C336  1  0.695300  0.954300  0.863500  1.0
  C  C337  1  0.127900  0.655900  0.564400  1.0
  C  C338  1  0.344100  0.564400  0.872100  1.0
  C  C339  1  0.435600  0.872100  0.655900  1.0
  C  C340  1  0.872100  0.344100  0.435600  1.0
  C  C341  1  0.655900  0.435600  0.127900  1.0
  C  C342  1  0.564400  0.127900  0.344100  1.0
  C  C343  1  0.133700  0.718400  0.557200  1.0
  C  C344  1  0.281600  0.557200  0.866300  1.0
  C  C345  1  0.442800  0.866300  0.718400  1.0
  C  C346  1  0.866300  0.281600  0.442800  1.0
  C  C347  1  0.718400  0.442800  0.133700  1.0
  C  C348  1  0.557200  0.133700  0.281600  1.0
  C  C349  1  0.089700  0.754400  0.571100  1.0
  C  C350  1  0.245600  0.571100  0.910300  1.0
  C  C351  1  0.428900  0.910300  0.754400  1.0
  C  C352  1  0.910300  0.245600  0.428900  1.0
  C  C353  1  0.754400  0.428900  0.089700  1.0
  C  C354  1  0.571100  0.089700  0.245600  1.0
  C  C355  1  0.097700  0.816100  0.570800  1.0
  C  C356  1  0.183900  0.570800  0.902300  1.0
  C  C357  1  0.429200  0.902300  0.816100  1.0
  C  C358  1  0.902300  0.183900  0.429200  1.0
  C  C359  1  0.816100  0.429200  0.097700  1.0
  C  C360  1  0.570800  0.097700  0.183900  1.0
  C  C361  1  0.152500  0.836300  0.549900  1.0
  C  C362  1  0.163700  0.549900  0.847500  1.0
  C  C363  1  0.450100  0.847500  0.836300  1.0
  C  C364  1  0.847500  0.163700  0.450100  1.0
  C  C365  1  0.836300  0.450100  0.152500  1.0
  C  C366  1  0.549900  0.152500  0.163700  1.0
  C  C367  1  0.195400  0.798400  0.536800  1.0
  C  C368  1  0.201600  0.536800  0.804600  1.0
  C  C369  1  0.463200  0.804600  0.798400  1.0
  C  C370  1  0.804600  0.201600  0.463200  1.0
  C  C371  1  0.798400  0.463200  0.195400  1.0
  C  C372  1  0.536800  0.195400  0.201600  1.0
  C  C373  1  0.188700  0.739600  0.538800  1.0
  C  C374  1  0.260400  0.538800  0.811300  1.0
  C  C375  1  0.461200  0.811300  0.739600  1.0
  C  C376  1  0.811300  0.260400  0.461200  1.0
  C  C377  1  0.739600  0.461200  0.188700  1.0
  C  C378  1  0.538800  0.188700  0.260400  1.0
  C  C379  1  0.054900  0.857900  0.590600  1.0
  C  C380  1  0.142100  0.590600  0.945100  1.0
  C  C381  1  0.409400  0.945100  0.857900  1.0
  C  C382  1  0.945100  0.142100  0.409400  1.0
  C  C383  1  0.857900  0.409400  0.054900  1.0
  C  C384  1  0.590600  0.054900  0.142100  1.0
  C  C385  1  0.250900  0.821100  0.521300  1.0
  C  C386  1  0.178900  0.521300  0.749100  1.0
  C  C387  1  0.478700  0.749100  0.821100  1.0
  C  C388  1  0.749100  0.178900  0.478700  1.0
  C  C389  1  0.821100  0.478700  0.250900  1.0
  C  C390  1  0.521300  0.250900  0.178900  1.0
  C  C391  1  0.029000  0.929400  0.802800  1.0
  C  C392  1  0.070600  0.802800  0.971000  1.0
  C  C393  1  0.197200  0.971000  0.929400  1.0
  C  C394  1  0.971000  0.070600  0.197200  1.0
  C  C395  1  0.929400  0.197200  0.029000  1.0
  C  C396  1  0.802800  0.029000  0.070600  1.0
  C  C397  1  0.063800  0.917000  0.855400  1.0
  C  C398  1  0.083000  0.855400  0.936200  1.0
  C  C399  1  0.144600  0.936200  0.917000  1.0
  C  C400  1  0.936200  0.083000  0.144600  1.0
  C  C401  1  0.917000  0.144600  0.063800  1.0
  C  C402  1  0.855400  0.063800  0.083000  1.0
  C  C403  1  0.109300  0.952200  0.871100  1.0
  C  C404  1  0.047800  0.871100  0.890700  1.0
  C  C405  1  0.128900  0.890700  0.952200  1.0
  C  C406  1  0.890700  0.047800  0.128900  1.0
  C  C407  1  0.952200  0.128900  0.109300  1.0
  C  C408  1  0.871100  0.109300  0.047800  1.0
  Cl  Cl409  1  0.231233  0.768767  0.768767  1
  Cl  Cl410  1  0.768767  0.231233  0.231233  1
  Cl  Cl411  1  0.097300  0.447300  0.573200  1.0
  Cl  Cl412  1  0.552700  0.573200  0.902700  1.0
  Cl  Cl413  1  0.426800  0.902700  0.447300  1.0
  Cl  Cl414  1  0.902700  0.552700  0.426800  1.0
  Cl  Cl415  1  0.447300  0.426800  0.097300  1.0
  Cl  Cl416  1  0.573200  0.097300  0.552700  1.0
  Cl  Cl417  1  0.902600  0.987200  0.648300  1.0
  Cl  Cl418  1  0.012800  0.648300  0.097400  1.0
  Cl  Cl419  1  0.351700  0.097400  0.987200  1.0
  Cl  Cl420  1  0.097400  0.012800  0.351700  1.0
  Cl  Cl421  1  0.987200  0.351700  0.902600  1.0
  Cl  Cl422  1  0.648300  0.902600  0.012800  1.0
  F  F423  1  0.081400  0.286600  0.502500  1
  F  F424  1  0.713400  0.502500  0.918600  1
  F  F425  1  0.497500  0.918600  0.286600  1
  F  F426  1  0.918600  0.713400  0.497500  1
  F  F427  1  0.286600  0.497500  0.081400  1
  F  F428  1  0.502500  0.081400  0.713400  1
  F  F429  1  0.031700  0.307100  0.577200  1
  F  F430  1  0.692900  0.577200  0.968300  1
  F  F431  1  0.422800  0.968300  0.307100  1
  F  F432  1  0.968300  0.692900  0.422800  1
  F  F433  1  0.307100  0.422800  0.031700  1
  F  F434  1  0.577200  0.031700  0.692900  1
  F  F435  1  0.013100  0.230600  0.528900  1
  F  F436  1  0.769400  0.528900  0.986900  1
  F  F437  1  0.471100  0.986900  0.230600  1
  F  F438  1  0.986900  0.769400  0.471100  1
  F  F439  1  0.230600  0.471100  0.013100  1
  F  F440  1  0.528900  0.013100  0.769400  1
  F  F441  1  0.153000  0.254000  0.746000  1
  F  F442  1  0.746000  0.746000  0.847000  1
  F  F443  1  0.254000  0.847000  0.254000  1
  F  F444  1  0.847000  0.746000  0.254000  1
  F  F445  1  0.254000  0.254000  0.153000  1
  F  F446  1  0.746000  0.153000  0.746000  1
  F  F447  1  0.127000  0.257000  0.834000  1
  F  F448  1  0.743000  0.834000  0.873000  1
  F  F449  1  0.166000  0.873000  0.257000  1
  F  F450  1  0.873000  0.743000  0.166000  1
  F  F451  1  0.257000  0.166000  0.127000  1
  F  F452  1  0.834000  0.127000  0.743000  1
  F  F453  1  0.063000  0.246000  0.769000  1
  F  F454  1  0.754000  0.769000  0.937000  1
  F  F455  1  0.231000  0.937000  0.246000  1
  F  F456  1  0.937000  0.754000  0.231000  1
  F  F457  1  0.246000  0.231000  0.063000  1
  F  F458  1  0.769000  0.063000  0.754000  1
  Ir  Ir459  1  0.045800  0.515470  0.632150  1.0
  Ir  Ir460  1  0.484530  0.632150  0.954200  1.0
  Ir  Ir461  1  0.367850  0.954200  0.515470  1.0
  Ir  Ir462  1  0.954200  0.484530  0.367850  1.0
  Ir  Ir463  1  0.515470  0.367850  0.045800  1.0
  Ir  Ir464  1  0.632150  0.045800  0.484530  1.0
  Ir  Ir465  1  0.190860  0.491160  0.573880  1.0
  Ir  Ir466  1  0.508840  0.573880  0.809140  1.0
  Ir  Ir467  1  0.426120  0.809140  0.491160  1.0
  Ir  Ir468  1  0.809140  0.508840  0.426120  1.0
  Ir  Ir469  1  0.491160  0.426120  0.190860  1.0
  Ir  Ir470  1  0.573880  0.190860  0.508840  1.0
  Ir  Ir471  1  0.909310  0.889760  0.682400  1.0
  Ir  Ir472  1  0.110240  0.682400  0.090690  1.0
  Ir  Ir473  1  0.317600  0.090690  0.889760  1.0
  Ir  Ir474  1  0.090690  0.110240  0.317600  1.0
  Ir  Ir475  1  0.889760  0.317600  0.909310  1.0
  Ir  Ir476  1  0.682400  0.909310  0.110240  1.0
  Ir  Ir477  1  0.002720  0.013050  0.650450  1.0
  Ir  Ir478  1  0.986950  0.650450  0.997280  1.0
  Ir  Ir479  1  0.349550  0.997280  0.013050  1.0
  Ir  Ir480  1  0.997280  0.986950  0.349550  1.0
  Ir  Ir481  1  0.013050  0.349550  0.002720  1.0
  Ir  Ir482  1  0.650450  0.002720  0.986950  1.0
  N  N483  1  0.080600  0.632000  0.586900  1.0
  N  N484  1  0.368000  0.586900  0.919400  1.0
  N  N485  1  0.413100  0.919400  0.632000  1.0
  N  N486  1  0.919400  0.368000  0.413100  1.0
  N  N487  1  0.632000  0.413100  0.080600  1.0
  N  N488  1  0.586900  0.080600  0.368000  1.0
  N  N489  1  0.094500  0.576300  0.588400  1.0
  N  N490  1  0.423700  0.588400  0.905500  1.0
  N  N491  1  0.411600  0.905500  0.576300  1.0
  N  N492  1  0.905500  0.423700  0.411600  1.0
  N  N493  1  0.576300  0.411600  0.094500  1.0
  N  N494  1  0.588400  0.094500  0.423700  1.0
  N  N495  1  0.145600  0.568800  0.568100  1.0
  N  N496  1  0.431200  0.568100  0.854400  1.0
  N  N497  1  0.431900  0.854400  0.568800  1.0
  N  N498  1  0.854400  0.431200  0.431900  1.0
  N  N499  1  0.568800  0.431900  0.145600  1.0
  N  N500  1  0.568100  0.145600  0.431200  1.0
  N  N501  1  0.167800  0.616300  0.550600  1.0
  N  N502  1  0.383700  0.550600  0.832200  1.0
  N  N503  1  0.449400  0.832200  0.616300  1.0
  N  N504  1  0.832200  0.383700  0.449400  1.0
  N  N505  1  0.616300  0.449400  0.167800  1.0
  N  N506  1  0.550600  0.167800  0.383700  1.0
  N  N507  1  0.006000  0.837000  0.613600  1.0
  N  N508  1  0.163000  0.613600  0.994000  1.0
  N  N509  1  0.386400  0.994000  0.837000  1.0
  N  N510  1  0.994000  0.163000  0.386400  1.0
  N  N511  1  0.837000  0.386400  0.006000  1.0
  N  N512  1  0.613600  0.006000  0.163000  1.0
  N  N513  1  0.982700  0.885100  0.630400  1.0
  N  N514  1  0.114900  0.630400  0.017300  1.0
  N  N515  1  0.369600  0.017300  0.885100  1.0
  N  N516  1  0.017300  0.114900  0.369600  1.0
  N  N517  1  0.885100  0.369600  0.982700  1.0
  N  N518  1  0.630400  0.982700  0.114900  1.0
  N  N519  1  0.015800  0.930300  0.618900  1.0
  N  N520  1  0.069700  0.618900  0.984200  1.0
  N  N521  1  0.381100  0.984200  0.930300  1.0
  N  N522  1  0.984200  0.069700  0.381100  1.0
  N  N523  1  0.930300  0.381100  0.015800  1.0
  N  N524  1  0.618900  0.015800  0.069700  1.0
  N  N525  1  0.062600  0.913600  0.592700  1.0
  N  N526  1  0.086400  0.592700  0.937400  1.0
  N  N527  1  0.407300  0.937400  0.913600  1.0
  N  N528  1  0.937400  0.086400  0.407300  1.0
  N  N529  1  0.913600  0.407300  0.062600  1.0
  N  N530  1  0.592700  0.062600  0.086400  1.0
  N  N531  1  0.263300  0.877800  0.525600  1.0
  N  N532  1  0.122200  0.525600  0.736700  1.0
  N  N533  1  0.474400  0.736700  0.877800  1.0
  N  N534  1  0.736700  0.122200  0.474400  1.0
  N  N535  1  0.877800  0.474400  0.263300  1.0
  N  N536  1  0.525600  0.263300  0.122200  1.0
  N  N537  1  0.319200  0.880900  0.512700  1.0
  N  N538  1  0.119100  0.512700  0.680800  1.0
  N  N539  1  0.487300  0.680800  0.880900  1.0
  N  N540  1  0.680800  0.119100  0.487300  1.0
  N  N541  1  0.880900  0.487300  0.319200  1.0
  N  N542  1  0.512700  0.319200  0.119100  1.0
  N  N543  1  0.340700  0.829900  0.503600  1.0
  N  N544  1  0.170100  0.503600  0.659300  1.0
  N  N545  1  0.496400  0.659300  0.829900  1.0
  N  N546  1  0.659300  0.170100  0.496400  1.0
  N  N547  1  0.829900  0.496400  0.340700  1.0
  N  N548  1  0.503600  0.340700  0.170100  1.0
  N  N549  1  0.298600  0.789100  0.509800  1.0
  N  N550  1  0.210900  0.509800  0.701400  1.0
  N  N551  1  0.490200  0.701400  0.789100  1.0
  N  N552  1  0.701400  0.210900  0.490200  1.0
  N  N553  1  0.789100  0.490200  0.298600  1.0
  N  N554  1  0.509800  0.298600  0.210900  1.0
  N  N555  1  0.984400  0.899000  0.788300  1.0
  N  N556  1  0.101000  0.788300  0.015600  1.0
  N  N557  1  0.211700  0.015600  0.899000  1.0
  N  N558  1  0.015600  0.101000  0.211700  1.0
  N  N559  1  0.899000  0.211700  0.984400  1.0
  N  N560  1  0.788300  0.984400  0.101000  1.0
  N  N561  1  0.969000  0.924000  0.738300  1.0
  N  N562  1  0.076000  0.738300  0.031000  1.0
  N  N563  1  0.261700  0.031000  0.924000  1.0
  N  N564  1  0.031000  0.076000  0.261700  1.0
  N  N565  1  0.924000  0.261700  0.969000  1.0
  N  N566  1  0.738300  0.969000  0.076000  1.0
  N  N567  1  0.005200  0.966400  0.726700  1.0
  N  N568  1  0.033600  0.726700  0.994800  1.0
  N  N569  1  0.273300  0.994800  0.966400  1.0
  N  N570  1  0.994800  0.033600  0.273300  1.0
  N  N571  1  0.966400  0.273300  0.005200  1.0
  N  N572  1  0.726700  0.005200  0.033600  1.0
  N  N573  1  0.044900  0.972800  0.768100  1.0
  N  N574  1  0.027200  0.768100  0.955100  1.0
  N  N575  1  0.231900  0.955100  0.972800  1.0
  N  N576  1  0.955100  0.027200  0.231900  1.0
  N  N577  1  0.972800  0.231900  0.044900  1.0
  N  N578  1  0.768100  0.044900  0.027200  1.0
  O  O579  1  0.149700  0.264600  0.603300  1
  O  O580  1  0.735400  0.603300  0.850300  1
  O  O581  1  0.396700  0.850300  0.264600  1
  O  O582  1  0.850300  0.735400  0.396700  1
  O  O583  1  0.264600  0.396700  0.149700  1
  O  O584  1  0.603300  0.149700  0.735400  1
  O  O585  1  0.122000  0.177700  0.553600  1
  O  O586  1  0.822300  0.553600  0.878000  1
  O  O587  1  0.446400  0.878000  0.177700  1
  O  O588  1  0.878000  0.822300  0.446400  1
  O  O589  1  0.177700  0.446400  0.122000  1
  O  O590  1  0.553600  0.122000  0.822300  1
  O  O591  1  0.070400  0.208000  0.639100  1
  O  O592  1  0.792000  0.639100  0.929600  1
  O  O593  1  0.360900  0.929600  0.208000  1
  O  O594  1  0.929600  0.792000  0.360900  1
  O  O595  1  0.208000  0.360900  0.070400  1
  O  O596  1  0.639100  0.070400  0.792000  1
  O  O597  1  0.130600  0.362500  0.720100  1
  O  O598  1  0.637500  0.720100  0.869400  1
  O  O599  1  0.279900  0.869400  0.362500  1
  O  O600  1  0.869400  0.637500  0.279900  1
  O  O601  1  0.362500  0.279900  0.130600  1
  O  O602  1  0.720100  0.130600  0.637500  1
  O  O603  1  0.138900  0.373300  0.821700  1
  O  O604  1  0.626700  0.821700  0.861100  1
  O  O605  1  0.178300  0.861100  0.373300  1
  O  O606  1  0.861100  0.626700  0.178300  1
  O  O607  1  0.373300  0.178300  0.138900  1
  O  O608  1  0.821700  0.138900  0.626700  1
  O  O609  1  0.044800  0.360700  0.779200  1
  O  O610  1  0.639300  0.779200  0.955200  1
  O  O611  1  0.220800  0.955200  0.360700  1
  O  O612  1  0.955200  0.639300  0.220800  1
  O  O613  1  0.360700  0.220800  0.044800  1
  O  O614  1  0.779200  0.044800  0.639300  1
  S  S615  1  0.105100  0.223600  0.590400  1
  S  S616  1  0.776400  0.590400  0.894900  1
  S  S617  1  0.409600  0.894900  0.223600  1
  S  S618  1  0.894900  0.776400  0.409600  1
  S  S619  1  0.223600  0.409600  0.105100  1
  S  S620  1  0.590400  0.105100  0.776400  1
  S  S621  1  0.104300  0.349800  0.776400  1
  S  S622  1  0.650200  0.776400  0.895700  1
  S  S623  1  0.223600  0.895700  0.349800  1
  S  S624  1  0.895700  0.650200  0.223600  1
  S  S625  1  0.349800  0.223600  0.104300  1
  S  S626  1  0.776400  0.104300  0.650200  1
