# generated using pymatgen
data_Ir2C29SN8Cl(OF)3
_symmetry_space_group_name_H-M   'P 1'
_cell_length_a   13.88450000
_cell_length_b   19.85260000
_cell_length_c   22.39650000
_cell_angle_alpha   105.79800000
_cell_angle_beta   104.97800000
_cell_angle_gamma   96.84800000
_symmetry_Int_Tables_number   1
_chemical_formula_structural   Ir2C29SN8Cl(OF)3
_chemical_formula_sum   'Ir12 C174 S6 N48 Cl6 O18 F18'
_cell_volume   5617.80335457
_cell_formula_units_Z   6
loop_
 _symmetry_equiv_pos_site_id
 _symmetry_equiv_pos_as_xyz
  1  'x, y, z'
loop_
 _atom_site_type_symbol
 _atom_site_label
 _atom_site_symmetry_multiplicity
 _atom_site_fract_x
 _atom_site_fract_y
 _atom_site_fract_z
 _atom_site_occupancy
  Ir  Ir1  1  0.378200  0.193390  0.153390  1
  Ir  Ir2  1  0.621800  0.806610  0.846610  1
  Ir  Ir3  1  0.250920  0.035510  0.005950  1
  Ir  Ir4  1  0.749080  0.964490  0.994050  1
  Ir  Ir5  1  0.087570  0.241770  0.497180  1
  Ir  Ir6  1  0.912430  0.758230  0.502820  1
  Ir  Ir7  1  0.845080  0.113500  0.457740  1
  Ir  Ir8  1  0.154920  0.886500  0.542260  1
  Ir  Ir9  1  0.043760  0.567590  0.248520  1
  Ir  Ir10  1  0.956240  0.432410  0.751480  1
  Ir  Ir11  1  0.788740  0.564290  0.141110  1
  Ir  Ir12  1  0.211260  0.435710  0.858890  1
  C  C13  1  0.531000  0.230000  0.223900  1
  C  C14  1  0.469000  0.770000  0.776100  1
  C  C15  1  0.518000  0.277000  0.187000  1
  C  C16  1  0.482000  0.723000  0.813000  1
  C  C17  1  0.429000  0.309000  0.189000  1
  C  C18  1  0.571000  0.691000  0.811000  1
  C  C19  1  0.393000  0.281000  0.236000  1
  C  C20  1  0.607000  0.719000  0.764000  1
  C  C21  1  0.457000  0.233900  0.259300  1
  C  C22  1  0.543000  0.766100  0.740700  1
  C  C23  1  0.626000  0.193200  0.245700  1
  C  C24  1  0.374000  0.806800  0.754300  1
  C  C25  1  0.576000  0.291000  0.139000  1
  C  C26  1  0.424000  0.709000  0.861000  1
  C  C27  1  0.387000  0.362000  0.161000  1
  C  C28  1  0.613000  0.638000  0.839000  1
  C  C29  1  0.304000  0.301000  0.263000  1
  C  C30  1  0.696000  0.699000  0.737000  1
  C  C31  1  0.457000  0.203000  0.308000  1
  C  C32  1  0.543000  0.797000  0.692000  1
  C  C33  1  0.191000  0.006000  0.900000  1
  C  C34  1  0.809000  0.994000  0.100000  1
  C  C35  1  0.284000  0.979000  0.918000  1
  C  C36  1  0.716000  0.021000  0.082000  1
  C  C37  1  0.276000  0.934000  0.957100  1
  C  C38  1  0.724000  0.066000  0.042900  1
  C  C39  1  0.170000  0.925000  0.958000  1
  C  C40  1  0.830000  0.075000  0.042000  1
  C  C41  1  0.124000  0.963000  0.925900  1
  C  C42  1  0.876000  0.037000  0.074100  1
  C  C43  1  0.163000  0.048000  0.857000  1
  C  C44  1  0.837000  0.952000  0.143000  1
  C  C45  1  0.382000  0.002000  0.900000  1
  C  C46  1  0.618000  0.998000  0.100000  1
  C  C47  1  0.349000  0.890000  0.980000  1
  C  C48  1  0.651000  0.110000  0.020000  1
  C  C49  1  0.133000  0.873000  0.988000  1
  C  C50  1  0.867000  0.127000  0.012000  1
  C  C51  1  0.006000  0.971000  0.911000  1
  C  C52  1  0.994000  0.029000  0.089000  1
  C  C53  1  0.194000  0.318000  0.480000  1
  C  C54  1  0.806000  0.682000  0.520000  1
  C  C55  1  0.250000  0.260000  0.505000  1
  C  C56  1  0.750000  0.740000  0.495000  1
  C  C57  1  0.237000  0.260000  0.564000  1
  C  C58  1  0.763000  0.740000  0.436000  1
  C  C59  1  0.182000  0.323000  0.584500  1
  C  C60  1  0.818000  0.677000  0.415500  1
  C  C61  1  0.169000  0.352000  0.534300  1
  C  C62  1  0.831000  0.648000  0.465700  1
  C  C63  1  0.193000  0.325000  0.420000  1
  C  C64  1  0.807000  0.675000  0.580000  1
  C  C65  1  0.306000  0.209000  0.472000  1
  C  C66  1  0.694000  0.791000  0.528000  1
  C  C67  1  0.276000  0.221000  0.613000  1
  C  C68  1  0.724000  0.779000  0.387000  1
  C  C69  1  0.171000  0.342000  0.650000  1
  C  C70  1  0.829000  0.658000  0.350000  1
  C  C71  1  0.124000  0.416000  0.531000  1
  C  C72  1  0.876000  0.584000  0.469000  1
  C  C73  1  0.789000  0.021000  0.479000  1
  C  C74  1  0.211000  0.979000  0.521000  1
  C  C75  1  0.751000  0.013000  0.415000  1
  C  C76  1  0.249000  0.987000  0.585000  1
  C  C77  1  0.693000  0.061000  0.403600  1
  C  C78  1  0.307000  0.939000  0.596400  1
  C  C79  1  0.696000  0.104000  0.468000  1
  C  C80  1  0.304000  0.896000  0.532000  1
  C  C81  1  0.755000  0.079000  0.515000  1
  C  C82  1  0.245000  0.921000  0.485000  1
  C  C83  1  0.853000  0.975000  0.507000  1
  C  C84  1  0.147000  0.025000  0.493000  1
  C  C85  1  0.757000  0.949000  0.359000  1
  C  C86  1  0.243000  0.051000  0.641000  1
  C  C87  1  0.631000  0.064000  0.337000  1
  C  C88  1  0.369000  0.936000  0.663000  1
  C  C89  1  0.631000  0.163000  0.481000  1
  C  C90  1  0.369000  0.837000  0.519000  1
  C  C91  1  0.778000  0.107000  0.588000  1
  C  C92  1  0.222000  0.893000  0.412000  1
  C  C93  1  0.146000  0.555000  0.336000  1
  C  C94  1  0.854000  0.445000  0.664000  1
  C  C95  1  0.182000  0.532000  0.283000  1
  C  C96  1  0.818000  0.468000  0.717000  1
  C  C97  1  0.203000  0.580000  0.254000  1
  C  C98  1  0.797000  0.420000  0.746000  1
  C  C99  1  0.187000  0.647000  0.291000  1
  C  C100  1  0.813000  0.353000  0.709000  1
  C  C101  1  0.149000  0.628000  0.342000  1
  C  C102  1  0.851000  0.372000  0.658000  1
  C  C103  1  0.127000  0.521000  0.382000  1
  C  C104  1  0.873000  0.479000  0.618000  1
  C  C105  1  0.195000  0.452000  0.252000  1
  C  C106  1  0.805000  0.548000  0.748000  1
  C  C107  1  0.244000  0.577000  0.194000  1
  C  C108  1  0.756000  0.423000  0.806000  1
  C  C109  1  0.203000  0.720000  0.288000  1
  C  C110  1  0.797000  0.280000  0.712000  1
  C  C111  1  0.126000  0.686000  0.396000  1
  C  C112  1  0.874000  0.314000  0.604000  1
  C  C113  1  0.729000  0.625500  0.079900  1
  C  C114  1  0.271000  0.374500  0.920100  1
  C  C115  1  0.694000  0.551300  0.045800  1
  C  C116  1  0.306000  0.448700  0.954200  1
  C  C117  1  0.634000  0.522100  0.079300  1
  C  C118  1  0.366000  0.477900  0.920700  1
  C  C119  1  0.633500  0.578300  0.134100  1
  C  C120  1  0.366500  0.421700  0.865900  1
  C  C121  1  0.692000  0.642200  0.134400  1
  C  C122  1  0.308000  0.357800  0.865600  1
  C  C123  1  0.795000  0.677000  0.061000  1
  C  C124  1  0.205000  0.323000  0.939000  1
  C  C125  1  0.715000  0.511000  0.984700  1
  C  C126  1  0.285000  0.489000  0.015300  1
  C  C127  1  0.582000  0.445000  0.060000  1
  C  C128  1  0.418000  0.555000  0.940000  1
  C  C129  1  0.580000  0.571000  0.183300  1
  C  C130  1  0.420000  0.429000  0.816700  1
  C  C131  1  0.712000  0.715100  0.184100  1
  C  C132  1  0.288000  0.284900  0.815900  1
  C  C133  1  0.216000  0.020000  0.181000  1
  C  C134  1  0.784000  0.980000  0.819000  1
  C  C135  1  0.158000  0.989100  0.218700  1
  C  C136  1  0.842000  0.010900  0.781300  1
  C  C137  1  0.129000  0.034000  0.262800  1
  C  C138  1  0.871000  0.966000  0.737200  1
  C  C139  1  0.066000  0.005000  0.295600  1
  C  C140  1  0.934000  0.995000  0.704400  1
  C  C141  1  0.037000  0.055200  0.345500  1
  C  C142  1  0.963000  0.944800  0.654500  1
  C  C143  1  0.043000  0.933000  0.282000  1
  C  C144  1  0.957000  0.067000  0.718000  1
  C  C145  1  0.078000  0.887000  0.236000  1
  C  C146  1  0.922000  0.113000  0.764000  1
  C  C147  1  0.138000  0.915000  0.205000  1
  C  C148  1  0.862000  0.085000  0.795000  1
  C  C149  1  0.817000  0.300000  0.412600  1
  C  C150  1  0.183000  0.700000  0.587400  1
  C  C151  1  0.764000  0.345500  0.382100  1
  C  C152  1  0.236000  0.654500  0.617900  1
  C  C153  1  0.805000  0.385000  0.346000  1
  C  C154  1  0.195000  0.615000  0.654000  1
  C  C155  1  0.753000  0.425700  0.319000  1
  C  C156  1  0.247000  0.574300  0.681000  1
  C  C157  1  0.649000  0.430300  0.325300  1
  C  C158  1  0.351000  0.569700  0.674700  1
  C  C159  1  0.616000  0.392000  0.361000  1
  C  C160  1  0.384000  0.608000  0.639000  1
  C  C161  1  0.671000  0.355000  0.393000  1
  C  C162  1  0.329000  0.645000  0.607000  1
  C  C163  1  0.794000  0.466300  0.282800  1
  C  C164  1  0.206000  0.533700  0.717200  1
  C  C165  1  0.957000  0.423000  0.066000  1
  C  C166  1  0.043000  0.577000  0.934000  1
  C  C167  1  0.962000  0.355000  0.019000  1
  C  C168  1  0.038000  0.645000  0.981000  1
  C  C169  1  0.036000  0.320300  0.039400  1
  C  C170  1  0.964000  0.679700  0.960600  1
  C  C171  1  0.043000  0.256000  0.998000  1
  C  C172  1  0.957000  0.744000  0.002000  1
  C  C173  1  0.980000  0.230000  0.934000  1
  C  C174  1  0.020000  0.770000  0.066000  1
  C  C175  1  0.905000  0.270000  0.915000  1
  C  C176  1  0.095000  0.730000  0.085000  1
  C  C177  1  0.900000  0.331000  0.953000  1
  C  C178  1  0.100000  0.669000  0.047000  1
  C  C179  1  0.118000  0.213000  0.021000  1
  C  C180  1  0.882000  0.787000  0.979000  1
  C  C181  1  0.517000  0.423000  0.561700  1
  C  C182  1  0.483000  0.577000  0.438300  1
  C  C183  1  0.987000  0.770300  0.767900  1
  C  C184  1  0.013000  0.229700  0.232100  1
  C  C185  1  0.446000  0.857000  0.183000  1
  C  C186  1  0.554000  0.143000  0.817000  1
  S  S187  1  0.513900  0.415500  0.640200  1
  S  S188  1  0.486100  0.584500  0.359800  1
  S  S189  1  0.102500  0.819700  0.761800  1
  S  S190  1  0.897500  0.180300  0.238200  1
  S  S191  1  0.435000  0.767700  0.190500  1
  S  S192  1  0.565000  0.232300  0.809500  1
  N  N193  1  0.197000  0.243600  0.081300  1
  N  N194  1  0.803000  0.756400  0.918700  1
  N  N195  1  0.245000  0.189400  0.081500  1
  N  N196  1  0.755000  0.810600  0.918500  1
  N  N197  1  0.203000  0.130300  0.025800  1
  N  N198  1  0.797000  0.869700  0.974200  1
  N  N199  1  0.121000  0.144400  0.990600  1
  N  N200  1  0.879000  0.855600  0.009400  1
  N  N201  1  0.267000  0.089000  0.202000  1
  N  N202  1  0.733000  0.911000  0.798000  1
  N  N203  1  0.296000  0.099300  0.157400  1
  N  N204  1  0.704000  0.900700  0.842600  1
  N  N205  1  0.252000  0.042200  0.102200  1
  N  N206  1  0.748000  0.957800  0.897800  1
  N  N207  1  0.207000  0.992500  0.118900  1
  N  N208  1  0.793000  0.007500  0.881100  1
  N  N209  1  0.942000  0.039200  0.356200  1
  N  N210  1  0.058000  0.960800  0.643800  1
  N  N211  1  0.951000  0.098900  0.407100  1
  N  N212  1  0.049000  0.901100  0.592900  1
  N  N213  1  0.040900  0.148000  0.421400  1
  N  N214  1  0.959100  0.852000  0.578600  1
  N  N215  1  0.091000  0.119100  0.382900  1
  N  N216  1  0.909000  0.880900  0.617100  1
  N  N217  1  0.922000  0.311600  0.437200  1
  N  N218  1  0.078000  0.688400  0.562800  1
  N  N219  1  0.941000  0.260900  0.454900  1
  N  N220  1  0.059000  0.739100  0.545100  1
  N  N221  1  0.856000  0.213100  0.442700  1
  N  N222  1  0.144000  0.786900  0.557300  1
  N  N223  1  0.777000  0.238600  0.417400  1
  N  N224  1  0.223000  0.761400  0.582600  1
  N  N225  1  0.871000  0.452000  0.055000  1
  N  N226  1  0.129000  0.548000  0.945000  1
  N  N227  1  0.892000  0.500400  0.111000  1
  N  N228  1  0.108000  0.499600  0.889000  1
  N  N229  1  0.979000  0.505100  0.151500  1
  N  N230  1  0.021000  0.494900  0.848500  1
  N  N231  1  0.023000  0.449400  0.123500  1
  N  N232  1  0.977000  0.550600  0.876500  1
  N  N233  1  0.743000  0.484400  0.235500  1
  N  N234  1  0.257000  0.515600  0.764500  1
  N  N235  1  0.816000  0.519200  0.215800  1
  N  N236  1  0.184000  0.480800  0.784200  1
  N  N237  1  0.903000  0.524300  0.258700  1
  N  N238  1  0.097000  0.475700  0.741300  1
  N  N239  1  0.896000  0.485200  0.294800  1
  N  N240  1  0.104000  0.514800  0.705200  1
  Cl  Cl241  1  0.417600  0.112700  0.064500  1
  Cl  Cl242  1  0.582400  0.887300  0.935500  1
  Cl  Cl243  1  0.997900  0.173600  0.549600  1
  Cl  Cl244  1  0.002100  0.826400  0.450400  1
  Cl  Cl245  1  0.944100  0.649300  0.212300  1
  Cl  Cl246  1  0.055900  0.350700  0.787700  1
  O  O247  1  0.554000  0.490000  0.686000  1
  O  O248  1  0.446000  0.510000  0.314000  1
  O  O249  1  0.405000  0.389000  0.636000  1
  O  O250  1  0.595000  0.611000  0.364000  1
  O  O251  1  0.577000  0.358000  0.652000  1
  O  O252  1  0.423000  0.642000  0.348000  1
  O  O253  1  0.085000  0.894000  0.769000  1
  O  O254  1  0.915000  0.106000  0.231000  1
  O  O255  1  0.094000  0.796000  0.695000  1
  O  O256  1  0.906000  0.204000  0.305000  1
  O  O257  1  0.182000  0.827000  0.822000  1
  O  O258  1  0.818000  0.173000  0.178000  1
  O  O259  1  0.452000  0.723000  0.133000  1
  O  O260  1  0.548000  0.277000  0.867000  1
  O  O261  1  0.331000  0.750000  0.193000  1
  O  O262  1  0.669000  0.250000  0.807000  1
  O  O263  1  0.512000  0.776000  0.251000  1
  O  O264  1  0.488000  0.224000  0.749000  1
  F  F265  1  0.607000  0.448000  0.558000  1
  F  F266  1  0.393000  0.552000  0.442000  1
  F  F267  1  0.487000  0.362000  0.513000  1
  F  F268  1  0.513000  0.638000  0.487000  1
  F  F269  1  0.451000  0.463000  0.547000  1
  F  F270  1  0.549000  0.537000  0.453000  1
  F  F271  1  0.006000  0.777000  0.828000  1
  F  F272  1  0.994000  0.223000  0.172000  1
  F  F273  1  0.979000  0.705000  0.740000  1
  F  F274  1  0.021000  0.295000  0.260000  1
  F  F275  1  0.902000  0.800000  0.726000  1
  F  F276  1  0.098000  0.200000  0.274000  1
  F  F277  1  0.389000  0.857000  0.125000  1
  F  F278  1  0.611000  0.143000  0.875000  1
  F  F279  1  0.419000  0.902000  0.228000  1
  F  F280  1  0.581000  0.098000  0.772000  1
  F  F281  1  0.543000  0.881000  0.190000  1
  F  F282  1  0.457000  0.119000  0.810000  1
