# generated using pymatgen
data_Zn3H70C75S3N6Cl14O9
_symmetry_space_group_name_H-M   'P 1'
_cell_length_a   16.98850000
_cell_length_b   18.63090000
_cell_length_c   25.02280000
_cell_angle_alpha   90.00000000
_cell_angle_beta   90.00000000
_cell_angle_gamma   106.57400000
_symmetry_Int_Tables_number   1
_chemical_formula_structural   Zn3H70C75S3N6Cl14O9
_chemical_formula_sum   'Zn12 H280 C300 S12 N24 Cl56 O36'
_cell_volume   7590.93364396
_cell_formula_units_Z   4
loop_
 _symmetry_equiv_pos_site_id
 _symmetry_equiv_pos_as_xyz
  1  'x, y, z'
loop_
 _atom_site_type_symbol
 _atom_site_label
 _atom_site_symmetry_multiplicity
 _atom_site_fract_x
 _atom_site_fract_y
 _atom_site_fract_z
 _atom_site_occupancy
  Zn  Zn1  1  0.289433  0.513168  0.635810  1
  Zn  Zn2  1  0.210567  0.986832  0.135810  1
  Zn  Zn3  1  0.710567  0.486832  0.364190  1
  Zn  Zn4  1  0.789433  0.013168  0.864190  1
  Zn  Zn5  1  0.465321  0.819467  0.513305  1
  Zn  Zn6  1  0.034679  0.680533  0.013305  1
  Zn  Zn7  1  0.534679  0.180533  0.486695  1
  Zn  Zn8  1  0.965321  0.319467  0.986695  1
  Zn  Zn9  1  0.224766  0.826498  0.699597  1
  Zn  Zn10  1  0.275234  0.673502  0.199597  1
  Zn  Zn11  1  0.775234  0.173502  0.300403  1
  Zn  Zn12  1  0.724766  0.326498  0.800403  1
  H  H13  1  0.415200  0.734000  0.668000  1
  H  H14  1  0.084800  0.766000  0.168000  1
  H  H15  1  0.584800  0.266000  0.332000  1
  H  H16  1  0.915200  0.234000  0.832000  1
  H  H17  1  0.238400  0.697200  0.568900  1
  H  H18  1  0.261600  0.802800  0.068900  1
  H  H19  1  0.761600  0.302800  0.431100  1
  H  H20  1  0.738400  0.197200  0.931100  1
  H  H21  1  0.396800  0.526500  0.837000  1
  H  H22  1  0.103200  0.973500  0.337000  1
  H  H23  1  0.603200  0.473500  0.163000  1
  H  H24  1  0.896800  0.026500  0.663000  1
  H  H25  1  0.469500  0.646900  0.862000  1
  H  H26  1  0.030500  0.853100  0.362000  1
  H  H27  1  0.530500  0.353100  0.138000  1
  H  H28  1  0.969500  0.146900  0.638000  1
  H  H29  1  0.496700  0.743300  0.798500  1
  H  H30  1  0.003300  0.756700  0.298500  1
  H  H31  1  0.503300  0.256700  0.201500  1
  H  H32  1  0.996700  0.243300  0.701500  1
  H  H33  1  0.327200  0.438500  0.776500  1
  H  H34  1  0.172800  0.061500  0.276500  1
  H  H35  1  0.672800  0.561500  0.223500  1
  H  H36  1  0.827200  0.938500  0.723500  1
  H  H37  1  0.315600  0.321000  0.748700  1
  H  H38  1  0.184400  0.179000  0.248700  1
  H  H39  1  0.684400  0.679000  0.251300  1
  H  H40  1  0.815600  0.821000  0.751300  1
  H  H41  1  0.245700  0.198100  0.725100  1
  H  H42  1  0.254300  0.301900  0.225100  1
  H  H43  1  0.754300  0.801900  0.274900  1
  H  H44  1  0.745700  0.698100  0.774900  1
  H  H45  1  0.145500  0.174300  0.658800  1
  H  H46  1  0.354500  0.325700  0.158800  1
  H  H47  1  0.854500  0.825700  0.341200  1
  H  H48  1  0.645500  0.674300  0.841200  1
  H  H49  1  0.113100  0.273400  0.615200  1
  H  H50  1  0.386900  0.226600  0.115200  1
  H  H51  1  0.886900  0.726600  0.384800  1
  H  H52  1  0.613100  0.773400  0.884800  1
  H  H53  1  0.065800  0.382400  0.626700  1
  H  H54  1  0.434200  0.117600  0.126700  1
  H  H55  1  0.934200  0.617600  0.373300  1
  H  H56  1  0.565800  0.882400  0.873300  1
  H  H57  1  0.026600  0.650800  0.544700  1
  H  H58  1  0.473400  0.849200  0.044700  1
  H  H59  1  0.973400  0.349200  0.455300  1
  H  H60  1  0.526600  0.150800  0.955300  1
  H  H61  1  0.927200  0.542300  0.573200  1
  H  H62  1  0.572800  0.957700  0.073200  1
  H  H63  1  0.072800  0.457700  0.426800  1
  H  H64  1  0.427200  0.042300  0.926800  1
  H  H65  1  0.967900  0.441500  0.604300  1
  H  H66  1  0.532100  0.058500  0.104300  1
  H  H67  1  0.032100  0.558500  0.395700  1
  H  H68  1  0.467900  0.941500  0.895700  1
  H  H69  1  0.734100  0.758400  0.586500  1
  H  H70  1  0.765900  0.741600  0.086500  1
  H  H71  1  0.265900  0.241600  0.413500  1
  H  H72  1  0.234100  0.258400  0.913500  1
  H  H73  1  0.720100  0.713500  0.673100  1
  H  H74  1  0.779900  0.786500  0.173100  1
  H  H75  1  0.279900  0.286500  0.326900  1
  H  H76  1  0.220100  0.213500  0.826900  1
  H  H77  1  0.596800  0.702800  0.719400  1
  H  H78  1  0.903200  0.797200  0.219400  1
  H  H79  1  0.403200  0.297200  0.280600  1
  H  H80  1  0.096800  0.202800  0.780600  1
  H  H81  1  0.688500  0.804000  0.511600  1
  H  H82  1  0.811500  0.696000  0.011600  1
  H  H83  1  0.311500  0.196000  0.488400  1
  H  H84  1  0.188500  0.304000  0.988400  1
  H  H85  1  0.737000  0.900500  0.452300  1
  H  H86  1  0.763000  0.599500  0.952300  1
  H  H87  1  0.263000  0.099500  0.547700  1
  H  H88  1  0.237000  0.400500  0.047700  1
  H  H89  1  0.762200  0.931700  0.362200  1
  H  H90  1  0.737800  0.568300  0.862200  1
  H  H91  1  0.237800  0.068300  0.637800  1
  H  H92  1  0.262200  0.431700  0.137800  1
  H  H93  1  0.654700  0.906400  0.301100  1
  H  H94  1  0.845300  0.593600  0.801100  1
  H  H95  1  0.345300  0.093600  0.698900  1
  H  H96  1  0.154700  0.406400  0.198900  1
  H  H97  1  0.519900  0.848700  0.329100  1
  H  H98  1  0.980100  0.651300  0.829100  1
  H  H99  1  0.480100  0.151300  0.670900  1
  H  H100  1  0.019900  0.348700  0.170900  1
  H  H101  1  0.428400  0.747000  0.366600  1
  H  H102  1  0.071600  0.753000  0.866600  1
  H  H103  1  0.571600  0.253000  0.633400  1
  H  H104  1  0.928400  0.247000  0.133400  1
  H  H105  1  0.132100  0.587500  0.463800  1
  H  H106  1  0.367900  0.912500  0.963800  1
  H  H107  1  0.867900  0.412500  0.536200  1
  H  H108  1  0.632100  0.087500  0.036200  1
  H  H109  1  0.182700  0.574800  0.378000  1
  H  H110  1  0.317300  0.925200  0.878000  1
  H  H111  1  0.817300  0.425200  0.622000  1
  H  H112  1  0.682700  0.074800  0.122000  1
  H  H113  1  0.308800  0.652600  0.351900  1
  H  H114  1  0.191200  0.847400  0.851900  1
  H  H115  1  0.691200  0.347400  0.648100  1
  H  H116  1  0.808800  0.152600  0.148100  1
  H  H117  1  0.498800  0.007900  0.782400  1
  H  H118  1  0.001200  0.492100  0.282400  1
  H  H119  1  0.501200  0.992100  0.217600  1
  H  H120  1  0.998800  0.507900  0.717600  1
  H  H121  1  0.612200  0.964800  0.769100  1
  H  H122  1  0.887800  0.535200  0.269100  1
  H  H123  1  0.387800  0.035200  0.230900  1
  H  H124  1  0.112200  0.464800  0.730900  1
  H  H125  1  0.594900  0.846300  0.730700  1
  H  H126  1  0.905100  0.653700  0.230700  1
  H  H127  1  0.405100  0.153700  0.269300  1
  H  H128  1  0.094900  0.346300  0.769300  1
  H  H129  1  0.361800  0.997700  0.777300  1
  H  H130  1  0.138200  0.502300  0.277300  1
  H  H131  1  0.638200  0.002300  0.222700  1
  H  H132  1  0.861800  0.497700  0.722700  1
  H  H133  1  0.257000  0.018300  0.825200  1
  H  H134  1  0.243000  0.481700  0.325200  1
  H  H135  1  0.743000  0.981700  0.174800  1
  H  H136  1  0.757000  0.518300  0.674800  1
  H  H137  1  0.155700  0.079700  0.832500  1
  H  H138  1  0.344300  0.420300  0.332500  1
  H  H139  1  0.844300  0.920300  0.167500  1
  H  H140  1  0.655700  0.579700  0.667500  1
  H  H141  1  0.051300  0.060700  0.769000  1
  H  H142  1  0.448700  0.439300  0.269000  1
  H  H143  1  0.948700  0.939300  0.231000  1
  H  H144  1  0.551300  0.560700  0.731000  1
  H  H145  1  0.046200  0.978300  0.697700  1
  H  H146  1  0.453800  0.521700  0.197700  1
  H  H147  1  0.953800  0.021700  0.302300  1
  H  H148  1  0.546200  0.478300  0.802300  1
  H  H149  1  0.107900  0.949300  0.623800  1
  H  H150  1  0.392100  0.550700  0.123800  1
  H  H151  1  0.892100  0.050700  0.376200  1
  H  H152  1  0.607900  0.449300  0.876200  1
  H  H153  1  0.133500  0.749800  0.461000  1
  H  H154  1  0.366500  0.750200  0.961000  1
  H  H155  1  0.866500  0.250200  0.539000  1
  H  H156  1  0.633500  0.249800  0.039000  1
  H  H157  1  0.087100  0.856800  0.457000  1
  H  H158  1  0.412900  0.643200  0.957000  1
  H  H159  1  0.912900  0.143200  0.543000  1
  H  H160  1  0.587100  0.356800  0.043000  1
  H  H161  1  0.084900  0.925000  0.533700  1
  H  H162  1  0.415100  0.575000  0.033700  1
  H  H163  1  0.915100  0.075000  0.466300  1
  H  H164  1  0.584900  0.425000  0.966300  1
  H  H165  1  0.400100  0.638200  0.576900  1
  H  H166  1  0.099900  0.861800  0.076900  1
  H  H167  1  0.599900  0.361800  0.423100  1
  H  H168  1  0.900100  0.138200  0.923100  1
  H  H169  1  0.352700  0.610600  0.522000  1
  H  H170  1  0.147300  0.889400  0.022000  1
  H  H171  1  0.647300  0.389400  0.478000  1
  H  H172  1  0.852700  0.110600  0.978000  1
  H  H173  1  0.448700  0.654000  0.521300  1
  H  H174  1  0.051300  0.846000  0.021300  1
  H  H175  1  0.551300  0.346000  0.478700  1
  H  H176  1  0.948700  0.154000  0.978700  1
  H  H177  1  0.533600  0.516900  0.599800  1
  H  H178  1  0.966400  0.983100  0.099800  1
  H  H179  1  0.466400  0.483100  0.400200  1
  H  H180  1  0.033600  0.016900  0.900200  1
  H  H181  1  0.498200  0.581500  0.623200  1
  H  H182  1  0.001800  0.918500  0.123200  1
  H  H183  1  0.501800  0.418500  0.376800  1
  H  H184  1  0.998200  0.081500  0.876800  1
  H  H185  1  0.558600  0.598100  0.572700  1
  H  H186  1  0.941400  0.901900  0.072700  1
  H  H187  1  0.441400  0.401900  0.427300  1
  H  H188  1  0.058600  0.098100  0.927300  1
  H  H189  1  0.403900  0.914100  0.632600  1
  H  H190  1  0.096100  0.585900  0.132600  1
  H  H191  1  0.596100  0.085900  0.367400  1
  H  H192  1  0.903900  0.414100  0.867400  1
  H  H193  1  0.343900  0.856200  0.592900  1
  H  H194  1  0.156100  0.643800  0.092900  1
  H  H195  1  0.656100  0.143800  0.407100  1
  H  H196  1  0.843900  0.356200  0.907100  1
  H  H197  1  0.317400  0.925900  0.616300  1
  H  H198  1  0.182600  0.574100  0.116300  1
  H  H199  1  0.682600  0.074100  0.383700  1
  H  H200  1  0.817400  0.425900  0.883700  1
  H  H201  1  0.304900  0.880000  0.502100  1
  H  H202  1  0.195100  0.620000  0.002100  1
  H  H203  1  0.695100  0.120000  0.497900  1
  H  H204  1  0.804900  0.380000  0.997900  1
  H  H205  1  0.339100  0.955200  0.468100  1
  H  H206  1  0.160900  0.544800  0.968100  1
  H  H207  1  0.660900  0.044800  0.531900  1
  H  H208  1  0.839100  0.455200  0.031900  1
  H  H209  1  0.278600  0.953300  0.517500  1
  H  H210  1  0.221400  0.546700  0.017500  1
  H  H211  1  0.721400  0.046700  0.482500  1
  H  H212  1  0.778600  0.453300  0.982500  1
  H  H213  1  0.241500  0.672600  0.696300  1
  H  H214  1  0.258500  0.827400  0.196300  1
  H  H215  1  0.758500  0.327400  0.303700  1
  H  H216  1  0.741500  0.172600  0.803700  1
  H  H217  1  0.148300  0.632300  0.679900  1
  H  H218  1  0.351700  0.867700  0.179900  1
  H  H219  1  0.851700  0.367700  0.320100  1
  H  H220  1  0.648300  0.132300  0.820100  1
  H  H221  1  0.197300  0.589500  0.716800  1
  H  H222  1  0.302700  0.910500  0.216800  1
  H  H223  1  0.802700  0.410500  0.283200  1
  H  H224  1  0.697300  0.089500  0.783200  1
  H  H225  1  0.237900  0.711700  0.840300  1
  H  H226  1  0.262100  0.788300  0.340300  1
  H  H227  1  0.762100  0.288300  0.159700  1
  H  H228  1  0.737900  0.211700  0.659700  1
  H  H229  1  0.292500  0.719900  0.787300  1
  H  H230  1  0.207500  0.780100  0.287300  1
  H  H231  1  0.707500  0.280100  0.212700  1
  H  H232  1  0.792500  0.219900  0.712700  1
  H  H233  1  0.253700  0.639100  0.813400  1
  H  H234  1  0.246300  0.860900  0.313400  1
  H  H235  1  0.746300  0.360900  0.186600  1
  H  H236  1  0.753700  0.139100  0.686600  1
  H  H237  1  0.009400  0.734500  0.639600  1
  H  H238  1  0.490600  0.765500  0.139600  1
  H  H239  1  0.990600  0.265500  0.360400  1
  H  H240  1  0.509400  0.234500  0.860400  1
  H  H241  1  0.022400  0.772000  0.697600  1
  H  H242  1  0.477600  0.728000  0.197600  1
  H  H243  1  0.977600  0.228000  0.302400  1
  H  H244  1  0.522400  0.272000  0.802400  1
  H  H245  1  0.181600  0.451900  0.507400  1
  H  H246  1  0.318400  0.048100  0.007400  1
  H  H247  1  0.818400  0.548100  0.492600  1
  H  H248  1  0.681600  0.951900  0.992600  1
  H  H249  1  0.244900  0.409700  0.529400  1
  H  H250  1  0.255100  0.090300  0.029400  1
  H  H251  1  0.755100  0.590300  0.470600  1
  H  H252  1  0.744900  0.909700  0.970600  1
  H  H253  1  0.575400  0.916200  0.643500  1
  H  H254  1  0.924600  0.583800  0.143500  1
  H  H255  1  0.424600  0.083800  0.356500  1
  H  H256  1  0.075400  0.416200  0.856500  1
  H  H257  1  0.600900  0.941100  0.583100  1
  H  H258  1  0.899100  0.558900  0.083100  1
  H  H259  1  0.399100  0.058900  0.416900  1
  H  H260  1  0.100900  0.441100  0.916900  1
  H  H261  1  0.377000  0.280800  0.628100  1
  H  H262  1  0.123000  0.219200  0.128100  1
  H  H263  1  0.623000  0.719200  0.371900  1
  H  H264  1  0.877000  0.780800  0.871900  1
  H  H265  1  0.363400  0.362300  0.625200  1
  H  H266  1  0.136600  0.137700  0.125200  1
  H  H267  1  0.636600  0.637700  0.374800  1
  H  H268  1  0.863400  0.862300  0.874800  1
  H  H269  1  0.850500  0.824200  0.502200  1
  H  H270  1  0.649500  0.675800  0.002200  1
  H  H271  1  0.149500  0.175800  0.497800  1
  H  H272  1  0.350500  0.324200  0.997800  1
  H  H273  1  0.939600  0.859700  0.527400  1
  H  H274  1  0.560400  0.640300  0.027400  1
  H  H275  1  0.060400  0.140300  0.472600  1
  H  H276  1  0.439600  0.359700  0.972600  1
  H  H277  1  0.374800  0.275000  0.624500  1
  H  H278  1  0.125200  0.225000  0.124500  1
  H  H279  1  0.625200  0.725000  0.375500  1
  H  H280  1  0.874800  0.775000  0.875500  1
  H  H281  1  0.353600  0.353300  0.622800  1
  H  H282  1  0.146400  0.146700  0.122800  1
  H  H283  1  0.646400  0.646700  0.377200  1
  H  H284  1  0.853600  0.853300  0.877200  1
  H  H285  1  0.995200  0.963400  0.486100  1
  H  H286  1  0.504800  0.536600  0.986100  1
  H  H287  1  0.004800  0.036600  0.513900  1
  H  H288  1  0.495200  0.463400  0.013900  1
  H  H289  1  0.914800  0.987800  0.475000  1
  H  H290  1  0.585200  0.512200  0.975000  1
  H  H291  1  0.085200  0.012200  0.525000  1
  H  H292  1  0.414800  0.487800  0.025000  1
  C  C293  1  0.462290  0.743550  0.693560  1
  C  C294  1  0.037710  0.756450  0.193560  1
  C  C295  1  0.537710  0.256450  0.306440  1
  C  C296  1  0.962290  0.243550  0.806440  1
  C  C297  1  0.192310  0.686230  0.542480  1
  C  C298  1  0.307690  0.813770  0.042480  1
  C  C299  1  0.807690  0.313770  0.457520  1
  C  C300  1  0.692310  0.186230  0.957520  1
  C  C301  1  0.440940  0.681800  0.735600  1
  C  C302  1  0.059060  0.818200  0.235600  1
  C  C303  1  0.559060  0.318200  0.264400  1
  C  C304  1  0.940940  0.181800  0.764400  1
  C  C305  1  0.393980  0.608240  0.719310  1
  C  C306  1  0.106020  0.891760  0.219310  1
  C  C307  1  0.606020  0.391760  0.280690  1
  C  C308  1  0.893980  0.108240  0.780690  1
  C  C309  1  0.378380  0.549570  0.758550  1
  C  C310  1  0.121620  0.950430  0.258550  1
  C  C311  1  0.621620  0.450430  0.241450  1
  C  C312  1  0.878380  0.049570  0.741450  1
  C  C313  1  0.407460  0.565730  0.811330  1
  C  C314  1  0.092540  0.934270  0.311330  1
  C  C315  1  0.592540  0.434270  0.188670  1
  C  C316  1  0.907460  0.065730  0.688670  1
  C  C317  1  0.450680  0.636640  0.826280  1
  C  C318  1  0.049320  0.863360  0.326280  1
  C  C319  1  0.549320  0.363360  0.173720  1
  C  C320  1  0.950680  0.136640  0.673720  1
  C  C321  1  0.466830  0.694070  0.787970  1
  C  C322  1  0.033170  0.805930  0.287970  1
  C  C323  1  0.533170  0.305930  0.212030  1
  C  C324  1  0.966830  0.194070  0.712030  1
  C  C325  1  0.332880  0.473260  0.748010  1
  C  C326  1  0.167120  0.026740  0.248010  1
  C  C327  1  0.667120  0.526740  0.251990  1
  C  C328  1  0.832880  0.973260  0.751990  1
  C  C329  1  0.256530  0.371380  0.695820  1
  C  C330  1  0.243470  0.128620  0.195820  1
  C  C331  1  0.743470  0.628620  0.304180  1
  C  C332  1  0.756530  0.871380  0.804180  1
  C  C333  1  0.274800  0.311690  0.721630  1
  C  C334  1  0.225200  0.188310  0.221630  1
  C  C335  1  0.725200  0.688310  0.278370  1
  C  C336  1  0.774800  0.811690  0.778370  1
  C  C337  1  0.233160  0.238720  0.707570  1
  C  C338  1  0.266840  0.261280  0.207570  1
  C  C339  1  0.766840  0.761280  0.292430  1
  C  C340  1  0.733160  0.738720  0.792430  1
  C  C341  1  0.173410  0.224530  0.668180  1
  C  C342  1  0.326590  0.275470  0.168180  1
  C  C343  1  0.826590  0.775470  0.331820  1
  C  C344  1  0.673410  0.724530  0.831820  1
  C  C345  1  0.153990  0.283280  0.642250  1
  C  C346  1  0.346010  0.216720  0.142250  1
  C  C347  1  0.846010  0.716720  0.357750  1
  C  C348  1  0.653990  0.783280  0.857750  1
  C  C349  1  0.195120  0.356860  0.656310  1
  C  C350  1  0.304880  0.143140  0.156310  1
  C  C351  1  0.804880  0.643140  0.343690  1
  C  C352  1  0.695120  0.856860  0.843690  1
  C  C353  1  0.110680  0.425470  0.620110  1
  C  C354  1  0.389320  0.074530  0.120110  1
  C  C355  1  0.889320  0.574530  0.379890  1
  C  C356  1  0.610680  0.925470  0.879890  1
  C  C357  1  0.092190  0.489980  0.598320  1
  C  C358  1  0.407810  0.010020  0.098320  1
  C  C359  1  0.907810  0.510020  0.401680  1
  C  C360  1  0.592190  0.989980  0.901680  1
  C  C361  1  0.153840  0.557720  0.584200  1
  C  C362  1  0.346160  0.942280  0.084200  1
  C  C363  1  0.846160  0.442280  0.415800  1
  C  C364  1  0.653840  0.057720  0.915800  1
  C  C365  1  0.126570  0.617610  0.562360  1
  C  C366  1  0.373430  0.882390  0.062360  1
  C  C367  1  0.873430  0.382390  0.437640  1
  C  C368  1  0.626570  0.117610  0.937640  1
  C  C369  1  0.043810  0.610330  0.558760  1
  C  C370  1  0.456190  0.889670  0.058760  1
  C  C371  1  0.956190  0.389670  0.441240  1
  C  C372  1  0.543810  0.110330  0.941240  1
  C  C373  1  0.983860  0.545230  0.575170  1
  C  C374  1  0.516140  0.954770  0.075170  1
  C  C375  1  0.016140  0.454770  0.424830  1
  C  C376  1  0.483860  0.045230  0.924830  1
  C  C377  1  0.008270  0.486110  0.593940  1
  C  C378  1  0.491730  0.013890  0.093940  1
  C  C379  1  0.991730  0.513890  0.406060  1
  C  C380  1  0.508270  0.986110  0.906060  1
  C  C381  1  0.538630  0.742930  0.661610  1
  C  C382  1  0.961370  0.757070  0.161610  1
  C  C383  1  0.461370  0.257070  0.338390  1
  C  C384  1  0.038630  0.242930  0.838390  1
  C  C385  1  0.545670  0.771990  0.607900  1
  C  C386  1  0.954330  0.728010  0.107900  1
  C  C387  1  0.454330  0.228010  0.392100  1
  C  C388  1  0.045670  0.271990  0.892100  1
  C  C389  1  0.621440  0.777800  0.580300  1
  C  C390  1  0.878560  0.722200  0.080300  1
  C  C391  1  0.378560  0.222200  0.419700  1
  C  C392  1  0.121440  0.277800  0.919700  1
  C  C393  1  0.684780  0.754920  0.605550  1
  C  C394  1  0.815220  0.745080  0.105550  1
  C  C395  1  0.315220  0.245080  0.394450  1
  C  C396  1  0.184780  0.254920  0.894450  1
  C  C397  1  0.676740  0.727970  0.656470  1
  C  C398  1  0.823260  0.772030  0.156470  1
  C  C399  1  0.323260  0.272030  0.343530  1
  C  C400  1  0.176740  0.227970  0.843530  1
  C  C401  1  0.602680  0.722020  0.684010  1
  C  C402  1  0.897320  0.777980  0.184010  1
  C  C403  1  0.397320  0.277980  0.315990  1
  C  C404  1  0.102680  0.222020  0.815990  1
  C  C405  1  0.637880  0.805540  0.526940  1
  C  C406  1  0.862120  0.694460  0.026940  1
  C  C407  1  0.362120  0.194460  0.473060  1
  C  C408  1  0.137880  0.305540  0.973060  1
  C  C409  1  0.612790  0.854160  0.444320  1
  C  C410  1  0.887210  0.645840  0.944320  1
  C  C411  1  0.387210  0.145840  0.555680  1
  C  C412  1  0.112790  0.354160  0.055680  1
  C  C413  1  0.693020  0.889460  0.427410  1
  C  C414  1  0.806980  0.610540  0.927410  1
  C  C415  1  0.306980  0.110540  0.572590  1
  C  C416  1  0.193020  0.389460  0.072590  1
  C  C417  1  0.707740  0.908260  0.373930  1
  C  C418  1  0.792260  0.591740  0.873930  1
  C  C419  1  0.292260  0.091740  0.626070  1
  C  C420  1  0.207740  0.408260  0.126070  1
  C  C421  1  0.643890  0.893180  0.337630  1
  C  C422  1  0.856110  0.606820  0.837630  1
  C  C423  1  0.356110  0.106820  0.662370  1
  C  C424  1  0.143890  0.393180  0.162370  1
  C  C425  1  0.563690  0.858620  0.354190  1
  C  C426  1  0.936310  0.641380  0.854190  1
  C  C427  1  0.436310  0.141380  0.645810  1
  C  C428  1  0.063690  0.358620  0.145810  1
  C  C429  1  0.547870  0.838670  0.407640  1
  C  C430  1  0.952130  0.661330  0.907640  1
  C  C431  1  0.452130  0.161330  0.592360  1
  C  C432  1  0.047870  0.338670  0.092360  1
  C  C433  1  0.415140  0.755320  0.402560  1
  C  C434  1  0.084860  0.744680  0.902560  1
  C  C435  1  0.584860  0.244680  0.597440  1
  C  C436  1  0.915140  0.255320  0.097440  1
  C  C437  1  0.336400  0.712380  0.421820  1
  C  C438  1  0.163600  0.787620  0.921820  1
  C  C439  1  0.663600  0.287620  0.578180  1
  C  C440  1  0.836400  0.212380  0.078180  1
  C  C441  1  0.306720  0.720460  0.474400  1
  C  C442  1  0.193280  0.779540  0.974400  1
  C  C443  1  0.693280  0.279540  0.525600  1
  C  C444  1  0.806720  0.220460  0.025600  1
  C  C445  1  0.227230  0.672580  0.488730  1
  C  C446  1  0.272770  0.827420  0.988730  1
  C  C447  1  0.772770  0.327420  0.511270  1
  C  C448  1  0.727230  0.172580  0.011270  1
  C  C449  1  0.183960  0.619700  0.453260  1
  C  C450  1  0.316040  0.880300  0.953260  1
  C  C451  1  0.816040  0.380300  0.546740  1
  C  C452  1  0.683960  0.119700  0.046740  1
  C  C453  1  0.213970  0.611680  0.401860  1
  C  C454  1  0.286030  0.888320  0.901860  1
  C  C455  1  0.786030  0.388320  0.598140  1
  C  C456  1  0.713970  0.111680  0.098140  1
  C  C457  1  0.288590  0.657560  0.386660  1
  C  C458  1  0.211410  0.842440  0.886660  1
  C  C459  1  0.711410  0.342440  0.613340  1
  C  C460  1  0.788590  0.157560  0.113340  1
  C  C461  1  0.472560  0.820360  0.718480  1
  C  C462  1  0.027440  0.679640  0.218480  1
  C  C463  1  0.527440  0.179640  0.281520  1
  C  C464  1  0.972560  0.320360  0.781520  1
  C  C465  1  0.401500  0.845550  0.725780  1
  C  C466  1  0.098500  0.654450  0.225780  1
  C  C467  1  0.598500  0.154450  0.274220  1
  C  C468  1  0.901500  0.345550  0.774220  1
  C  C469  1  0.412610  0.916900  0.750900  1
  C  C470  1  0.087390  0.583100  0.250900  1
  C  C471  1  0.587390  0.083100  0.249100  1
  C  C472  1  0.912610  0.416900  0.749100  1
  C  C473  1  0.492060  0.960340  0.766400  1
  C  C474  1  0.007940  0.539660  0.266400  1
  C  C475  1  0.507940  0.039660  0.233600  1
  C  C476  1  0.992060  0.460340  0.733600  1
  C  C477  1  0.559090  0.935060  0.758700  1
  C  C478  1  0.940910  0.564940  0.258700  1
  C  C479  1  0.440910  0.064940  0.241300  1
  C  C480  1  0.059090  0.435060  0.741300  1
  C  C481  1  0.548370  0.864370  0.735200  1
  C  C482  1  0.951630  0.635630  0.235200  1
  C  C483  1  0.451630  0.135630  0.264800  1
  C  C484  1  0.048370  0.364370  0.764800  1
  C  C485  1  0.347500  0.950340  0.760050  1
  C  C486  1  0.152500  0.549660  0.260050  1
  C  C487  1  0.652500  0.049660  0.239950  1
  C  C488  1  0.847500  0.450340  0.739950  1
  C  C489  1  0.213670  0.962450  0.756150  1
  C  C490  1  0.286330  0.537550  0.256150  1
  C  C491  1  0.786330  0.037550  0.243850  1
  C  C492  1  0.713670  0.462450  0.743850  1
  C  C493  1  0.214870  0.010430  0.799030  1
  C  C494  1  0.285130  0.489570  0.299030  1
  C  C495  1  0.785130  0.989570  0.200970  1
  C  C496  1  0.714870  0.510430  0.700970  1
  C  C497  1  0.154480  0.046670  0.803380  1
  C  C498  1  0.345520  0.453330  0.303380  1
  C  C499  1  0.845520  0.953330  0.196620  1
  C  C500  1  0.654480  0.546670  0.696620  1
  C  C501  1  0.092130  0.035240  0.765720  1
  C  C502  1  0.407870  0.464760  0.265720  1
  C  C503  1  0.907870  0.964760  0.234280  1
  C  C504  1  0.592130  0.535240  0.734280  1
  C  C505  1  0.089330  0.986620  0.723210  1
  C  C506  1  0.410670  0.513380  0.223210  1
  C  C507  1  0.910670  0.013380  0.276790  1
  C  C508  1  0.589330  0.486620  0.776790  1
  C  C509  1  0.150020  0.950190  0.718190  1
  C  C510  1  0.349980  0.549810  0.218190  1
  C  C511  1  0.849980  0.049810  0.281810  1
  C  C512  1  0.650020  0.450190  0.781810  1
  C  C513  1  0.129000  0.907920  0.629670  1
  C  C514  1  0.371000  0.592080  0.129670  1
  C  C515  1  0.871000  0.092080  0.370330  1
  C  C516  1  0.629000  0.407920  0.870330  1
  C  C517  1  0.131280  0.860710  0.584890  1
  C  C518  1  0.368720  0.639290  0.084890  1
  C  C519  1  0.868720  0.139290  0.415110  1
  C  C520  1  0.631280  0.360710  0.915110  1
  C  C521  1  0.161210  0.796380  0.587960  1
  C  C522  1  0.338790  0.703620  0.087960  1
  C  C523  1  0.838790  0.203620  0.412040  1
  C  C524  1  0.661210  0.296380  0.912040  1
  C  C525  1  0.161360  0.755070  0.539550  1
  C  C526  1  0.338640  0.744930  0.039550  1
  C  C527  1  0.838640  0.244930  0.460450  1
  C  C528  1  0.661360  0.255070  0.960450  1
  C  C529  1  0.133540  0.778030  0.492640  1
  C  C530  1  0.366460  0.721970  0.992640  1
  C  C531  1  0.866460  0.221970  0.507360  1
  C  C532  1  0.633540  0.278030  0.007360  1
  C  C533  1  0.105240  0.841820  0.490000  1
  C  C534  1  0.394760  0.658180  0.990000  1
  C  C535  1  0.894760  0.158180  0.510000  1
  C  C536  1  0.605240  0.341820  0.010000  1
  C  C537  1  0.104190  0.881960  0.535330  1
  C  C538  1  0.395810  0.618040  0.035330  1
  C  C539  1  0.895810  0.118040  0.464670  1
  C  C540  1  0.604190  0.381960  0.964670  1
  C  C541  1  0.404790  0.618330  0.541140  1
  C  C542  1  0.095210  0.881670  0.041140  1
  C  C543  1  0.595210  0.381670  0.458860  1
  C  C544  1  0.904790  0.118330  0.958860  1
  C  C545  1  0.514340  0.560220  0.590570  1
  C  C546  1  0.985660  0.939780  0.090570  1
  C  C547  1  0.485660  0.439780  0.409430  1
  C  C548  1  0.014340  0.060220  0.909430  1
  C  C549  1  0.363690  0.908870  0.603710  1
  C  C550  1  0.136310  0.591130  0.103710  1
  C  C551  1  0.636310  0.091130  0.396290  1
  C  C552  1  0.863690  0.408870  0.896290  1
  C  C553  1  0.323300  0.934760  0.503910  1
  C  C554  1  0.176700  0.565240  0.003910  1
  C  C555  1  0.676700  0.065240  0.496090  1
  C  C556  1  0.823300  0.434760  0.996090  1
  C  C557  1  0.189390  0.638320  0.708340  1
  C  C558  1  0.310610  0.861680  0.208340  1
  C  C559  1  0.810610  0.361680  0.291660  1
  C  C560  1  0.689390  0.138320  0.791660  1
  C  C561  1  0.244930  0.688000  0.806390  1
  C  C562  1  0.255070  0.812000  0.306390  1
  C  C563  1  0.755070  0.312000  0.193610  1
  C  C564  1  0.744930  0.188000  0.693610  1
  C  C565  1  0.980300  0.746100  0.671300  1
  C  C566  1  0.519700  0.753900  0.171300  1
  C  C567  1  0.019700  0.253900  0.328700  1
  C  C568  1  0.480300  0.246100  0.828700  1
  C  C569  1  0.208700  0.412800  0.498980  1
  C  C570  1  0.291300  0.087200  0.998980  1
  C  C571  1  0.791300  0.587200  0.501020  1
  C  C572  1  0.708700  0.912800  0.001020  1
  C  C573  1  0.608670  0.957420  0.620870  1
  C  C574  1  0.891330  0.542580  0.120870  1
  C  C575  1  0.391330  0.042580  0.379130  1
  C  C576  1  0.108670  0.457420  0.879130  1
  C  C577  1  0.405200  0.334700  0.623000  1
  C  C578  1  0.094800  0.165300  0.123000  1
  C  C579  1  0.594800  0.665300  0.377000  1
  C  C580  1  0.905200  0.834700  0.877000  1
  C  C581  1  0.893800  0.871800  0.508500  1
  C  C582  1  0.606200  0.628200  0.008500  1
  C  C583  1  0.106200  0.128200  0.491500  1
  C  C584  1  0.393800  0.371800  0.991500  1
  C  C585  1  0.397900  0.329200  0.617400  1
  C  C586  1  0.102100  0.170800  0.117400  1
  C  C587  1  0.602100  0.670800  0.382600  1
  C  C588  1  0.897900  0.829200  0.882600  1
  C  C589  1  0.935000  0.950000  0.493200  1
  C  C590  1  0.565000  0.550000  0.993200  1
  C  C591  1  0.065000  0.050000  0.506800  1
  C  C592  1  0.435000  0.450000  0.006800  1
  S  S593  1  0.428290  0.531290  0.546890  1
  S  S594  1  0.071710  0.968710  0.046890  1
  S  S595  1  0.571710  0.468710  0.453110  1
  S  S596  1  0.928290  0.031290  0.953110  1
  S  S597  1  0.410630  0.964020  0.548250  1
  S  S598  1  0.089370  0.535980  0.048250  1
  S  S599  1  0.589370  0.035980  0.451750  1
  S  S600  1  0.910630  0.464020  0.951750  1
  S  S601  1  0.154910  0.675680  0.766430  1
  S  S602  1  0.345090  0.824320  0.266430  1
  S  S603  1  0.845090  0.324320  0.233570  1
  S  S604  1  0.654910  0.175680  0.733570  1
  N  N605  1  0.299090  0.447970  0.703110  1
  N  N606  1  0.200910  0.052030  0.203110  1
  N  N607  1  0.700910  0.552030  0.296890  1
  N  N608  1  0.799090  0.947970  0.796890  1
  N  N609  1  0.183290  0.421140  0.631520  1
  N  N610  1  0.316710  0.078860  0.131520  1
  N  N611  1  0.816710  0.578860  0.368480  1
  N  N612  1  0.683290  0.921140  0.868480  1
  N  N613  1  0.590590  0.832510  0.497560  1
  N  N614  1  0.909410  0.667490  0.997560  1
  N  N615  1  0.409410  0.167490  0.502440  1
  N  N616  1  0.090590  0.332510  0.002440  1
  N  N617  1  0.469590  0.804190  0.429510  1
  N  N618  1  0.030410  0.695810  0.929510  1
  N  N619  1  0.530410  0.195810  0.570490  1
  N  N620  1  0.969590  0.304190  0.070490  1
  N  N621  1  0.271490  0.922250  0.747090  1
  N  N622  1  0.228510  0.577750  0.247090  1
  N  N623  1  0.728510  0.077750  0.252910  1
  N  N624  1  0.771490  0.422250  0.752910  1
  N  N625  1  0.153240  0.898740  0.677340  1
  N  N626  1  0.346760  0.601260  0.177340  1
  N  N627  1  0.846760  0.101260  0.322660  1
  N  N628  1  0.653240  0.398740  0.822660  1
  Cl  Cl629  1  0.922360  0.663990  0.698690  1
  Cl  Cl630  1  0.577640  0.836010  0.198690  1
  Cl  Cl631  1  0.077640  0.336010  0.301310  1
  Cl  Cl632  1  0.422360  0.163990  0.801310  1
  Cl  Cl633  1  0.923620  0.807080  0.652000  1
  Cl  Cl634  1  0.576380  0.692920  0.152000  1
  Cl  Cl635  1  0.076380  0.192920  0.348000  1
  Cl  Cl636  1  0.423620  0.307080  0.848000  1
  Cl  Cl637  1  0.133480  0.326460  0.492010  1
  Cl  Cl638  1  0.366520  0.173540  0.992010  1
  Cl  Cl639  1  0.866520  0.673540  0.507990  1
  Cl  Cl640  1  0.633480  0.826460  0.007990  1
  Cl  Cl641  1  0.268410  0.438900  0.441920  1
  Cl  Cl642  1  0.231590  0.061100  0.941920  1
  Cl  Cl643  1  0.731590  0.561100  0.558080  1
  Cl  Cl644  1  0.768410  0.938900  0.058080  1
  Cl  Cl645  1  0.574910  0.037780  0.629760  1
  Cl  Cl646  1  0.925090  0.462220  0.129760  1
  Cl  Cl647  1  0.425090  0.962220  0.370240  1
  Cl  Cl648  1  0.074910  0.537780  0.870240  1
  Cl  Cl649  1  0.712290  0.976350  0.638060  1
  Cl  Cl650  1  0.787710  0.523650  0.138060  1
  Cl  Cl651  1  0.287710  0.023650  0.361940  1
  Cl  Cl652  1  0.212290  0.476350  0.861940  1
  Cl  Cl653  1  0.478100  0.365600  0.673900  1
  Cl  Cl654  1  0.021900  0.134400  0.173900  1
  Cl  Cl655  1  0.521900  0.634400  0.326100  1
  Cl  Cl656  1  0.978100  0.865600  0.826100  1
  Cl  Cl657  1  0.451200  0.348300  0.559500  1
  Cl  Cl658  1  0.048800  0.151700  0.059500  1
  Cl  Cl659  1  0.548800  0.651700  0.440500  1
  Cl  Cl660  1  0.951200  0.848300  0.940500  1
  Cl  Cl661  1  0.854760  0.928430  0.548790  1
  Cl  Cl662  1  0.645240  0.571570  0.048790  1
  Cl  Cl663  1  0.145240  0.071570  0.451210  1
  Cl  Cl664  1  0.354760  0.428430  0.951210  1
  Cl  Cl665  1  0.929280  0.913060  0.446600  1
  Cl  Cl666  1  0.570720  0.586940  0.946600  1
  Cl  Cl667  1  0.070720  0.086940  0.553400  1
  Cl  Cl668  1  0.429280  0.413060  0.053400  1
  Cl  Cl669  1  0.477800  0.367100  0.663800  1
  Cl  Cl670  1  0.022200  0.132900  0.163800  1
  Cl  Cl671  1  0.522200  0.632900  0.336200  1
  Cl  Cl672  1  0.977800  0.867100  0.836200  1
  Cl  Cl673  1  0.431800  0.342100  0.550700  1
  Cl  Cl674  1  0.068200  0.157900  0.050700  1
  Cl  Cl675  1  0.568200  0.657900  0.449300  1
  Cl  Cl676  1  0.931800  0.842100  0.949300  1
  Cl  Cl677  1  0.925400  0.963600  0.561200  1
  Cl  Cl678  1  0.574600  0.536400  0.061200  1
  Cl  Cl679  1  0.074600  0.036400  0.438800  1
  Cl  Cl680  1  0.425400  0.463600  0.938800  1
  Cl  Cl681  1  0.893200  0.866100  0.458400  1
  Cl  Cl682  1  0.606800  0.633900  0.958400  1
  Cl  Cl683  1  0.106800  0.133900  0.541600  1
  Cl  Cl684  1  0.393200  0.366100  0.041600  1
  O  O685  1  0.369180  0.598330  0.670260  1
  O  O686  1  0.130820  0.901670  0.170260  1
  O  O687  1  0.630820  0.401670  0.329740  1
  O  O688  1  0.869180  0.098330  0.829740  1
  O  O689  1  0.231900  0.567260  0.589860  1
  O  O690  1  0.268100  0.932740  0.089860  1
  O  O691  1  0.768100  0.432740  0.410140  1
  O  O692  1  0.731900  0.067260  0.910140  1
  O  O693  1  0.485070  0.791520  0.587560  1
  O  O694  1  0.014930  0.708480  0.087560  1
  O  O695  1  0.514930  0.208480  0.412440  1
  O  O696  1  0.985070  0.291520  0.912440  1
  O  O697  1  0.347160  0.768280  0.509390  1
  O  O698  1  0.152840  0.731720  0.009390  1
  O  O699  1  0.652840  0.231720  0.490610  1
  O  O700  1  0.847160  0.268280  0.990610  1
  O  O701  1  0.330560  0.803440  0.709480  1
  O  O702  1  0.169440  0.696560  0.209480  1
  O  O703  1  0.669440  0.196560  0.290520  1
  O  O704  1  0.830560  0.303440  0.790520  1
  O  O705  1  0.187580  0.773860  0.631550  1
  O  O706  1  0.312420  0.726140  0.131550  1
  O  O707  1  0.812420  0.226140  0.368450  1
  O  O708  1  0.687580  0.273860  0.868450  1
  O  O709  1  0.359190  0.480600  0.580270  1
  O  O710  1  0.140810  0.019400  0.080270  1
  O  O711  1  0.640810  0.519400  0.419730  1
  O  O712  1  0.859190  0.980600  0.919730  1
  O  O713  1  0.472290  0.927230  0.526220  1
  O  O714  1  0.027710  0.572770  0.026220  1
  O  O715  1  0.527710  0.072770  0.473780  1
  O  O716  1  0.972290  0.427230  0.973780  1
  O  O717  1  0.150340  0.753750  0.751520  1
  O  O718  1  0.349660  0.746250  0.251520  1
  O  O719  1  0.849660  0.246250  0.248480  1
  O  O720  1  0.650340  0.253750  0.748480  1
