# generated using pymatgen
data_FeCuP3H24C37N10(ClF6)3
_symmetry_space_group_name_H-M   'P 1'
_cell_length_a   12.52300000
_cell_length_b   14.47200000
_cell_length_c   15.31000000
_cell_angle_alpha   75.08000000
_cell_angle_beta   77.42000000
_cell_angle_gamma   72.81000000
_symmetry_Int_Tables_number   1
_chemical_formula_structural   FeCuP3H24C37N10(ClF6)3
_chemical_formula_sum   'Fe2 Cu2 P6 H48 C74 N20 Cl6 F36'
_cell_volume   2531.00411068
_cell_formula_units_Z   2
loop_
 _symmetry_equiv_pos_site_id
 _symmetry_equiv_pos_as_xyz
  1  'x, y, z'
loop_
 _atom_site_type_symbol
 _atom_site_label
 _atom_site_symmetry_multiplicity
 _atom_site_fract_x
 _atom_site_fract_y
 _atom_site_fract_z
 _atom_site_occupancy
  Fe  Fe1  1  0.261970  0.668570  0.575720  1.0
  Fe  Fe2  1  0.738030  0.331430  0.424280  1.0
  Cu  Cu3  1  0.600290  0.702430  0.333670  1.0
  Cu  Cu4  1  0.399710  0.297570  0.666330  1.0
  P  P5  1  0.768540  0.726680  0.519230  1
  P  P6  1  0.231460  0.273320  0.480770  1
  P  P7  1  0.037200  0.927080  0.810950  1
  P  P8  1  0.962800  0.072920  0.189050  1
  P  P9  1  0.756320  0.464890  0.890650  1
  P  P10  1  0.243680  0.535110  0.109350  1
  H  H11  1  0.251600  0.864200  0.625400  1.0
  H  H12  1  0.748400  0.135800  0.374600  1.0
  H  H13  1  0.203400  0.028900  0.557200  1.0
  H  H14  1  0.796600  0.971100  0.442800  1.0
  H  H15  1  0.130100  0.076700  0.421500  1.0
  H  H16  1  0.869900  0.923300  0.578500  1.0
  H  H17  1  0.096600  0.958000  0.360600  1.0
  H  H18  1  0.903400  0.042000  0.639400  1.0
  H  H19  1  0.067900  0.830800  0.315100  1.0
  H  H20  1  0.932100  0.169200  0.684900  1.0
  H  H21  1  0.056500  0.692200  0.274300  1.0
  H  H22  1  0.943500  0.307800  0.725700  1.0
  H  H23  1  0.124400  0.537300  0.362600  1.0
  H  H24  1  0.875600  0.462700  0.637400  1.0
  H  H25  1  0.203900  0.525100  0.487700  1.0
  H  H26  1  0.796100  0.474900  0.512300  1.0
  H  H27  1  0.488900  0.682500  0.609100  1.0
  H  H28  1  0.511100  0.317500  0.390900  1.0
  H  H29  1  0.570500  0.668200  0.733100  1.0
  H  H30  1  0.429500  0.331800  0.266900  1.0
  H  H31  1  0.464800  0.645500  0.878900  1.0
  H  H32  1  0.535200  0.354500  0.121100  1.0
  H  H33  1  0.277400  0.641400  0.894400  1.0
  H  H34  1  0.722600  0.358600  0.105600  1.0
  H  H35  1  0.098600  0.634100  0.895400  1.0
  H  H36  1  0.901400  0.365900  0.104600  1.0
  H  H37  1  0.918900  0.632900  0.880700  1.0
  H  H38  1  0.081100  0.367100  0.119300  1.0
  H  H39  1  0.874000  0.656000  0.735800  1.0
  H  H40  1  0.126000  0.344000  0.264200  1.0
  H  H41  1  0.011300  0.672500  0.609700  1.0
  H  H42  1  0.988700  0.327500  0.390300  1.0
  H  H43  1  0.437500  0.874100  0.418200  1.0
  H  H44  1  0.562500  0.125900  0.581800  1.0
  H  H45  1  0.424200  0.038200  0.405700  1.0
  H  H46  1  0.575800  0.961800  0.594300  1.0
  H  H47  1  0.559000  0.109600  0.305500  1.0
  H  H48  1  0.441000  0.890400  0.694500  1.0
  H  H49  1  0.704900  0.013600  0.220800  1.0
  H  H50  1  0.295100  0.986400  0.779200  1.0
  H  H51  1  0.833500  0.913200  0.136300  1.0
  H  H52  1  0.166500  0.086800  0.863700  1.0
  H  H53  1  0.963300  0.793600  0.063500  1.0
  H  H54  1  0.036700  0.206400  0.936500  1.0
  H  H55  1  0.948200  0.634100  0.103600  1.0
  H  H56  1  0.051800  0.365900  0.896400  1.0
  H  H57  1  0.805800  0.592100  0.217800  1.0
  H  H58  1  0.194200  0.407900  0.782200  1.0
  C  C59  1  0.380100  0.085300  0.121600  1
  C  C60  1  0.619900  0.914700  0.878400  1
  C  C61  1  0.526300  0.677000  0.149300  1
  C  C62  1  0.473700  0.323000  0.850700  1
  C  C63  1  0.543000  0.641300  0.064800  1
  C  C64  1  0.457000  0.358700  0.935200  1
  C  C65  1  0.204000  0.867400  0.055000  1
  C  C66  1  0.796000  0.132600  0.945000  1
  C  C67  1  0.305500  0.856100  0.987400  1
  C  C68  1  0.694500  0.143900  0.012600  1
  C  C69  1  0.392200  0.675000  0.482000  1.0
  C  C70  1  0.607800  0.325000  0.518000  1.0
  C  C71  1  0.685700  0.473300  0.388900  1.0
  C  C72  1  0.314300  0.526700  0.611100  1.0
  C  C73  1  0.221200  0.883200  0.571300  1.0
  C  C74  1  0.778800  0.116800  0.428700  1.0
  C  C75  1  0.192500  0.981900  0.530800  1.0
  C  C76  1  0.807500  0.018100  0.469200  1.0
  C  C77  1  0.147700  0.010500  0.450700  1.0
  C  C78  1  0.852300  0.989500  0.549300  1.0
  C  C79  1  0.128900  0.939500  0.413700  1.0
  C  C80  1  0.871100  0.060500  0.586300  1.0
  C  C81  1  0.158800  0.841000  0.456900  1.0
  C  C82  1  0.841200  0.159000  0.543100  1.0
  C  C83  1  0.144600  0.758500  0.425900  1.0
  C  C84  1  0.855400  0.241500  0.574100  1.0
  C  C85  1  0.095600  0.768400  0.349600  1.0
  C  C86  1  0.904400  0.231600  0.650400  1.0
  C  C87  1  0.088500  0.686200  0.325500  1.0
  C  C88  1  0.911500  0.313800  0.674500  1.0
  C  C89  1  0.129100  0.594000  0.377900  1.0
  C  C90  1  0.870900  0.406000  0.622100  1.0
  C  C91  1  0.176300  0.587300  0.452700  1.0
  C  C92  1  0.823700  0.412700  0.547300  1.0
  C  C93  1  0.446300  0.674000  0.667100  1.0
  C  C94  1  0.553700  0.326000  0.332900  1.0
  C  C95  1  0.495700  0.665400  0.740800  1.0
  C  C96  1  0.504300  0.334600  0.259200  1.0
  C  C97  1  0.432600  0.652200  0.827600  1.0
  C  C98  1  0.567400  0.347800  0.172400  1.0
  C  C99  1  0.321200  0.649300  0.836800  1.0
  C  C100  1  0.678800  0.350700  0.163200  1.0
  C  C101  1  0.275200  0.658300  0.759300  1.0
  C  C102  1  0.724800  0.341700  0.240700  1.0
  C  C103  1  0.159700  0.654000  0.759900  1.0
  C  C104  1  0.840300  0.346000  0.240100  1.0
  C  C105  1  0.079900  0.641900  0.837900  1.0
  C  C106  1  0.920100  0.358100  0.162100  1.0
  C  C107  1  0.973000  0.641600  0.829100  1.0
  C  C108  1  0.027000  0.358400  0.170900  1.0
  C  C109  1  0.946500  0.654500  0.742800  1.0
  C  C110  1  0.053500  0.345500  0.257200  1.0
  C  C111  1  0.028800  0.664800  0.667600  1.0
  C  C112  1  0.971200  0.335200  0.332400  1.0
  C  C113  1  0.491500  0.902700  0.377600  1.0
  C  C114  1  0.508500  0.097300  0.622400  1.0
  C  C115  1  0.483200  0.000800  0.370700  1.0
  C  C116  1  0.516800  0.999200  0.629300  1.0
  C  C117  1  0.563300  0.043100  0.311400  1.0
  C  C118  1  0.436700  0.956900  0.688600  1.0
  C  C119  1  0.649700  0.986100  0.261000  1.0
  C  C120  1  0.350300  0.013900  0.739000  1.0
  C  C121  1  0.654000  0.887000  0.270400  1.0
  C  C122  1  0.346000  0.113000  0.729600  1.0
  C  C123  1  0.742800  0.819400  0.219900  1.0
  C  C124  1  0.257200  0.180600  0.780100  1.0
  C  C125  1  0.828500  0.847900  0.152100  1.0
  C  C126  1  0.171500  0.152100  0.847900  1.0
  C  C127  1  0.905600  0.776500  0.108900  1.0
  C  C128  1  0.094400  0.223500  0.891100  1.0
  C  C129  1  0.896900  0.682100  0.132700  1.0
  C  C130  1  0.103100  0.317900  0.867300  1.0
  C  C131  1  0.811000  0.657300  0.200900  1.0
  C  C132  1  0.189000  0.342700  0.799100  1.0
  N  N133  1  0.516300  0.705600  0.213300  1
  N  N134  1  0.483700  0.294400  0.786700  1
  N  N135  1  0.386700  0.845400  0.934400  1
  N  N136  1  0.613300  0.154600  0.065600  1
  N  N137  1  0.466600  0.688300  0.426500  1.0
  N  N138  1  0.533400  0.311700  0.573500  1.0
  N  N139  1  0.658600  0.556700  0.362200  1.0
  N  N140  1  0.341400  0.443300  0.637800  1.0
  N  N141  1  0.206400  0.813500  0.534800  1.0
  N  N142  1  0.793600  0.186500  0.465200  1.0
  N  N143  1  0.184100  0.668000  0.477300  1.0
  N  N144  1  0.815900  0.332000  0.522700  1.0
  N  N145  1  0.337900  0.670800  0.674800  1.0
  N  N146  1  0.662100  0.329200  0.325200  1.0
  N  N147  1  0.133900  0.664200  0.675800  1.0
  N  N148  1  0.866100  0.335800  0.324200  1.0
  N  N149  1  0.574400  0.846600  0.328100  1.0
  N  N150  1  0.425600  0.153400  0.671900  1.0
  N  N151  1  0.735000  0.725800  0.243000  1.0
  N  N152  1  0.265000  0.274200  0.757000  1.0
  Cl  Cl153  1  0.298200  0.152200  0.204100  1
  Cl  Cl154  1  0.701800  0.847800  0.795900  1
  Cl  Cl155  1  0.391800  0.960160  0.164200  1
  Cl  Cl156  1  0.608200  0.039840  0.835800  1
  Cl  Cl157  1  0.323300  0.124300  0.020400  1
  Cl  Cl158  1  0.676700  0.875700  0.979600  1
  F  F159  1  0.653800  0.805200  0.528500  1
  F  F160  1  0.346200  0.194800  0.471500  1
  F  F161  1  0.880900  0.643200  0.514900  1
  F  F162  1  0.119100  0.356800  0.485100  1
  F  F163  1  0.741500  0.663600  0.617700  1
  F  F164  1  0.258500  0.336400  0.382300  1
  F  F165  1  0.792200  0.786600  0.422800  1
  F  F166  1  0.207800  0.213400  0.577200  1
  F  F167  1  0.833400  0.781800  0.552600  1
  F  F168  1  0.166600  0.218200  0.447400  1
  F  F169  1  0.703700  0.671400  0.484700  1
  F  F170  1  0.296300  0.328600  0.515300  1
  F  F171  1  0.166000  0.865000  0.809600  1
  F  F172  1  0.834000  0.135000  0.190400  1
  F  F173  1  0.910800  0.993800  0.806300  1
  F  F174  1  0.089200  0.006200  0.193700  1
  F  F175  1  0.994800  0.843800  0.887000  1
  F  F176  1  0.005200  0.156200  0.113000  1
  F  F177  1  0.079100  0.012600  0.733500  1
  F  F178  1  0.920900  0.987400  0.266500  1
  F  F179  1  0.048200  0.979100  0.888100  1
  F  F180  1  0.951800  0.020900  0.111900  1
  F  F181  1  0.026400  0.876600  0.733100  1
  F  F182  1  0.973600  0.123400  0.266900  1
  F  F183  1  0.643300  0.467200  0.963000  1
  F  F184  1  0.356700  0.532800  0.037000  1
  F  F185  1  0.870200  0.462000  0.818600  1
  F  F186  1  0.129800  0.538000  0.181400  1
  F  F187  1  0.801600  0.352500  0.934700  1
  F  F188  1  0.198400  0.647500  0.065300  1
  F  F189  1  0.713300  0.579300  0.850800  1
  F  F190  1  0.286700  0.420700  0.149200  1
  F  F191  1  0.812400  0.492400  0.961900  1
  F  F192  1  0.187600  0.507600  0.038100  1
  F  F193  1  0.698900  0.440100  0.820900  1
  F  F194  1  0.301100  0.559900  0.179100  1
