# generated using pymatgen
data_FeCuP2H24C34N8Cl6OF20
_symmetry_space_group_name_H-M   'P 1'
_cell_length_a   12.95900000
_cell_length_b   14.49100000
_cell_length_c   15.31200000
_cell_angle_alpha   114.59000000
_cell_angle_beta   91.38000000
_cell_angle_gamma   70.44000000
_symmetry_Int_Tables_number   1
_chemical_formula_structural   FeCuP2H24C34N8Cl6OF20
_chemical_formula_sum   'Fe2 Cu2 P4 H48 C68 N16 Cl12 O2 F40'
_cell_volume   2441.37789382
_cell_formula_units_Z   2
loop_
 _symmetry_equiv_pos_site_id
 _symmetry_equiv_pos_as_xyz
  1  'x, y, z'
loop_
 _atom_site_type_symbol
 _atom_site_label
 _atom_site_symmetry_multiplicity
 _atom_site_fract_x
 _atom_site_fract_y
 _atom_site_fract_z
 _atom_site_occupancy
  Fe  Fe1  1  0.241180  0.262490  0.907910  1.0
  Fe  Fe2  1  0.758820  0.737510  0.092090  1.0
  Cu  Cu3  1  0.907480  0.404870  0.146550  1.0
  Cu  Cu4  1  0.092520  0.595130  0.853450  1.0
  P  P5  1  0.463100  0.817800  0.643800  1
  P  P6  1  0.536900  0.182200  0.356200  1
  P  P7  1  0.750500  0.250300  0.945500  1
  P  P8  1  0.249500  0.749700  0.054500  1
  H  H9  1  0.033500  0.202500  0.862300  1.0
  H  H10  1  0.966500  0.797500  0.137700  1.0
  H  H11  1  0.962300  0.117400  0.725500  1.0
  H  H12  1  0.037700  0.882600  0.274500  1.0
  H  H13  1  0.061100  0.047800  0.576000  1.0
  H  H14  1  0.938900  0.952200  0.424000  1.0
  H  H15  1  0.234200  0.061600  0.565900  1.0
  H  H16  1  0.765800  0.938400  0.434100  1.0
  H  H17  1  0.391400  0.091700  0.567900  1.0
  H  H18  1  0.608600  0.908300  0.432100  1.0
  H  H19  1  0.558900  0.118300  0.584800  1.0
  H  H20  1  0.441100  0.881700  0.415200  1.0
  H  H21  1  0.607200  0.188300  0.741700  1.0
  H  H22  1  0.392800  0.811700  0.258300  1.0
  H  H23  1  0.484800  0.236600  0.872000  1.0
  H  H24  1  0.515200  0.763400  0.128000  1.0
  H  H25  1  0.311100  0.461200  0.998700  1.0
  H  H26  1  0.688900  0.538800  0.001300  1.0
  H  H27  1  0.409800  0.527400  0.119300  1.0
  H  H28  1  0.590200  0.472600  0.880700  1.0
  H  H29  1  0.491100  0.426000  0.202900  1.0
  H  H30  1  0.508900  0.574000  0.797100  1.0
  H  H31  1  0.457700  0.268500  0.170800  1.0
  H  H32  1  0.542300  0.731500  0.829200  1.0
  H  H33  1  0.409800  0.122400  0.135600  1.0
  H  H34  1  0.590200  0.877600  0.864400  1.0
  H  H35  1  0.374600  0.961600  0.072800  1.0
  H  H36  1  0.625400  0.038400  0.927200  1.0
  H  H37  1  0.302500  0.911200  0.928000  1.0
  H  H38  1  0.697500  0.088800  0.072000  1.0
  H  H39  1  0.258700  0.025700  0.852100  1.0
  H  H40  1  0.741300  0.974300  0.147900  1.0
  H  H41  1  0.076400  0.173500  0.066200  1.0
  H  H42  1  0.923600  0.826500  0.933800  1.0
  H  H43  1  0.100600  0.016000  0.079600  1.0
  H  H44  1  0.899400  0.984000  0.920400  1.0
  H  H45  1  0.967700  0.015700  0.180000  1.0
  H  H46  1  0.032300  0.984300  0.820000  1.0
  H  H47  1  0.819000  0.171000  0.261400  1.0
  H  H48  1  0.181000  0.829000  0.738600  1.0
  H  H49  1  0.688200  0.335800  0.350200  1.0
  H  H50  1  0.311800  0.664200  0.649800  1.0
  H  H51  1  0.559800  0.508800  0.427900  1.0
  H  H52  1  0.440200  0.491200  0.572100  1.0
  H  H53  1  0.569800  0.645200  0.391500  1.0
  H  H54  1  0.430200  0.354800  0.608500  1.0
  H  H55  1  0.709900  0.604100  0.276300  1.0
  H  H56  1  0.290100  0.395900  0.723700  1.0
  C  C57  1  0.243200  0.725500  0.457900  1
  C  C58  1  0.756800  0.274500  0.542100  1
  C  C59  1  0.216100  0.185600  0.381600  1
  C  C60  1  0.783900  0.814400  0.618400  1
  C  C61  1  0.116300  0.318400  0.999900  1.0
  C  C62  1  0.883700  0.681600  0.000100  1.0
  C  C63  1  0.816500  0.614000  0.116700  1.0
  C  C64  1  0.183500  0.386000  0.883300  1.0
  C  C65  1  0.074400  0.174000  0.801900  1.0
  C  C66  1  0.925600  0.826000  0.198100  1.0
  C  C67  1  0.031000  0.123100  0.720000  1.0
  C  C68  1  0.969000  0.876900  0.280000  1.0
  C  C69  1  0.089400  0.081700  0.631900  1.0
  C  C70  1  0.910600  0.918300  0.368100  1.0
  C  C71  1  0.192500  0.090500  0.625900  1.0
  C  C72  1  0.807500  0.909500  0.374100  1.0
  C  C73  1  0.232100  0.142000  0.709100  1.0
  C  C74  1  0.767900  0.858000  0.290900  1.0
  C  C75  1  0.340200  0.154100  0.710500  1.0
  C  C76  1  0.659800  0.845900  0.289500  1.0
  C  C77  1  0.411300  0.122600  0.629300  1.0
  C  C78  1  0.588700  0.877400  0.370700  1.0
  C  C79  1  0.511400  0.136700  0.638800  1.0
  C  C80  1  0.488600  0.863300  0.361200  1.0
  C  C81  1  0.539100  0.179800  0.732300  1.0
  C  C82  1  0.460900  0.820200  0.267700  1.0
  C  C83  1  0.464700  0.209500  0.810200  1.0
  C  C84  1  0.535300  0.790500  0.189800  1.0
  C  C85  1  0.341300  0.421700  0.033800  1.0
  C  C86  1  0.658700  0.578300  0.966200  1.0
  C  C87  1  0.400900  0.461800  0.105200  1.0
  C  C88  1  0.599100  0.538200  0.894800  1.0
  C  C89  1  0.447500  0.402500  0.155600  1.0
  C  C90  1  0.552500  0.597500  0.844400  1.0
  C  C91  1  0.429000  0.307900  0.135300  1.0
  C  C92  1  0.571000  0.692100  0.864700  1.0
  C  C93  1  0.368200  0.272000  0.062800  1.0
  C  C94  1  0.631800  0.728000  0.937200  1.0
  C  C95  1  0.349300  0.169800  0.031400  1.0
  C  C96  1  0.650700  0.830200  0.968600  1.0
  C  C97  1  0.377800  0.102400  0.078800  1.0
  C  C98  1  0.622200  0.897600  0.921200  1.0
  C  C99  1  0.358200  0.006000  0.040800  1.0
  C  C100  1  0.641800  0.994000  0.959200  1.0
  C  C101  1  0.314300  0.976800  0.955600  1.0
  C  C102  1  0.685700  0.023200  0.044400  1.0
  C  C103  1  0.287300  0.046700  0.910600  1.0
  C  C104  1  0.712700  0.953300  0.089400  1.0
  C  C105  1  0.025100  0.173200  0.107400  1.0
  C  C106  1  0.974900  0.826800  0.892600  1.0
  C  C107  1  0.039700  0.078500  0.114000  1.0
  C  C108  1  0.960300  0.921500  0.886000  1.0
  C  C109  1  0.960600  0.078700  0.173800  1.0
  C  C110  1  0.039400  0.921300  0.826200  1.0
  C  C111  1  0.873500  0.170700  0.222800  1.0
  C  C112  1  0.126500  0.829300  0.777200  1.0
  C  C113  1  0.865400  0.264900  0.215500  1.0
  C  C114  1  0.134600  0.735100  0.784500  1.0
  C  C115  1  0.775100  0.370700  0.266800  1.0
  C  C116  1  0.224900  0.629300  0.733200  1.0
  C  C117  1  0.691800  0.391000  0.335800  1.0
  C  C118  1  0.308200  0.609000  0.664200  1.0
  C  C119  1  0.615800  0.493800  0.381700  1.0
  C  C120  1  0.384200  0.506200  0.618300  1.0
  C  C121  1  0.621300  0.575000  0.360400  1.0
  C  C122  1  0.378700  0.425000  0.639600  1.0
  C  C123  1  0.705400  0.549600  0.291400  1.0
  C  C124  1  0.294600  0.450400  0.708600  1.0
  N  N125  1  0.039900  0.349800  0.055900  1.0
  N  N126  1  0.960100  0.650200  0.944100  1.0
  N  N127  1  0.850900  0.539500  0.133400  1.0
  N  N128  1  0.149100  0.460500  0.866600  1.0
  N  N129  1  0.173500  0.183800  0.797800  1.0
  N  N130  1  0.826500  0.816200  0.202200  1.0
  N  N131  1  0.364600  0.201400  0.801700  1.0
  N  N132  1  0.635400  0.798600  0.198300  1.0
  N  N133  1  0.323600  0.328800  0.011200  1.0
  N  N134  1  0.676400  0.671200  0.988800  1.0
  N  N135  1  0.301000  0.142200  0.948100  1.0
  N  N136  1  0.699000  0.857800  0.051900  1.0
  N  N137  1  0.941100  0.264300  0.157100  1.0
  N  N138  1  0.058900  0.735700  0.842900  1.0
  N  N139  1  0.780500  0.449800  0.245500  1.0
  N  N140  1  0.219500  0.550200  0.754500  1.0
  Cl  Cl141  1  0.109000  0.774900  0.512900  1
  Cl  Cl142  1  0.891000  0.225100  0.487100  1
  Cl  Cl143  1  0.291500  0.577400  0.408100  1
  Cl  Cl144  1  0.708500  0.422600  0.591900  1
  Cl  Cl145  1  0.247800  0.764700  0.367900  1
  Cl  Cl146  1  0.752200  0.235300  0.632100  1
  Cl  Cl147  1  0.173600  0.260400  0.507900  1
  Cl  Cl148  1  0.826400  0.739600  0.492100  1
  Cl  Cl149  1  0.192200  0.062700  0.347400  1
  Cl  Cl150  1  0.807800  0.937300  0.652600  1
  Cl  Cl151  1  0.144700  0.272200  0.328600  1
  Cl  Cl152  1  0.855300  0.727800  0.671400  1
  O  O153  1  0.019900  0.492000  0.283200  1
  O  O154  1  0.980100  0.508000  0.716800  1
  F  F155  1  0.472800  0.927400  0.721800  1
  F  F156  1  0.527200  0.072600  0.278200  1
  F  F157  1  0.451600  0.707100  0.567300  1
  F  F158  1  0.548400  0.292900  0.432700  1
  F  F159  1  0.347300  0.883300  0.633600  1
  F  F160  1  0.652700  0.116700  0.366400  1
  F  F161  1  0.580300  0.752000  0.657700  1
  F  F162  1  0.419700  0.248000  0.342300  1
  F  F163  1  0.412100  0.801700  0.729600  1
  F  F164  1  0.587900  0.198300  0.270400  1
  F  F165  1  0.514700  0.831400  0.563200  1
  F  F166  1  0.485300  0.168600  0.436800  1
  F  F167  1  0.629800  0.323000  0.949100  1
  F  F168  1  0.370200  0.677000  0.050900  1
  F  F169  1  0.875200  0.175400  0.935300  1
  F  F170  1  0.124800  0.824600  0.064700  1
  F  F171  1  0.787400  0.348600  0.004000  1
  F  F172  1  0.212600  0.651400  0.996000  1
  F  F173  1  0.706600  0.155000  0.896200  1
  F  F174  1  0.293400  0.845000  0.103800  1
  F  F175  1  0.729100  0.245500  0.046800  1
  F  F176  1  0.270900  0.754500  0.953200  1
  F  F177  1  0.754800  0.265400  0.855500  1
  F  F178  1  0.245200  0.734600  0.144500  1
  F  F179  1  0.335800  0.866900  0.668700  1
  F  F180  1  0.664200  0.133100  0.331300  1
  F  F181  1  0.572300  0.778500  0.574700  1
  F  F182  1  0.427700  0.221500  0.425300  1
  F  F183  1  0.403200  0.868200  0.568100  1
  F  F184  1  0.596800  0.131800  0.431900  1
  F  F185  1  0.545700  0.762500  0.690900  1
  F  F186  1  0.454300  0.237500  0.309100  1
  F  F187  1  0.759600  0.144100  0.858000  1
  F  F188  1  0.240400  0.855900  0.142000  1
  F  F189  1  0.746800  0.200200  0.011900  1
  F  F190  1  0.253200  0.799800  0.988100  1
  F  F191  1  0.792900  0.276300  0.865500  1
  F  F192  1  0.207100  0.723700  0.134500  1
  F  F193  1  0.744600  0.349000  0.031700  1
  F  F194  1  0.255400  0.651000  0.968300  1
