# generated using pymatgen
data_AgH14C22N2ClO8
_symmetry_space_group_name_H-M   'P 1'
_cell_length_a   8.00550000
_cell_length_b   8.21820000
_cell_length_c   16.59900000
_cell_angle_alpha   83.32000000
_cell_angle_beta   86.39600000
_cell_angle_gamma   71.94900000
_symmetry_Int_Tables_number   1
_chemical_formula_structural   AgH14C22N2ClO8
_chemical_formula_sum   'Ag2 H28 C44 N4 Cl2 O16'
_cell_volume   1030.84676151
_cell_formula_units_Z   2
loop_
 _symmetry_equiv_pos_site_id
 _symmetry_equiv_pos_as_xyz
  1  'x, y, z'
loop_
 _atom_site_type_symbol
 _atom_site_label
 _atom_site_symmetry_multiplicity
 _atom_site_fract_x
 _atom_site_fract_y
 _atom_site_fract_z
 _atom_site_occupancy
  Ag  Ag1  1  0.173140  0.064650  0.542800  1.0
  Ag  Ag2  1  0.826860  0.935350  0.457200  1.0
  H  H3  1  0.410100  0.784100  0.441800  1.0
  H  H4  1  0.589900  0.215900  0.558200  1.0
  H  H5  1  0.576700  0.749400  0.324100  1.0
  H  H6  1  0.423300  0.250600  0.675900  1.0
  H  H7  1  0.497000  0.259300  0.296500  1.0
  H  H8  1  0.503000  0.740700  0.703500  1.0
  H  H9  1  0.329300  0.280200  0.413600  1.0
  H  H10  1  0.670700  0.719800  0.586400  1.0
  H  H11  1  0.970700  0.802500  0.096900  1.0
  H  H12  1  0.029300  0.197500  0.903100  1.0
  H  H13  1  0.157900  0.730400  0.970800  1.0
  H  H14  1  0.842100  0.269600  0.029200  1.0
  H  H15  1  0.192500  0.635600  0.844800  1.0
  H  H16  1  0.807500  0.364400  0.155200  1.0
  H  H17  1  0.961000  0.588200  0.785100  1.0
  H  H18  1  0.039000  0.411800  0.214900  1.0
  H  H19  1  0.691900  0.643700  0.848700  1.0
  H  H20  1  0.308100  0.356300  0.151300  1.0
  H  H21  1  0.497500  0.731600  0.970800  1.0
  H  H22  1  0.502500  0.268400  0.029200  1.0
  H  H23  1  0.271300  0.530300  0.291000  1.0
  H  H24  1  0.728700  0.469700  0.709000  1.0
  H  H25  1  0.064400  0.625400  0.389700  1.0
  H  H26  1  0.935600  0.374600  0.610300  1.0
  H  H27  1  0.961500  0.099300  0.291100  1.0
  H  H28  1  0.038500  0.900700  0.708900  1.0
  H  H29  1  0.166000  0.014500  0.188300  1.0
  H  H30  1  0.834000  0.985500  0.811700  1.0
  C  C31  1  0.425100  0.880900  0.411100  1.0
  C  C32  1  0.574900  0.119100  0.588900  1.0
  C  C33  1  0.525000  0.858600  0.340700  1.0
  C  C34  1  0.475000  0.141400  0.659300  1.0
  C  C35  1  0.546900  0.003800  0.294700  1.0
  C  C36  1  0.453100  0.996200  0.705300  1.0
  C  C37  1  0.477100  0.161700  0.324200  1.0
  C  C38  1  0.522900  0.838300  0.675800  1.0
  C  C39  1  0.378100  0.172800  0.394700  1.0
  C  C40  1  0.621900  0.827200  0.605300  1.0
  C  C41  1  0.633300  0.995700  0.212000  1.0
  C  C42  1  0.366700  0.004300  0.788000  1.0
  C  C43  1  0.720400  0.805400  0.110000  1.0
  C  C44  1  0.279600  0.194600  0.890000  1.0
  C  C45  1  0.878400  0.785700  0.071100  1.0
  C  C46  1  0.121600  0.214300  0.928900  1.0
  C  C47  1  0.900800  0.739100  0.990600  1.0
  C  C48  1  0.099200  0.260900  0.009400  1.0
  C  C49  1  0.064000  0.710900  0.947600  1.0
  C  C50  1  0.936000  0.289100  0.052400  1.0
  C  C51  1  0.084300  0.655400  0.872200  1.0
  C  C52  1  0.915700  0.344600  0.127800  1.0
  C  C53  1  0.944700  0.628100  0.836100  1.0
  C  C54  1  0.055300  0.371900  0.163900  1.0
  C  C55  1  0.785000  0.659100  0.874400  1.0
  C  C56  1  0.215000  0.340900  0.125600  1.0
  C  C57  1  0.758300  0.714500  0.952900  1.0
  C  C58  1  0.241700  0.285500  0.047100  1.0
  C  C59  1  0.593800  0.743100  0.995600  1.0
  C  C60  1  0.406200  0.256900  0.004400  1.0
  C  C61  1  0.578300  0.786800  0.071900  1.0
  C  C62  1  0.421700  0.213200  0.928100  1.0
  C  C63  1  0.394800  0.696800  0.171100  1.0
  C  C64  1  0.605200  0.303200  0.828900  1.0
  C  C65  1  0.244200  0.762900  0.229300  1.0
  C  C66  1  0.755800  0.237100  0.770700  1.0
  C  C67  1  0.210300  0.646900  0.290200  1.0
  C  C68  1  0.789700  0.353100  0.709800  1.0
  C  C69  1  0.086200  0.705000  0.349100  1.0
  C  C70  1  0.913800  0.295000  0.650900  1.0
  C  C71  1  0.025300  0.983500  0.291200  1.0
  C  C72  1  0.974700  0.016500  0.708800  1.0
  C  C73  1  0.148400  0.933700  0.229300  1.0
  C  C74  1  0.851600  0.066300  0.770700  1.0
  N  N75  1  0.348200  0.034800  0.437800  1.0
  N  N76  1  0.651800  0.965200  0.562200  1.0
  N  N77  1  0.994400  0.871400  0.351300  1.0
  N  N78  1  0.005600  0.128600  0.648700  1.0
  Cl  Cl79  1  0.208960  0.588640  0.581910  1.0
  Cl  Cl80  1  0.791040  0.411360  0.418090  1.0
  O  O81  1  0.641400  0.116600  0.167300  1.0
  O  O82  1  0.358600  0.883400  0.832700  1.0
  O  O83  1  0.695800  0.830900  0.193040  1.0
  O  O84  1  0.304200  0.169100  0.806960  1.0
  O  O85  1  0.489300  0.552900  0.175620  1.0
  O  O86  1  0.510700  0.447100  0.824380  1.0
  O  O87  1  0.415400  0.823900  0.115120  1.0
  O  O88  1  0.584600  0.176100  0.884880  1.0
  O  O89  1  0.389800  0.569400  0.593600  1.0
  O  O90  1  0.610200  0.430600  0.406400  1.0
  O  O91  1  0.127200  0.580300  0.654600  1.0
  O  O92  1  0.872800  0.419700  0.345400  1.0
  O  O93  1  0.143900  0.751300  0.535900  1.0
  O  O94  1  0.856100  0.248700  0.464100  1.0
  O  O95  1  0.201300  0.453200  0.537500  1.0
  O  O96  1  0.798700  0.546800  0.462500  1.0
