# generated using pymatgen
data_CuH16C22N2(ClO3)4
_symmetry_space_group_name_H-M   'P 1'
_cell_length_a   8.76400000
_cell_length_b   9.02800000
_cell_length_c   9.79700000
_cell_angle_alpha   108.35000000
_cell_angle_beta   113.17000000
_cell_angle_gamma   62.77000000
_symmetry_Int_Tables_number   1
_chemical_formula_structural   CuH16C22N2(ClO3)4
_chemical_formula_sum   'Cu1 H16 C22 N2 Cl4 O12'
_cell_volume   624.98072441
_cell_formula_units_Z   1
loop_
 _symmetry_equiv_pos_site_id
 _symmetry_equiv_pos_as_xyz
  1  'x, y, z'
loop_
 _atom_site_type_symbol
 _atom_site_label
 _atom_site_symmetry_multiplicity
 _atom_site_fract_x
 _atom_site_fract_y
 _atom_site_fract_z
 _atom_site_occupancy
  Cu  Cu1  1  0.000000  0.000000  0.000000  1
  H  H2  1  0.761700  0.845000  0.702900  1
  H  H3  1  0.238300  0.155000  0.297100  1
  H  H4  1  0.970000  0.678000  0.425800  1
  H  H5  1  0.030000  0.322000  0.574200  1
  H  H6  1  0.905700  0.844500  0.230600  1
  H  H7  1  0.094300  0.155500  0.769400  1
  H  H8  1  0.763700  0.117700  0.268500  1
  H  H9  1  0.236300  0.882300  0.731500  1
  H  H10  1  0.591300  0.252100  0.448000  1
  H  H11  1  0.408700  0.747900  0.552000  1
  H  H12  1  0.602100  0.100500  0.613000  1
  H  H13  1  0.397900  0.899500  0.387000  1
  H  H14  1  0.368500  0.959100  0.143300  1.0
  H  H15  1  0.631500  0.040900  0.856700  1.0
  H  H16  1  0.306100  0.121600  0.095700  1.0
  H  H17  1  0.693900  0.878400  0.904300  1.0
  C  C18  1  0.792400  0.872200  0.528800  1
  C  C19  1  0.207600  0.127800  0.471200  1
  C  C20  1  0.884200  0.796300  0.419800  1
  C  C21  1  0.115800  0.203700  0.580200  1
  C  C22  1  0.865000  0.889600  0.325400  1
  C  C23  1  0.135000  0.110400  0.674600  1
  C  C24  1  0.666400  0.130100  0.436300  1
  C  C25  1  0.333600  0.869900  0.563700  1
  C  C26  1  0.683600  0.044400  0.537200  1
  C  C27  1  0.316400  0.955600  0.462800  1
  C  C28  1  0.202600  0.681900  0.893400  1.0
  C  C29  1  0.797400  0.318100  0.106600  1.0
  C  C30  1  0.296900  0.537600  0.814100  1.0
  C  C31  1  0.703100  0.462400  0.185900  1.0
  C  C32  1  0.380900  0.378700  0.862300  1.0
  C  C33  1  0.619100  0.621300  0.137700  1.0
  C  C34  1  0.345300  0.365600  0.000100  1.0
  C  C35  1  0.654700  0.634400  0.999900  1.0
  C  C36  1  0.241600  0.515900  0.076000  1.0
  C  C37  1  0.758400  0.484100  0.924000  1.0
  C  C38  1  0.173000  0.670500  0.032200  1.0
  C  C39  1  0.827000  0.329500  0.967800  1.0
  N  N40  1  0.755800  0.054000  0.333200  1
  N  N41  1  0.244200  0.946000  0.666800  1
  Cl  Cl42  1  0.326000  0.543800  0.651100  1.0
  Cl  Cl43  1  0.674000  0.456200  0.348900  1.0
  Cl  Cl44  1  0.199900  0.500900  0.229600  1.0
  Cl  Cl45  1  0.800100  0.499100  0.770400  1.0
  O  O46  1  0.811900  0.775900  0.616300  1
  O  O47  1  0.188100  0.224100  0.383700  1
  O  O48  1  0.135500  0.830600  0.863000  1.0
  O  O49  1  0.864500  0.169400  0.137000  1.0
  O  O50  1  0.081500  0.810200  0.098400  1.0
  O  O51  1  0.918500  0.189800  0.901600  1.0
  O  O52  1  0.480100  0.249400  0.801300  1.0
  O  O53  1  0.519900  0.750600  0.198700  1.0
  O  O54  1  0.411100  0.223200  0.032600  1.0
  O  O55  1  0.588900  0.776800  0.967400  1.0
  O  O56  1  0.292200  0.064000  0.145200  1.0
  O  O57  1  0.707800  0.936000  0.854800  1.0
