# generated using pymatgen
data_SiH18PdC22(NCl)2
_symmetry_space_group_name_H-M   'P 1'
_cell_length_a   11.36613560
_cell_length_b   11.36613560
_cell_length_c   18.64238283
_cell_angle_alpha   100.81093748
_cell_angle_beta   105.73446239
_cell_angle_gamma   104.33407932
_symmetry_Int_Tables_number   1
_chemical_formula_structural   SiH18PdC22(NCl)2
_chemical_formula_sum   'Si4 H72 Pd4 C88 N8 Cl8'
_cell_volume   2160.58406104
_cell_formula_units_Z   4
loop_
 _symmetry_equiv_pos_site_id
 _symmetry_equiv_pos_as_xyz
  1  'x, y, z'
loop_
 _atom_site_type_symbol
 _atom_site_label
 _atom_site_symmetry_multiplicity
 _atom_site_fract_x
 _atom_site_fract_y
 _atom_site_fract_z
 _atom_site_occupancy
  C  C1  1  0.842990  0.458340  0.180150  1.0
  C  C2  1  0.778190  0.662840  0.319850  1.0
  C  C3  1  0.157010  0.541660  0.819850  1.0
  C  C4  1  0.221810  0.337160  0.680150  1.0
  C  C5  1  0.968150  0.499240  0.181650  1.0
  C  C6  1  0.817590  0.786500  0.318350  1.0
  C  C7  1  0.031850  0.500760  0.818350  1.0
  C  C8  1  0.182410  0.213500  0.681650  1.0
  C  C9  1  0.002980  0.591070  0.145210  1.0
  C  C10  1  0.945860  0.857770  0.354790  1.0
  C  C11  1  0.997020  0.408930  0.854790  1.0
  C  C12  1  0.054140  0.142230  0.645210  1.0
  C  C13  1  0.912940  0.644580  0.110260  1.0
  C  C14  1  0.034320  0.802680  0.389740  1.0
  C  C15  1  0.087060  0.355420  0.889740  1.0
  C  C16  1  0.965680  0.197320  0.610260  1.0
  C  C17  1  0.790220  0.601130  0.114870  1.0
  C  C18  1  0.986260  0.675350  0.385130  1.0
  C  C19  1  0.209780  0.398870  0.885130  1.0
  C  C20  1  0.013740  0.324650  0.614870  1.0
  C  C21  1  0.120780  0.809730  0.065850  1.0
  C  C22  1  0.243880  0.054930  0.434150  1.0
  C  C23  1  0.879220  0.190270  0.934150  1.0
  C  C24  1  0.756120  0.945070  0.565850  1.0
  C  C25  1  0.163430  0.715660  0.030330  1.0
  C  C26  1  0.185330  0.133100  0.469670  1.0
  C  C27  1  0.836570  0.284340  0.969670  1.0
  C  C28  1  0.814670  0.866900  0.530330  1.0
  C  C29  1  0.290450  0.738720  0.034570  1.0
  C  C30  1  0.204150  0.255880  0.465430  1.0
  C  C31  1  0.709550  0.261280  0.965430  1.0
  C  C32  1  0.795850  0.744120  0.534570  1.0
  C  C33  1  0.378480  0.855900  0.073780  1.0
  C  C34  1  0.282120  0.304700  0.426220  1.0
  C  C35  1  0.621520  0.144100  0.926220  1.0
  C  C36  1  0.717880  0.695300  0.573780  1.0
  C  C37  1  0.339420  0.950130  0.108490  1.0
  C  C38  1  0.341640  0.230930  0.391510  1.0
  C  C39  1  0.660580  0.049870  0.891510  1.0
  C  C40  1  0.658360  0.769070  0.608490  1.0
  C  C41  1  0.212050  0.927950  0.105200  1.0
  C  C42  1  0.322750  0.106850  0.394800  1.0
  C  C43  1  0.787950  0.072050  0.894800  1.0
  C  C44  1  0.677250  0.893150  0.605200  1.0
  C  C45  1  0.915200  0.912660  0.111800  1.0
  C  C46  1  0.300860  0.803400  0.388200  1.0
  C  C47  1  0.084800  0.087340  0.888200  1.0
  C  C48  1  0.699140  0.196600  0.611800  1.0
  C  C49  1  0.983020  0.971810  0.190450  1.0
  C  C50  1  0.281360  0.792570  0.309550  1.0
  C  C51  1  0.016980  0.028190  0.809550  1.0
  C  C52  1  0.718640  0.207430  0.690450  1.0
  C  C53  1  0.958240  0.075140  0.229280  1.0
  C  C54  1  0.345860  0.728960  0.270720  1.0
  C  C55  1  0.041760  0.924860  0.770720  1.0
  C  C56  1  0.654140  0.271040  0.729280  1.0
  C  C57  1  0.864420  0.119000  0.189980  1.0
  C  C58  1  0.429020  0.674440  0.310020  1.0
  C  C59  1  0.135580  0.881000  0.810020  1.0
  C  C60  1  0.570980  0.325560  0.689980  1.0
  C  C61  1  0.795210  0.061480  0.112490  1.0
  C  C62  1  0.448990  0.682720  0.387510  1.0
  C  C63  1  0.204790  0.938520  0.887510  1.0
  C  C64  1  0.551010  0.317280  0.612490  1.0
  C  C65  1  0.821030  0.959470  0.073760  1.0
  C  C66  1  0.385710  0.747270  0.426240  1.0
  C  C67  1  0.178970  0.040530  0.926240  1.0
  C  C68  1  0.614290  0.252730  0.573760  1.0
  C  C69  1  0.839320  0.718040  0.957600  1.0
  C  C70  1  0.260440  0.881720  0.542400  1.0
  C  C71  1  0.160680  0.281960  0.042400  1.0
  C  C72  1  0.739560  0.118280  0.457600  1.0
  C  C73  1  0.878870  0.741180  0.895890  1.0
  C  C74  1  0.345290  0.982980  0.604110  1.0
  C  C75  1  0.121130  0.258820  0.104110  1.0
  C  C76  1  0.654710  0.017020  0.395890  1.0
  C  C77  1  0.789010  0.707040  0.822290  1.0
  C  C78  1  0.384750  0.966720  0.677710  1.0
  C  C79  1  0.210990  0.292960  0.177710  1.0
  C  C80  1  0.615250  0.033280  0.322290  1.0
  C  C81  1  0.660810  0.653210  0.810860  1.0
  C  C82  1  0.342350  0.849950  0.689140  1.0
  C  C83  1  0.339190  0.346790  0.189140  1.0
  C  C84  1  0.657650  0.150050  0.310860  1.0
  C  C85  1  0.708100  0.660820  0.940060  1.0
  C  C86  1  0.220760  0.768040  0.559940  1.0
  C  C87  1  0.291900  0.339180  0.059940  1.0
  C  C88  1  0.779240  0.231960  0.440060  1.0
  Cl  Cl89  1  0.534600  0.633160  0.142380  1.0
  Cl  Cl90  1  0.990780  0.392220  0.357620  1.0
  Cl  Cl91  1  0.465400  0.366840  0.857620  1.0
  Cl  Cl92  1  0.009220  0.607780  0.642380  1.0
  Cl  Cl93  1  0.578160  0.240700  0.131000  1.0
  Cl  Cl94  1  0.609700  0.447160  0.369000  1.0
  Cl  Cl95  1  0.421840  0.759300  0.869000  1.0
  Cl  Cl96  1  0.390300  0.552840  0.631000  1.0
  H  H97  1  0.818900  0.392700  0.203400  1.0
  H  H98  1  0.689300  0.615500  0.296600  1.0
  H  H99  1  0.181100  0.607300  0.796600  1.0
  H  H100  1  0.310700  0.384500  0.703400  1.0
  H  H101  1  0.030100  0.464900  0.207400  1.0
  H  H102  1  0.757500  0.822700  0.292600  1.0
  H  H103  1  0.969900  0.535100  0.792600  1.0
  H  H104  1  0.242500  0.177300  0.707400  1.0
  H  H105  1  0.088500  0.617600  0.144100  1.0
  H  H106  1  0.973500  0.944400  0.355900  1.0
  H  H107  1  0.911500  0.382400  0.855900  1.0
  H  H108  1  0.026500  0.055600  0.644100  1.0
  H  H109  1  0.728500  0.639700  0.094000  1.0
  H  H110  1  0.045700  0.634500  0.406000  1.0
  H  H111  1  0.271500  0.360300  0.906000  1.0
  H  H112  1  0.954300  0.365500  0.594000  1.0
  H  H113  1  0.103400  0.634400  0.002800  1.0
  H  H114  1  0.131600  0.100600  0.497200  1.0
  H  H115  1  0.896600  0.365600  0.997200  1.0
  H  H116  1  0.868400  0.899400  0.502800  1.0
  H  H117  1  0.317000  0.673600  0.010400  1.0
  H  H118  1  0.163200  0.306600  0.489600  1.0
  H  H119  1  0.683000  0.326400  0.989600  1.0
  H  H120  1  0.836800  0.693400  0.510400  1.0
  H  H121  1  0.466000  0.871900  0.076900  1.0
  H  H122  1  0.295000  0.389100  0.423100  1.0
  H  H123  1  0.534000  0.128100  0.923100  1.0
  H  H124  1  0.705000  0.610900  0.576900  1.0
  H  H125  1  0.400300  0.031300  0.135000  1.0
  H  H126  1  0.396300  0.265300  0.365000  1.0
  H  H127  1  0.599700  0.968700  0.865000  1.0
  H  H128  1  0.603700  0.734700  0.635000  1.0
  H  H129  1  0.186900  0.993800  0.129900  1.0
  H  H130  1  0.363900  0.057000  0.370100  1.0
  H  H131  1  0.813100  0.006200  0.870100  1.0
  H  H132  1  0.636100  0.943000  0.629900  1.0
  H  H133  1  0.047000  0.941000  0.217800  1.0
  H  H134  1  0.223200  0.829200  0.282200  1.0
  H  H135  1  0.953000  0.059000  0.782200  1.0
  H  H136  1  0.776800  0.170800  0.717800  1.0
  H  H137  1  0.005700  0.115200  0.282500  1.0
  H  H138  1  0.332700  0.723200  0.217500  1.0
  H  H139  1  0.994300  0.884800  0.717500  1.0
  H  H140  1  0.667300  0.276800  0.782500  1.0
  H  H141  1  0.847200  0.189400  0.216400  1.0
  H  H142  1  0.473000  0.630800  0.283600  1.0
  H  H143  1  0.152800  0.810600  0.783600  1.0
  H  H144  1  0.527000  0.369200  0.716400  1.0
  H  H145  1  0.730200  0.091800  0.085800  1.0
  H  H146  1  0.506000  0.644400  0.414200  1.0
  H  H147  1  0.269800  0.908200  0.914200  1.0
  H  H148  1  0.494000  0.355600  0.585800  1.0
  H  H149  1  0.773600  0.920700  0.020300  1.0
  H  H150  1  0.400400  0.753300  0.479700  1.0
  H  H151  1  0.226400  0.079300  0.979700  1.0
  H  H152  1  0.599600  0.246700  0.520300  1.0
  H  H153  1  0.967400  0.780300  0.904100  1.0
  H  H154  1  0.376200  0.063300  0.595900  1.0
  H  H155  1  0.032600  0.219700  0.095900  1.0
  H  H156  1  0.623800  0.936700  0.404100  1.0
  H  H157  1  0.816100  0.720900  0.779800  1.0
  H  H158  1  0.441100  0.036300  0.720200  1.0
  H  H159  1  0.183900  0.279100  0.220200  1.0
  H  H160  1  0.558900  0.963700  0.279800  1.0
  H  H161  1  0.599700  0.632400  0.760500  1.0
  H  H162  1  0.371900  0.839200  0.739500  1.0
  H  H163  1  0.400300  0.367600  0.239500  1.0
  H  H164  1  0.628100  0.160800  0.260500  1.0
  H  H165  1  0.678600  0.642600  0.981000  1.0
  H  H166  1  0.161600  0.697600  0.519000  1.0
  H  H167  1  0.321400  0.357400  0.019000  1.0
  H  H168  1  0.838400  0.302400  0.481000  1.0
  N  N169  1  0.753500  0.507850  0.147010  1.0
  N  N170  1  0.860840  0.606490  0.352990  1.0
  N  N171  1  0.246500  0.492150  0.852990  1.0
  N  N172  1  0.139160  0.393510  0.647010  1.0
  N  N173  1  0.620210  0.629550  0.869160  1.0
  N  N174  1  0.260390  0.751050  0.630840  1.0
  N  N175  1  0.379790  0.370450  0.130840  1.0
  N  N176  1  0.739610  0.248950  0.369160  1.0
  Pd  Pd177  1  0.565719  0.440610  0.141017  1.0
  Pd  Pd178  1  0.799593  0.424702  0.358983  1.0
  Pd  Pd179  1  0.434281  0.559390  0.858983  1.0
  Pd  Pd180  1  0.200407  0.575298  0.641017  1.0
  Si  Si181  1  0.949980  0.773570  0.061510  1.0
  Si  Si182  1  0.212060  0.888470  0.438490  1.0
  Si  Si183  1  0.050020  0.226430  0.938490  1.0
  Si  Si184  1  0.787940  0.111530  0.561510  1.0
