# generated using pymatgen
data_H120Pd8C97Br4(N25O37)2
_symmetry_space_group_name_H-M   'P 1'
_cell_length_a   15.76700000
_cell_length_b   21.64659724
_cell_length_c   25.78266191
_cell_angle_alpha   80.57267141
_cell_angle_beta   72.19565568
_cell_angle_gamma   68.64218439
_symmetry_Int_Tables_number   1
_chemical_formula_structural   H120Pd8C97Br4(N25O37)2
_chemical_formula_sum   'H240 Pd16 C194 Br8 N100 O148'
_cell_volume   7789.18449632
_cell_formula_units_Z   2
loop_
 _symmetry_equiv_pos_site_id
 _symmetry_equiv_pos_as_xyz
  1  'x, y, z'
loop_
 _atom_site_type_symbol
 _atom_site_label
 _atom_site_symmetry_multiplicity
 _atom_site_fract_x
 _atom_site_fract_y
 _atom_site_fract_z
 _atom_site_occupancy
  Br  Br1  1  0.707700  0.689600  0.292600  1.0
  Br  Br2  1  0.689900  0.810400  0.207400  1.0
  Br  Br3  1  0.292300  0.310400  0.707400  1.0
  Br  Br4  1  0.310100  0.189600  0.792600  1.0
  Br  Br5  1  0.509000  0.799100  0.296500  1.0
  Br  Br6  1  0.604600  0.700900  0.203500  1.0
  Br  Br7  1  0.491000  0.200900  0.703500  1.0
  Br  Br8  1  0.395400  0.299100  0.796500  1.0
  C  C9  1  0.626900  0.750000  0.250000  1
  C  C10  1  0.373100  0.250000  0.750000  1
  C  C11  1  0.065600  0.436500  0.770900  1.0
  C  C12  1  0.273000  0.063500  0.729100  1.0
  C  C13  1  0.934400  0.563500  0.229100  1.0
  C  C14  1  0.727000  0.936500  0.270900  1.0
  C  C15  1  0.044800  0.379500  0.795700  1.0
  C  C16  1  0.220000  0.120500  0.704300  1.0
  C  C17  1  0.955200  0.620500  0.204300  1.0
  C  C18  1  0.780000  0.879500  0.295700  1.0
  C  C19  1  0.074300  0.346600  0.841400  1.0
  C  C20  1  0.262300  0.153400  0.658600  1.0
  C  C21  1  0.925700  0.653400  0.158600  1.0
  C  C22  1  0.737700  0.846600  0.341400  1.0
  C  C23  1  0.125900  0.371400  0.862400  1.0
  C  C24  1  0.359700  0.128600  0.637600  1.0
  C  C25  1  0.874100  0.628600  0.137600  1.0
  C  C26  1  0.640300  0.871400  0.362400  1.0
  C  C27  1  0.146700  0.428600  0.839200  1.0
  C  C28  1  0.414500  0.071400  0.660800  1.0
  C  C29  1  0.853300  0.571400  0.160800  1.0
  C  C30  1  0.585500  0.928600  0.339200  1.0
  C  C31  1  0.116600  0.461100  0.793500  1.0
  C  C32  1  0.371200  0.038900  0.706500  1.0
  C  C33  1  0.883400  0.538900  0.206500  1.0
  C  C34  1  0.628800  0.961100  0.293500  1.0
  C  C35  1  0.038600  0.469600  0.721000  1.0
  C  C36  1  0.229200  0.030400  0.779000  1.0
  C  C37  1  0.961400  0.530400  0.279000  1.0
  C  C38  1  0.770800  0.969600  0.221000  1.0
  C  C39  1  0.098800  0.497800  0.682200  1.0
  C  C40  1  0.278800  0.002200  0.817800  1.0
  C  C41  1  0.901200  0.502200  0.317800  1.0
  C  C42  1  0.721200  0.997800  0.182200  1.0
  C  C43  1  0.997200  0.533200  0.626600  1.0
  C  C44  1  0.157000  0.966800  0.873400  1.0
  C  C45  1  0.002800  0.466800  0.373400  1.0
  C  C46  1  0.843000  0.033200  0.126600  1.0
  C  C47  1  0.935000  0.504700  0.662100  1.0
  C  C48  1  0.101800  0.995300  0.837900  1.0
  C  C49  1  0.065000  0.495300  0.337900  1.0
  C  C50  1  0.898200  0.004700  0.162100  1.0
  C  C51  1  0.955000  0.473200  0.710800  1.0
  C  C52  1  0.139000  0.026800  0.789200  1.0
  C  C53  1  0.045000  0.526800  0.289200  1.0
  C  C54  1  0.861000  0.973200  0.210800  1.0
  C  C55  1  0.055600  0.283300  0.865700  1.0
  C  C56  1  0.204600  0.216700  0.634300  1.0
  C  C57  1  0.944400  0.716700  0.134300  1.0
  C  C58  1  0.795400  0.783300  0.365700  1.0
  C  C59  1  0.060300  0.262000  0.919000  1.0
  C  C60  1  0.241300  0.238000  0.581000  1.0
  C  C61  1  0.939700  0.738000  0.081000  1.0
  C  C62  1  0.758700  0.762000  0.419000  1.0
  C  C63  1  0.032000  0.164700  0.914700  1.0
  C  C64  1  0.111400  0.335300  0.585300  1.0
  C  C65  1  0.968000  0.835300  0.085300  1.0
  C  C66  1  0.888600  0.664700  0.414700  1.0
  C  C67  1  0.022200  0.184200  0.863600  1.0
  C  C68  1  0.070000  0.315800  0.636400  1.0
  C  C69  1  0.977800  0.815800  0.136400  1.0
  C  C70  1  0.930000  0.684200  0.363600  1.0
  C  C71  1  0.036500  0.243800  0.837600  1.0
  C  C72  1  0.117900  0.256200  0.662400  1.0
  C  C73  1  0.963500  0.756200  0.162400  1.0
  C  C74  1  0.882100  0.743800  0.337600  1.0
  C  C75  1  0.200400  0.454800  0.862400  1.0
  C  C76  1  0.517600  0.045200  0.637600  1.0
  C  C77  1  0.799600  0.545200  0.137600  1.0
  C  C78  1  0.482400  0.954800  0.362400  1.0
  C  C79  1  0.262300  0.488300  0.829900  1.0
  C  C80  1  0.580500  0.011700  0.670100  1.0
  C  C81  1  0.737700  0.511700  0.170100  1.0
  C  C82  1  0.419500  0.988300  0.329900  1.0
  C  C83  1  0.304900  0.500100  0.903300  1.0
  C  C84  1  0.708300  0.999900  0.596700  1.0
  C  C85  1  0.695100  0.499900  0.096700  1.0
  C  C86  1  0.291700  0.000100  0.403300  1.0
  C  C87  1  0.197700  0.445500  0.917100  1.0
  C  C88  1  0.560300  0.054500  0.582900  1.0
  C  C89  1  0.802300  0.554500  0.082900  1.0
  C  C90  1  0.439700  0.945500  0.417100  1.0
  C  C91  1  0.570600  0.357600  0.662000  1.0
  C  C92  1  0.590200  0.142400  0.838000  1.0
  C  C93  1  0.429400  0.642400  0.338000  1.0
  C  C94  1  0.409800  0.857600  0.162000  1.0
  C  C95  1  0.643300  0.303200  0.638400  1.0
  C  C96  1  0.584900  0.196800  0.861600  1.0
  C  C97  1  0.356700  0.696800  0.361600  1.0
  C  C98  1  0.415100  0.803200  0.138400  1.0
  C  C99  1  0.640400  0.279300  0.592900  1.0
  C  C100  1  0.512600  0.220700  0.907100  1.0
  C  C101  1  0.359600  0.720700  0.407100  1.0
  C  C102  1  0.487400  0.779300  0.092900  1.0
  C  C103  1  0.563600  0.309200  0.571000  1.0
  C  C104  1  0.443800  0.190800  0.929000  1.0
  C  C105  1  0.436400  0.690800  0.429000  1.0
  C  C106  1  0.556200  0.809200  0.071000  1.0
  C  C107  1  0.490100  0.386000  0.641800  1.0
  C  C108  1  0.517900  0.114000  0.858200  1.0
  C  C109  1  0.509900  0.614000  0.358200  1.0
  C  C110  1  0.482100  0.886000  0.141800  1.0
  C  C111  1  0.488700  0.362500  0.595300  1.0
  C  C112  1  0.446500  0.137500  0.904700  1.0
  C  C113  1  0.511300  0.637500  0.404700  1.0
  C  C114  1  0.553500  0.862500  0.095300  1.0
  C  C115  1  0.570700  0.382800  0.712600  1.0
  C  C116  1  0.666100  0.117200  0.787400  1.0
  C  C117  1  0.429300  0.617200  0.287400  1.0
  C  C118  1  0.333900  0.882800  0.212600  1.0
  C  C119  1  0.506700  0.443500  0.731900  1.0
  C  C120  1  0.682100  0.056500  0.768100  1.0
  C  C121  1  0.493300  0.556500  0.268100  1.0
  C  C122  1  0.317900  0.943500  0.231900  1.0
  C  C123  1  0.564200  0.430200  0.806000  1.0
  C  C124  1  0.800400  0.069800  0.694000  1.0
  C  C125  1  0.435800  0.569800  0.194000  1.0
  C  C126  1  0.199600  0.930200  0.306000  1.0
  C  C127  1  0.631900  0.369600  0.789600  1.0
  C  C128  1  0.791100  0.130400  0.710400  1.0
  C  C129  1  0.368100  0.630400  0.210400  1.0
  C  C130  1  0.208900  0.869600  0.289600  1.0
  C  C131  1  0.635100  0.346800  0.742400  1.0
  C  C132  1  0.724300  0.153200  0.757600  1.0
  C  C133  1  0.364900  0.653200  0.257600  1.0
  C  C134  1  0.275700  0.846800  0.242400  1.0
  C  C135  1  0.717300  0.217300  0.569100  1.0
  C  C136  1  0.503700  0.282700  0.930900  1.0
  C  C137  1  0.282700  0.782700  0.430900  1.0
  C  C138  1  0.496300  0.717300  0.069100  1.0
  C  C139  1  0.415800  0.325000  0.955600  1.0
  C  C140  1  0.696400  0.175000  0.544400  1.0
  C  C141  1  0.584200  0.675000  0.044400  1.0
  C  C142  1  0.303600  0.825000  0.455600  1.0
  C  C143  1  0.475700  0.397600  0.975600  1.0
  C  C144  1  0.848900  0.102400  0.524400  1.0
  C  C145  1  0.524300  0.602400  0.024400  1.0
  C  C146  1  0.151100  0.897600  0.475600  1.0
  C  C147  1  0.566000  0.359800  0.950600  1.0
  C  C148  1  0.876400  0.140200  0.549400  1.0
  C  C149  1  0.434000  0.640200  0.049400  1.0
  C  C150  1  0.123600  0.859800  0.450600  1.0
  C  C151  1  0.811000  0.199700  0.571100  1.0
  C  C152  1  0.581800  0.300300  0.928900  1.0
  C  C153  1  0.189000  0.800300  0.428900  1.0
  C  C154  1  0.418200  0.699700  0.071100  1.0
  C  C155  1  0.403000  0.393400  0.574200  1.0
  C  C156  1  0.370600  0.106600  0.925800  1.0
  C  C157  1  0.597000  0.606600  0.425800  1.0
  C  C158  1  0.629400  0.893400  0.074200  1.0
  C  C159  1  0.342500  0.457600  0.583200  1.0
  C  C160  1  0.383300  0.042400  0.916800  1.0
  C  C161  1  0.657500  0.542400  0.416800  1.0
  C  C162  1  0.616700  0.957600  0.083200  1.0
  C  C163  1  0.250300  0.447600  0.533600  1.0
  C  C164  1  0.231500  0.052400  0.966400  1.0
  C  C165  1  0.749700  0.552400  0.466400  1.0
  C  C166  1  0.768500  0.947600  0.033600  1.0
  C  C167  1  0.280800  0.142600  0.955800  1.0
  C  C168  1  0.379200  0.357400  0.544200  1.0
  C  C169  1  0.719200  0.857400  0.044200  1.0
  C  C170  1  0.620800  0.642600  0.455800  1.0
  C  C171  1  0.348300  0.698100  0.783100  1.0
  C  C172  1  0.829500  0.801900  0.716900  1.0
  C  C173  1  0.651700  0.301900  0.216900  1.0
  C  C174  1  0.170500  0.198100  0.283100  1.0
  C  C175  1  0.452400  0.675200  0.774600  1.0
  C  C176  1  0.902200  0.824800  0.725400  1.0
  C  C177  1  0.547600  0.324800  0.225400  1.0
  C  C178  1  0.097800  0.175200  0.274600  1.0
  C  C179  1  0.932700  0.202100  0.115500  1.0
  C  C180  1  0.250300  0.297900  0.384500  1.0
  C  C181  1  0.067300  0.797900  0.884500  1.0
  C  C182  1  0.749700  0.702100  0.615500  1.0
  C  C183  1  0.020800  0.189400  0.129800  1.0
  C  C184  1  0.340000  0.310600  0.370200  1.0
  C  C185  1  0.979200  0.810600  0.870200  1.0
  C  C186  1  0.660000  0.689400  0.629800  1.0
  C  C187  1  0.112600  0.470600  0.108000  1.0
  C  C188  1  0.691200  0.029400  0.392000  1.0
  C  C189  1  0.887400  0.529400  0.892000  1.0
  C  C190  1  0.308800  0.970600  0.608000  1.0
  C  C191  1  0.197400  0.453900  0.127300  1.0
  C  C192  1  0.778600  0.046100  0.372700  1.0
  C  C193  1  0.802600  0.546100  0.872700  1.0
  C  C194  1  0.221400  0.953900  0.627300  1.0
  C  C195  1  0.214700  0.695800  0.553000  1.0
  C  C196  1  0.463500  0.804200  0.947000  1.0
  C  C197  1  0.785300  0.304200  0.447000  1.0
  C  C198  1  0.536500  0.195800  0.053000  1.0
  C  C199  1  0.130700  0.711800  0.589800  1.0
  C  C200  1  0.432300  0.788200  0.910200  1.0
  C  C201  1  0.869300  0.288200  0.410200  1.0
  C  C202  1  0.567700  0.211800  0.089800  1.0
  H  H203  1  0.009400  0.363000  0.781000  1.0
  H  H204  1  0.153400  0.137000  0.719000  1.0
  H  H205  1  0.990600  0.637000  0.219000  1.0
  H  H206  1  0.846600  0.863000  0.281000  1.0
  H  H207  1  0.147400  0.348800  0.893200  1.0
  H  H208  1  0.389400  0.151200  0.606800  1.0
  H  H209  1  0.852600  0.651200  0.106800  1.0
  H  H210  1  0.610600  0.848800  0.393200  1.0
  H  H211  1  0.130500  0.500300  0.777500  1.0
  H  H212  1  0.408300  0.999700  0.722500  1.0
  H  H213  1  0.869500  0.499700  0.222500  1.0
  H  H214  1  0.591700  0.000300  0.277500  1.0
  H  H215  1  0.156300  0.494700  0.688700  1.0
  H  H216  1  0.339700  0.005300  0.811300  1.0
  H  H217  1  0.843700  0.505300  0.311300  1.0
  H  H218  1  0.660300  0.994700  0.188700  1.0
  H  H219  1  0.982200  0.556700  0.594300  1.0
  H  H220  1  0.133200  0.943300  0.905700  1.0
  H  H221  1  0.017800  0.443300  0.405700  1.0
  H  H222  1  0.866800  0.056700  0.094300  1.0
  H  H223  1  0.879600  0.506600  0.653600  1.0
  H  H224  1  0.039800  0.993400  0.846400  1.0
  H  H225  1  0.120400  0.493400  0.346400  1.0
  H  H226  1  0.960200  0.006600  0.153600  1.0
  H  H227  1  0.912200  0.454400  0.736600  1.0
  H  H228  1  0.103200  0.045600  0.763400  1.0
  H  H229  1  0.087800  0.545600  0.263400  1.0
  H  H230  1  0.896800  0.954400  0.236600  1.0
  H  H231  1  0.070500  0.289700  0.939900  1.0
  H  H232  1  0.300100  0.210300  0.560100  1.0
  H  H233  1  0.929500  0.710300  0.060100  1.0
  H  H234  1  0.699900  0.789700  0.439900  1.0
  H  H235  1  0.025700  0.123500  0.931300  1.0
  H  H236  1  0.080500  0.376500  0.568700  1.0
  H  H237  1  0.974300  0.876500  0.068700  1.0
  H  H238  1  0.919500  0.623500  0.431300  1.0
  H  H239  1  0.005500  0.157700  0.845100  1.0
  H  H240  1  0.008300  0.342300  0.654900  1.0
  H  H241  1  0.994500  0.842300  0.154900  1.0
  H  H242  1  0.991700  0.657700  0.345100  1.0
  H  H243  1  0.033000  0.256200  0.801000  1.0
  H  H244  1  0.090200  0.243800  0.699000  1.0
  H  H245  1  0.967000  0.743800  0.199000  1.0
  H  H246  1  0.909800  0.756200  0.301000  1.0
  H  H247  1  0.267900  0.495400  0.791800  1.0
  H  H248  1  0.555100  0.004600  0.708200  1.0
  H  H249  1  0.732100  0.504600  0.208200  1.0
  H  H250  1  0.444900  0.995400  0.291800  1.0
  H  H251  1  0.339600  0.517100  0.918100  1.0
  H  H252  1  0.774800  0.982900  0.581900  1.0
  H  H253  1  0.660400  0.482900  0.081900  1.0
  H  H254  1  0.225200  0.017100  0.418100  1.0
  H  H255  1  0.157500  0.423300  0.941300  1.0
  H  H256  1  0.522100  0.076700  0.558700  1.0
  H  H257  1  0.842500  0.576700  0.058700  1.0
  H  H258  1  0.477900  0.923300  0.441300  1.0
  H  H259  1  0.695500  0.282300  0.653500  1.0
  H  H260  1  0.631300  0.217700  0.846500  1.0
  H  H261  1  0.304500  0.717700  0.346500  1.0
  H  H262  1  0.368700  0.782300  0.153500  1.0
  H  H263  1  0.562700  0.293000  0.539200  1.0
  H  H264  1  0.394900  0.207000  0.960800  1.0
  H  H265  1  0.437300  0.707000  0.460800  1.0
  H  H266  1  0.605100  0.793000  0.039200  1.0
  H  H267  1  0.437400  0.420900  0.659900  1.0
  H  H268  1  0.518200  0.079100  0.840100  1.0
  H  H269  1  0.562600  0.579100  0.340100  1.0
  H  H270  1  0.481800  0.920900  0.159900  1.0
  H  H271  1  0.463400  0.469700  0.711500  1.0
  H  H272  1  0.644600  0.030300  0.788500  1.0
  H  H273  1  0.536600  0.530300  0.288500  1.0
  H  H274  1  0.355400  0.969700  0.211500  1.0
  H  H275  1  0.560800  0.446500  0.838900  1.0
  H  H276  1  0.846200  0.053500  0.661100  1.0
  H  H277  1  0.439200  0.553500  0.161100  1.0
  H  H278  1  0.153800  0.946500  0.338900  1.0
  H  H279  1  0.674800  0.344600  0.810600  1.0
  H  H280  1  0.830000  0.155400  0.689400  1.0
  H  H281  1  0.325200  0.655400  0.189400  1.0
  H  H282  1  0.170000  0.844600  0.310600  1.0
  H  H283  1  0.681800  0.306000  0.729800  1.0
  H  H284  1  0.717600  0.194000  0.770200  1.0
  H  H285  1  0.318200  0.694000  0.270200  1.0
  H  H286  1  0.282400  0.806000  0.229800  1.0
  H  H287  1  0.362000  0.314300  0.956500  1.0
  H  H288  1  0.632800  0.185700  0.543500  1.0
  H  H289  1  0.638000  0.685700  0.043500  1.0
  H  H290  1  0.367200  0.814300  0.456500  1.0
  H  H291  1  0.465700  0.437400  0.991200  1.0
  H  H292  1  0.894300  0.062600  0.508800  1.0
  H  H293  1  0.534300  0.562600  0.008800  1.0
  H  H294  1  0.105700  0.937400  0.491200  1.0
  H  H295  1  0.617700  0.373900  0.948100  1.0
  H  H296  1  0.939700  0.126100  0.551900  1.0
  H  H297  1  0.382300  0.626100  0.051900  1.0
  H  H298  1  0.060300  0.873900  0.448100  1.0
  H  H299  1  0.829700  0.227500  0.586900  1.0
  H  H300  1  0.644100  0.272500  0.913100  1.0
  H  H301  1  0.170300  0.772500  0.413100  1.0
  H  H302  1  0.355900  0.727500  0.086900  1.0
  H  H303  1  0.355100  0.484100  0.603900  1.0
  H  H304  1  0.443100  0.015900  0.896100  1.0
  H  H305  1  0.644900  0.515900  0.396100  1.0
  H  H306  1  0.556900  0.984100  0.103900  1.0
  H  H307  1  0.198600  0.467500  0.518100  1.0
  H  H308  1  0.184200  0.032500  0.981900  1.0
  H  H309  1  0.801400  0.532500  0.481900  1.0
  H  H310  1  0.815800  0.967500  0.018100  1.0
  H  H311  1  0.267600  0.187600  0.962200  1.0
  H  H312  1  0.417400  0.312400  0.537800  1.0
  H  H313  1  0.732400  0.812400  0.037800  1.0
  H  H314  1  0.582600  0.687600  0.462200  1.0
  H  H315  1  0.253700  0.650400  0.817400  1.0
  H  H316  1  0.721500  0.849600  0.682600  1.0
  H  H317  1  0.746300  0.349600  0.182600  1.0
  H  H318  1  0.278500  0.150400  0.317400  1.0
  H  H319  1  0.304500  0.653600  0.856600  1.0
  H  H320  1  0.814700  0.846400  0.643400  1.0
  H  H321  1  0.695500  0.346400  0.143400  1.0
  H  H322  1  0.185300  0.153600  0.356600  1.0
  H  H323  1  0.550200  0.585600  0.759200  1.0
  H  H324  1  0.895000  0.914400  0.740800  1.0
  H  H325  1  0.449800  0.414400  0.240800  1.0
  H  H326  1  0.105000  0.085600  0.259200  1.0
  H  H327  1  0.491500  0.607700  0.719700  1.0
  H  H328  1  0.818900  0.892300  0.780300  1.0
  H  H329  1  0.508500  0.392300  0.280300  1.0
  H  H330  1  0.181100  0.107700  0.219700  1.0
  H  H331  1  0.333300  0.702600  0.747800  1.0
  H  H332  1  0.783700  0.797400  0.752200  1.0
  H  H333  1  0.666700  0.297400  0.252200  1.0
  H  H334  1  0.216300  0.202600  0.247800  1.0
  H  H335  1  0.318500  0.741800  0.799400  1.0
  H  H336  1  0.859700  0.758200  0.700600  1.0
  H  H337  1  0.681500  0.258200  0.200600  1.0
  H  H338  1  0.140300  0.241800  0.299400  1.0
  H  H339  1  0.467700  0.675400  0.809000  1.0
  H  H340  1  0.952100  0.824600  0.691000  1.0
  H  H341  1  0.532300  0.324600  0.191000  1.0
  H  H342  1  0.047900  0.175400  0.309000  1.0
  H  H343  1  0.480500  0.707700  0.743700  1.0
  H  H344  1  0.931900  0.792300  0.756300  1.0
  H  H345  1  0.519500  0.292300  0.256300  1.0
  H  H346  1  0.068100  0.207700  0.243700  1.0
  H  H347  1  0.939500  0.269600  0.053200  1.0
  H  H348  1  0.262300  0.230400  0.446800  1.0
  H  H349  1  0.060500  0.730400  0.946800  1.0
  H  H350  1  0.737700  0.769600  0.553200  1.0
  H  H351  1  0.902400  0.219200  0.043800  1.0
  H  H352  1  0.165400  0.280800  0.456200  1.0
  H  H353  1  0.097600  0.780800  0.956200  1.0
  H  H354  1  0.834600  0.719200  0.543800  1.0
  H  H355  1  0.106100  0.101900  0.100300  1.0
  H  H356  1  0.308300  0.398100  0.399700  1.0
  H  H357  1  0.893900  0.898100  0.899700  1.0
  H  H358  1  0.691700  0.601900  0.600300  1.0
  H  H359  1  0.157000  0.150600  0.090800  1.0
  H  H360  1  0.398400  0.349400  0.409200  1.0
  H  H361  1  0.843000  0.849400  0.909200  1.0
  H  H362  1  0.601600  0.650600  0.590800  1.0
  H  H363  1  0.880400  0.236400  0.138400  1.0
  H  H364  1  0.255200  0.263600  0.361600  1.0
  H  H365  1  0.119600  0.763600  0.861600  1.0
  H  H366  1  0.744800  0.736400  0.638400  1.0
  H  H367  1  0.916400  0.160900  0.121900  1.0
  H  H368  1  0.199200  0.339100  0.378100  1.0
  H  H369  1  0.083600  0.839100  0.878100  1.0
  H  H370  1  0.800800  0.660900  0.621900  1.0
  H  H371  1  0.016200  0.168300  0.167100  1.0
  H  H372  1  0.351600  0.331700  0.332900  1.0
  H  H373  1  0.983800  0.831700  0.832900  1.0
  H  H374  1  0.648400  0.668300  0.667100  1.0
  H  H375  1  0.031000  0.232000  0.129200  1.0
  H  H376  1  0.392200  0.268000  0.370800  1.0
  H  H377  1  0.969000  0.768000  0.870800  1.0
  H  H378  1  0.607800  0.732000  0.629200  1.0
  H  H379  1  0.130200  0.538800  0.048600  1.0
  H  H380  1  0.717600  0.961200  0.451400  1.0
  H  H381  1  0.869800  0.461200  0.951400  1.0
  H  H382  1  0.282400  0.038800  0.548600  1.0
  H  H383  1  0.091000  0.492300  0.034700  1.0
  H  H384  1  0.618000  0.007700  0.465300  1.0
  H  H385  1  0.909000  0.507700  0.965300  1.0
  H  H386  1  0.382000  0.992300  0.534700  1.0
  H  H387  1  0.275200  0.364100  0.097300  1.0
  H  H388  1  0.736600  0.135900  0.402700  1.0
  H  H389  1  0.724800  0.635900  0.902700  1.0
  H  H390  1  0.263400  0.864100  0.597300  1.0
  H  H391  1  0.334900  0.405900  0.092500  1.0
  H  H392  1  0.833300  0.094100  0.407500  1.0
  H  H393  1  0.665100  0.594100  0.907500  1.0
  H  H394  1  0.166700  0.905900  0.592500  1.0
  H  H395  1  0.094000  0.430800  0.111600  1.0
  H  H396  1  0.636400  0.069200  0.388400  1.0
  H  H397  1  0.906000  0.569200  0.888400  1.0
  H  H398  1  0.363600  0.930800  0.611600  1.0
  H  H399  1  0.059500  0.505200  0.130200  1.0
  H  H400  1  0.694900  0.994800  0.369800  1.0
  H  H401  1  0.940500  0.494800  0.869800  1.0
  H  H402  1  0.305100  0.005200  0.630200  1.0
  H  H403  1  0.186700  0.433300  0.164900  1.0
  H  H404  1  0.784900  0.066700  0.335100  1.0
  H  H405  1  0.813300  0.566700  0.835100  1.0
  H  H406  1  0.215100  0.933300  0.664900  1.0
  H  H407  1  0.211900  0.494700  0.127700  1.0
  H  H408  1  0.834300  0.005300  0.372300  1.0
  H  H409  1  0.788100  0.505300  0.872300  1.0
  H  H410  1  0.165700  0.994700  0.627700  1.0
  H  H411  1  0.312900  0.607300  0.543500  1.0
  H  H412  1  0.463700  0.892700  0.956500  1.0
  H  H413  1  0.687100  0.392700  0.456500  1.0
  H  H414  1  0.536300  0.107300  0.043500  1.0
  H  H415  1  0.258100  0.624800  0.502200  1.0
  H  H416  1  0.385100  0.875200  0.997800  1.0
  H  H417  1  0.741900  0.375200  0.497800  1.0
  H  H418  1  0.614900  0.124800  0.002200  1.0
  H  H419  1  0.029500  0.679900  0.589700  1.0
  H  H420  1  0.299100  0.820100  0.910300  1.0
  H  H421  1  0.970500  0.320100  0.410300  1.0
  H  H422  1  0.700900  0.179900  0.089700  1.0
  H  H423  1  0.050900  0.667000  0.643800  1.0
  H  H424  1  0.361700  0.833000  0.856200  1.0
  H  H425  1  0.949100  0.333000  0.356200  1.0
  H  H426  1  0.638300  0.167000  0.143800  1.0
  H  H427  1  0.260100  0.705000  0.567400  1.0
  H  H428  1  0.532500  0.795000  0.932600  1.0
  H  H429  1  0.739900  0.295000  0.432600  1.0
  H  H430  1  0.467500  0.205000  0.067400  1.0
  H  H431  1  0.208800  0.724900  0.519500  1.0
  H  H432  1  0.453200  0.775100  0.980500  1.0
  H  H433  1  0.791200  0.275100  0.480500  1.0
  H  H434  1  0.546800  0.224900  0.019500  1.0
  H  H435  1  0.089800  0.753600  0.575800  1.0
  H  H436  1  0.419200  0.746400  0.924200  1.0
  H  H437  1  0.910200  0.246400  0.424200  1.0
  H  H438  1  0.580800  0.253600  0.075800  1.0
  H  H439  1  0.140200  0.722200  0.623200  1.0
  H  H440  1  0.485600  0.777800  0.876800  1.0
  H  H441  1  0.859800  0.277800  0.376800  1.0
  H  H442  1  0.514400  0.222200  0.123200  1.0
  N  N443  1  0.007900  0.056800  0.406600  1
  N  N444  1  0.471300  0.443200  0.093400  1
  N  N445  1  0.992100  0.943200  0.593400  1
  N  N446  1  0.528700  0.556800  0.906600  1
  N  N447  1  0.368300  0.860100  0.752700  1
  N  N448  1  0.981100  0.639900  0.747300  1
  N  N449  1  0.631700  0.139900  0.247300  1
  N  N450  1  0.018900  0.360100  0.252700  1
  N  N451  1  0.551700  0.932400  0.810600  1
  N  N452  1  0.294700  0.567600  0.689400  1
  N  N453  1  0.448300  0.067600  0.189400  1
  N  N454  1  0.705300  0.432400  0.310600  1
  N  N455  1  0.817900  0.350100  0.949100  1
  N  N456  1  0.117100  0.149900  0.550900  1
  N  N457  1  0.182100  0.649900  0.050900  1
  N  N458  1  0.882900  0.850100  0.449100  1
  N  N459  1  0.200600  0.290000  0.021400  1
  N  N460  1  0.512000  0.210000  0.478600  1
  N  N461  1  0.799400  0.710000  0.978600  1
  N  N462  1  0.488000  0.790000  0.521400  1
  N  N463  1  0.972800  0.395800  0.038200  1
  N  N464  1  0.406800  0.104200  0.461800  1
  N  N465  1  0.027200  0.604200  0.961800  1
  N  N466  1  0.593200  0.895800  0.538200  1
  N  N467  1  0.787200  0.398400  0.577800  1
  N  N468  1  0.763400  0.101600  0.922200  1
  N  N469  1  0.212800  0.601600  0.422200  1
  N  N470  1  0.236600  0.898400  0.077800  1
  N  N471  1  0.027400  0.509100  0.492300  1
  N  N472  1  0.028800  0.990900  0.007700  1
  N  N473  1  0.972600  0.490900  0.507700  1
  N  N474  1  0.971200  0.009100  0.992300  1
  N  N475  1  0.537200  0.508100  0.531500  1
  N  N476  1  0.576800  0.991900  0.968500  1
  N  N477  1  0.462800  0.491900  0.468500  1
  N  N478  1  0.423200  0.008100  0.031500  1
  N  N479  1  0.079200  0.529300  0.635900  1.0
  N  N480  1  0.244400  0.970700  0.864100  1.0
  N  N481  1  0.920800  0.470700  0.364100  1.0
  N  N482  1  0.755600  0.029300  0.135900  1.0
  N  N483  1  0.050600  0.203800  0.941800  1.0
  N  N484  1  0.196200  0.296200  0.558200  1.0
  N  N485  1  0.949400  0.796200  0.058200  1.0
  N  N486  1  0.803800  0.703800  0.441800  1.0
  N  N487  1  0.312100  0.510000  0.850200  1.0
  N  N488  1  0.672300  0.990000  0.649800  1.0
  N  N489  1  0.687900  0.490000  0.149800  1.0
  N  N490  1  0.327700  0.010000  0.350200  1.0
  N  N491  1  0.250700  0.467100  0.936700  1.0
  N  N492  1  0.654500  0.032900  0.563300  1.0
  N  N493  1  0.749300  0.532900  0.063300  1.0
  N  N494  1  0.345500  0.967100  0.436700  1.0
  N  N495  1  0.503300  0.466500  0.777100  1.0
  N  N496  1  0.746900  0.033500  0.722900  1.0
  N  N497  1  0.496700  0.533500  0.222900  1.0
  N  N498  1  0.253100  0.966500  0.277100  1.0
  N  N499  1  0.401900  0.380200  0.978400  1.0
  N  N500  1  0.760500  0.119800  0.521600  1.0
  N  N501  1  0.598100  0.619800  0.021600  1.0
  N  N502  1  0.239500  0.880200  0.478400  1.0
  N  N503  1  0.266500  0.483300  0.563700  1.0
  N  N504  1  0.313500  0.016700  0.936300  1.0
  N  N505  1  0.733500  0.516700  0.436300  1.0
  N  N506  1  0.686500  0.983300  0.063700  1.0
  N  N507  1  0.211700  0.115300  0.976100  1.0
  N  N508  1  0.303100  0.384700  0.523900  1.0
  N  N509  1  0.788300  0.884700  0.023900  1.0
  N  N510  1  0.696900  0.615300  0.476100  1.0
  N  N511  1  0.311600  0.646800  0.821000  1.0
  N  N512  1  0.779400  0.853200  0.679000  1.0
  N  N513  1  0.688400  0.353200  0.179000  1.0
  N  N514  1  0.220600  0.146800  0.321000  1.0
  N  N515  1  0.489800  0.606400  0.755800  1.0
  N  N516  1  0.852000  0.893600  0.744200  1.0
  N  N517  1  0.510200  0.393600  0.244200  1.0
  N  N518  1  0.148000  0.106400  0.255800  1.0
  N  N519  1  0.946700  0.225000  0.057200  1.0
  N  N520  1  0.228900  0.275000  0.442800  1.0
  N  N521  1  0.053300  0.775000  0.942800  1.0
  N  N522  1  0.771100  0.725000  0.557200  1.0
  N  N523  1  0.101500  0.145600  0.090800  1.0
  N  N524  1  0.337900  0.354400  0.409200  1.0
  N  N525  1  0.898500  0.854400  0.909200  1.0
  N  N526  1  0.662100  0.645600  0.590800  1.0
  N  N527  1  0.133800  0.495000  0.051000  1.0
  N  N528  1  0.679800  0.005000  0.449000  1.0
  N  N529  1  0.866200  0.505000  0.949000  1.0
  N  N530  1  0.320200  0.995000  0.551000  1.0
  N  N531  1  0.278100  0.406300  0.089300  1.0
  N  N532  1  0.773700  0.093700  0.410700  1.0
  N  N533  1  0.721900  0.593700  0.910700  1.0
  N  N534  1  0.226300  0.906300  0.589300  1.0
  N  N535  1  0.253200  0.626500  0.538500  1.0
  N  N536  1  0.418200  0.873500  0.961500  1.0
  N  N537  1  0.746800  0.373500  0.461500  1.0
  N  N538  1  0.581800  0.126500  0.038500  1.0
  N  N539  1  0.077200  0.667100  0.606700  1.0
  N  N540  1  0.351000  0.832900  0.893300  1.0
  N  N541  1  0.922800  0.332900  0.393300  1.0
  N  N542  1  0.649000  0.167100  0.106700  1.0
  O  O543  1  0.981700  0.009500  0.407900  1
  O  O544  1  0.399100  0.490500  0.092100  1
  O  O545  1  0.018300  0.990500  0.592100  1
  O  O546  1  0.600900  0.509500  0.907900  1
  O  O547  1  0.956700  0.114600  0.398800  1
  O  O548  1  0.470100  0.385400  0.101200  1
  O  O549  1  0.043300  0.885400  0.601200  1
  O  O550  1  0.529900  0.614600  0.898800  1
  O  O551  1  0.081700  0.047000  0.415200  1
  O  O552  1  0.543900  0.453000  0.084800  1
  O  O553  1  0.918300  0.953000  0.584800  1
  O  O554  1  0.456100  0.547000  0.915200  1
  O  O555  1  0.377400  0.862000  0.704600  1
  O  O556  1  0.944000  0.638000  0.795400  1
  O  O557  1  0.622600  0.138000  0.295400  1
  O  O558  1  0.056000  0.362000  0.204600  1
  O  O559  1  0.435300  0.858000  0.770000  1
  O  O560  1  0.063300  0.642000  0.730000  1
  O  O561  1  0.564700  0.142000  0.230000  1
  O  O562  1  0.936700  0.358000  0.270000  1
  O  O563  1  0.292700  0.859200  0.785000  1
  O  O564  1  0.936900  0.640800  0.715000  1
  O  O565  1  0.707300  0.140800  0.215000  1
  O  O566  1  0.063100  0.359200  0.285000  1
  O  O567  1  0.540700  0.911200  0.858200  1
  O  O568  1  0.310100  0.588800  0.641800  1
  O  O569  1  0.459300  0.088800  0.141800  1
  O  O570  1  0.689900  0.411200  0.358200  1
  O  O571  1  0.610000  0.897800  0.776000  1
  O  O572  1  0.283800  0.602200  0.724000  1
  O  O573  1  0.390000  0.102200  0.224000  1
  O  O574  1  0.716200  0.397800  0.276000  1
  O  O575  1  0.503900  0.990900  0.798900  1
  O  O576  1  0.293700  0.509100  0.701100  1
  O  O577  1  0.496100  0.009100  0.201100  1
  O  O578  1  0.706300  0.490900  0.298900  1
  O  O579  1  0.798800  0.297700  0.942500  1
  O  O580  1  0.039000  0.202300  0.557500  1
  O  O581  1  0.201200  0.702300  0.057500  1
  O  O582  1  0.961000  0.797700  0.442500  1
  O  O583  1  0.811100  0.362000  0.991600  1
  O  O584  1  0.164700  0.138000  0.508400  1
  O  O585  1  0.188900  0.638000  0.008400  1
  O  O586  1  0.835300  0.862000  0.491600  1
  O  O587  1  0.844000  0.385300  0.907700  1
  O  O588  1  0.137000  0.114700  0.592300  1
  O  O589  1  0.156000  0.614700  0.092300  1
  O  O590  1  0.863000  0.885300  0.407700  1
  O  O591  1  0.163100  0.337700  0.048900  1
  O  O592  1  0.549700  0.162300  0.451100  1
  O  O593  1  0.836900  0.662300  0.951100  1
  O  O594  1  0.450300  0.837700  0.548900  1
  O  O595  1  0.247300  0.233300  0.053100  1
  O  O596  1  0.533700  0.266700  0.446900  1
  O  O597  1  0.752700  0.766700  0.946900  1
  O  O598  1  0.466300  0.733300  0.553100  1
  O  O599  1  0.211500  0.297700  0.974300  1
  O  O600  1  0.483500  0.202300  0.525700  1
  O  O601  1  0.788500  0.702300  0.025700  1
  O  O602  1  0.516500  0.797700  0.474300  1
  O  O603  1  0.949000  0.355400  0.060600  1
  O  O604  1  0.365000  0.144600  0.439400  1
  O  O605  1  0.051000  0.644600  0.939400  1
  O  O606  1  0.635000  0.855400  0.560600  1
  O  O607  1  0.005200  0.390900  0.990300  1
  O  O608  1  0.386400  0.109100  0.509700  1
  O  O609  1  0.994800  0.609100  0.009700  1
  O  O610  1  0.613600  0.890900  0.490300  1
  O  O611  1  0.968500  0.443600  0.046800  1
  O  O612  1  0.458900  0.056400  0.453200  1
  O  O613  1  0.031500  0.556400  0.953200  1
  O  O614  1  0.541100  0.943600  0.546800  1
  O  O615  1  0.726700  0.447700  0.562900  1
  O  O616  1  0.737300  0.052300  0.937100  1
  O  O617  1  0.273300  0.552300  0.437100  1
  O  O618  1  0.262700  0.947700  0.062900  1
  O  O619  1  0.843800  0.339900  0.556700  1
  O  O620  1  0.740400  0.160100  0.943300  1
  O  O621  1  0.156200  0.660100  0.443300  1
  O  O622  1  0.259600  0.839900  0.056700  1
  O  O623  1  0.808600  0.391600  0.627000  1
  O  O624  1  0.827200  0.108400  0.873000  1
  O  O625  1  0.191400  0.608400  0.373000  1
  O  O626  1  0.172800  0.891600  0.127000  1
  O  O627  1  0.975800  0.678600  0.521000  1
  O  O628  1  0.175400  0.821400  0.979000  1
  O  O629  1  0.024200  0.321400  0.479000  1
  O  O630  1  0.824600  0.178600  0.021000  1
  O  O631  1  0.246000  0.262800  0.140600  1
  O  O632  1  0.649400  0.237200  0.359400  1
  O  O633  1  0.754000  0.737200  0.859400  1
  O  O634  1  0.350600  0.762800  0.640600  1
  O  O635  1  0.982000  0.911600  0.308800  1
  O  O636  1  0.202400  0.588400  0.191200  1
  O  O637  1  0.018000  0.088400  0.691200  1
  O  O638  1  0.797600  0.411600  0.808800  1
  O  O639  1  0.881700  0.258600  0.661600  1
  O  O640  1  0.801900  0.241400  0.838400  1
  O  O641  1  0.118300  0.741400  0.338400  1
  O  O642  1  0.198100  0.758600  0.161600  1
  O  O643  1  0.748200  0.641600  0.746400  1
  O  O644  1  0.136200  0.858400  0.753600  1
  O  O645  1  0.251800  0.358400  0.253600  1
  O  O646  1  0.863800  0.141600  0.246400  1
  O  O647  1  0.489500  0.606400  0.645000  1
  O  O648  1  0.740900  0.893600  0.855000  1
  O  O649  1  0.510500  0.393600  0.355000  1
  O  O650  1  0.259100  0.106400  0.145000  1
  O  O651  1  0.624800  0.749600  0.802600  1
  O  O652  1  0.177000  0.750400  0.697400  1
  O  O653  1  0.375200  0.250400  0.197400  1
  O  O654  1  0.823000  0.249600  0.302600  1
  O  O655  1  0.125400  0.649300  0.824300  1
  O  O656  1  0.599000  0.850700  0.675700  1
  O  O657  1  0.874600  0.350700  0.175700  1
  O  O658  1  0.401000  0.149300  0.324300  1
  O  O659  1  0.688100  0.316700  0.078500  1
  O  O660  1  0.083300  0.183300  0.421500  1
  O  O661  1  0.311900  0.683300  0.921500  1
  O  O662  1  0.916700  0.816700  0.578500  1
  O  O663  1  0.688100  0.535400  0.764000  1
  O  O664  1  0.987500  0.964600  0.736000  1
  O  O665  1  0.311900  0.464600  0.236000  1
  O  O666  1  0.012500  0.035400  0.264000  1
  O  O667  1  0.950200  0.202200  0.747800  1
  O  O668  1  0.900200  0.297800  0.752200  1
  O  O669  1  0.049800  0.797800  0.252200  1
  O  O670  1  0.099800  0.702200  0.247800  1
  O  O671  1  0.706800  0.522600  0.656400  1
  O  O672  1  0.885800  0.977400  0.843600  1
  O  O673  1  0.293200  0.477400  0.343600  1
  O  O674  1  0.114200  0.022600  0.156400  1
  O  O675  1  0.067400  0.548000  0.492800  1
  O  O676  1  0.108200  0.952000  0.007200  1
  O  O677  1  0.932600  0.452000  0.507200  1
  O  O678  1  0.891800  0.048000  0.992800  1
  O  O679  1  0.932800  0.541800  0.506000  1
  O  O680  1  0.980600  0.958200  0.994000  1
  O  O681  1  0.067200  0.458200  0.494000  1
  O  O682  1  0.019400  0.041800  0.006000  1
  O  O683  1  0.453700  0.543200  0.519200  1
  O  O684  1  0.516100  0.956800  0.980800  1
  O  O685  1  0.546300  0.456800  0.480800  1
  O  O686  1  0.483900  0.043200  0.019200  1
  O  O687  1  0.583000  0.519000  0.561000  1
  O  O688  1  0.663000  0.981000  0.939000  1
  O  O689  1  0.417000  0.481000  0.439000  1
  O  O690  1  0.337000  0.019000  0.061000  1
  Pd  Pd691  1  0.405100  0.555900  0.801500  1.0
  Pd  Pd692  1  0.762500  0.944100  0.698500  1.0
  Pd  Pd693  1  0.594900  0.444100  0.198500  1.0
  Pd  Pd694  1  0.237500  0.055900  0.301500  1.0
  Pd  Pd695  1  0.078100  0.171800  0.015600  1.0
  Pd  Pd696  1  0.265500  0.328200  0.484400  1.0
  Pd  Pd697  1  0.921900  0.828200  0.984400  1.0
  Pd  Pd698  1  0.734500  0.671800  0.515600  1.0
  Pd  Pd699  1  0.266100  0.438100  0.013300  1.0
  Pd  Pd700  1  0.717500  0.061900  0.486700  1.0
  Pd  Pd701  1  0.733900  0.561900  0.986700  1.0
  Pd  Pd702  1  0.282500  0.938100  0.513300  1.0
  Pd  Pd703  1  0.168500  0.574800  0.585200  1.0
  Pd  Pd704  1  0.328500  0.925200  0.914800  1.0
  Pd  Pd705  1  0.831500  0.425200  0.414800  1.0
  Pd  Pd706  1  0.671500  0.074800  0.085200  1.0
