# generated using pymatgen
data_Cu3H9C26SO42
_symmetry_space_group_name_H-M   'P 1'
_cell_length_a   28.42409472
_cell_length_b   28.42409472
_cell_length_c   28.42409472
_cell_angle_alpha   101.41968053
_cell_angle_beta   113.64089452
_cell_angle_gamma   113.64089452
_symmetry_Int_Tables_number   1
_chemical_formula_structural   Cu3H9C26SO42
_chemical_formula_sum   'Cu24 H72 C208 S8 O336'
_cell_volume   17421.61383084
_cell_formula_units_Z   8
loop_
 _symmetry_equiv_pos_site_id
 _symmetry_equiv_pos_as_xyz
  1  'x, y, z'
loop_
 _atom_site_type_symbol
 _atom_site_label
 _atom_site_symmetry_multiplicity
 _atom_site_fract_x
 _atom_site_fract_y
 _atom_site_fract_z
 _atom_site_occupancy
  C  C1  1  0.161000  0.217300  0.378300  1.0
  C  C2  1  0.839000  0.056300  0.217300  1.0
  C  C3  1  0.161000  0.378300  0.217300  1.0
  C  C4  1  0.161000  0.943700  0.782700  1.0
  C  C5  1  0.839000  0.217300  0.056300  1.0
  C  C6  1  0.161000  0.782700  0.943700  1.0
  C  C7  1  0.839000  0.782700  0.621700  1.0
  C  C8  1  0.839000  0.621700  0.782700  1.0
  C  C9  1  0.200800  0.286900  0.487700  1.0
  C  C10  1  0.799200  0.086100  0.286900  1.0
  C  C11  1  0.200800  0.487700  0.286900  1.0
  C  C12  1  0.200800  0.913900  0.713100  1.0
  C  C13  1  0.799200  0.286900  0.086100  1.0
  C  C14  1  0.200800  0.713100  0.913900  1.0
  C  C15  1  0.799200  0.713100  0.512300  1.0
  C  C16  1  0.799200  0.512300  0.713100  1.0
  C  C17  1  0.000000  0.072200  0.548200  1.0
  C  C18  1  0.524000  0.072200  0.072200  1.0
  C  C19  1  0.476000  0.548200  0.548200  1.0
  C  C20  1  0.000000  0.927800  0.451800  1.0
  C  C21  1  0.000000  0.548200  0.072200  1.0
  C  C22  1  0.476000  0.927800  0.927800  1.0
  C  C23  1  0.524000  0.451800  0.451800  1.0
  C  C24  1  0.000000  0.451800  0.927800  1.0
  C  C25  1  0.560600  0.588000  0.027400  1.0
  C  C26  1  0.560600  0.027400  0.588000  1.0
  C  C27  1  0.439400  0.027400  0.466800  1.0
  C  C28  1  0.560600  0.972600  0.533200  1.0
  C  C29  1  0.439400  0.466800  0.027400  1.0
  C  C30  1  0.439400  0.412000  0.972600  1.0
  C  C31  1  0.560600  0.533200  0.972600  1.0
  C  C32  1  0.439400  0.972600  0.412000  1.0
  C  C33  1  0.787100  0.783500  0.169200  1.0
  C  C34  1  0.614300  0.996400  0.783500  1.0
  C  C35  1  0.385700  0.169200  0.382100  1.0
  C  C36  1  0.787100  0.003600  0.617900  1.0
  C  C37  1  0.212900  0.382100  0.996400  1.0
  C  C38  1  0.385700  0.216500  0.003600  1.0
  C  C39  1  0.614300  0.617900  0.830800  1.0
  C  C40  1  0.212900  0.830800  0.216500  1.0
  C  C41  1  0.212900  0.216500  0.830800  1.0
  C  C42  1  0.385700  0.003600  0.216500  1.0
  C  C43  1  0.614300  0.830800  0.617900  1.0
  C  C44  1  0.212900  0.996400  0.382100  1.0
  C  C45  1  0.787100  0.617900  0.003600  1.0
  C  C46  1  0.614300  0.783500  0.996400  1.0
  C  C47  1  0.385700  0.382100  0.169200  1.0
  C  C48  1  0.787100  0.169200  0.783500  1.0
  C  C49  1  0.838900  0.838800  0.197900  1.0
  C  C50  1  0.640900  0.999900  0.838800  1.0
  C  C51  1  0.359100  0.197900  0.359000  1.0
  C  C52  1  0.838900  0.000100  0.641000  1.0
  C  C53  1  0.161100  0.359000  0.999900  1.0
  C  C54  1  0.359100  0.161200  0.000100  1.0
  C  C55  1  0.640900  0.641000  0.802100  1.0
  C  C56  1  0.161100  0.802100  0.161200  1.0
  C  C57  1  0.161100  0.161200  0.802100  1.0
  C  C58  1  0.359100  0.000100  0.161200  1.0
  C  C59  1  0.640900  0.802100  0.641000  1.0
  C  C60  1  0.161100  0.999900  0.359000  1.0
  C  C61  1  0.838900  0.641000  0.000100  1.0
  C  C62  1  0.640900  0.838800  0.999900  1.0
  C  C63  1  0.359100  0.359000  0.197900  1.0
  C  C64  1  0.838900  0.197900  0.838800  1.0
  C  C65  1  0.865300  0.869600  0.254700  1.0
  C  C66  1  0.614900  0.004300  0.869600  1.0
  C  C67  1  0.385100  0.254700  0.389400  1.0
  C  C68  1  0.865300  0.995700  0.610600  1.0
  C  C69  1  0.134700  0.389400  0.004300  1.0
  C  C70  1  0.385100  0.130400  0.995700  1.0
  C  C71  1  0.614900  0.610600  0.745300  1.0
  C  C72  1  0.134700  0.745300  0.130400  1.0
  C  C73  1  0.134700  0.130400  0.745300  1.0
  C  C74  1  0.385100  0.995700  0.130400  1.0
  C  C75  1  0.614900  0.745300  0.610600  1.0
  C  C76  1  0.134700  0.004300  0.389400  1.0
  C  C77  1  0.865300  0.610600  0.995700  1.0
  C  C78  1  0.614900  0.869600  0.004300  1.0
  C  C79  1  0.385100  0.389400  0.254700  1.0
  C  C80  1  0.865300  0.254700  0.869600  1.0
  C  C81  1  0.842500  0.841500  0.284200  1.0
  C  C82  1  0.557300  0.999000  0.841500  1.0
  C  C83  1  0.442700  0.284200  0.441700  1.0
  C  C84  1  0.842500  0.001000  0.558300  1.0
  C  C85  1  0.157500  0.441700  0.999000  1.0
  C  C86  1  0.442700  0.158500  0.001000  1.0
  C  C87  1  0.557300  0.558300  0.715800  1.0
  C  C88  1  0.157500  0.715800  0.158500  1.0
  C  C89  1  0.157500  0.158500  0.715800  1.0
  C  C90  1  0.442700  0.001000  0.158500  1.0
  C  C91  1  0.557300  0.715800  0.558300  1.0
  C  C92  1  0.157500  0.999000  0.441700  1.0
  C  C93  1  0.842500  0.558300  0.001000  1.0
  C  C94  1  0.557300  0.841500  0.999000  1.0
  C  C95  1  0.442700  0.441700  0.284200  1.0
  C  C96  1  0.842500  0.284200  0.841500  1.0
  C  C97  1  0.790500  0.787100  0.253800  1.0
  C  C98  1  0.533300  0.996600  0.787100  1.0
  C  C99  1  0.466700  0.253800  0.463300  1.0
  C  C100  1  0.790500  0.003400  0.536700  1.0
  C  C101  1  0.209500  0.463300  0.996600  1.0
  C  C102  1  0.466700  0.212900  0.003400  1.0
  C  C103  1  0.533300  0.536700  0.746200  1.0
  C  C104  1  0.209500  0.746200  0.212900  1.0
  C  C105  1  0.209500  0.212900  0.746200  1.0
  C  C106  1  0.466700  0.003400  0.212900  1.0
  C  C107  1  0.533300  0.746200  0.536700  1.0
  C  C108  1  0.209500  0.996600  0.463300  1.0
  C  C109  1  0.790500  0.536700  0.003400  1.0
  C  C110  1  0.533300  0.787100  0.996600  1.0
  C  C111  1  0.466700  0.463300  0.253800  1.0
  C  C112  1  0.790500  0.253800  0.787100  1.0
  C  C113  1  0.762400  0.758000  0.194200  1.0
  C  C114  1  0.563800  0.995600  0.758000  1.0
  C  C115  1  0.436200  0.194200  0.431800  1.0
  C  C116  1  0.762400  0.004400  0.568200  1.0
  C  C117  1  0.237600  0.431800  0.995600  1.0
  C  C118  1  0.436200  0.242000  0.004400  1.0
  C  C119  1  0.563800  0.568200  0.805800  1.0
  C  C120  1  0.237600  0.805800  0.242000  1.0
  C  C121  1  0.237600  0.242000  0.805800  1.0
  C  C122  1  0.436200  0.004400  0.242000  1.0
  C  C123  1  0.563800  0.805800  0.568200  1.0
  C  C124  1  0.237600  0.995600  0.431800  1.0
  C  C125  1  0.762400  0.568200  0.004400  1.0
  C  C126  1  0.563800  0.758000  0.995600  1.0
  C  C127  1  0.436200  0.431800  0.194200  1.0
  C  C128  1  0.762400  0.194200  0.758000  1.0
  C  C129  1  0.754600  0.751000  0.105000  1.0
  C  C130  1  0.646000  0.996400  0.751000  1.0
  C  C131  1  0.354000  0.105000  0.350400  1.0
  C  C132  1  0.754600  0.003600  0.649600  1.0
  C  C133  1  0.245400  0.350400  0.996400  1.0
  C  C134  1  0.354000  0.249000  0.003600  1.0
  C  C135  1  0.646000  0.649600  0.895000  1.0
  C  C136  1  0.245400  0.895000  0.249000  1.0
  C  C137  1  0.245400  0.249000  0.895000  1.0
  C  C138  1  0.354000  0.003600  0.249000  1.0
  C  C139  1  0.646000  0.895000  0.649600  1.0
  C  C140  1  0.245400  0.996400  0.350400  1.0
  C  C141  1  0.754600  0.649600  0.003600  1.0
  C  C142  1  0.646000  0.751000  0.996400  1.0
  C  C143  1  0.354000  0.350400  0.105000  1.0
  C  C144  1  0.754600  0.105000  0.751000  1.0
  C  C145  1  0.918100  0.930600  0.284300  1.0
  C  C146  1  0.646300  0.012500  0.930600  1.0
  C  C147  1  0.353700  0.284300  0.366200  1.0
  C  C148  1  0.918100  0.987500  0.633800  1.0
  C  C149  1  0.081900  0.366200  0.012500  1.0
  C  C150  1  0.353700  0.069400  0.987500  1.0
  C  C151  1  0.646300  0.633800  0.715700  1.0
  C  C152  1  0.081900  0.715700  0.069400  1.0
  C  C153  1  0.081900  0.069400  0.715700  1.0
  C  C154  1  0.353700  0.987500  0.069400  1.0
  C  C155  1  0.646300  0.715700  0.633800  1.0
  C  C156  1  0.081900  0.012500  0.366200  1.0
  C  C157  1  0.918100  0.633800  0.987500  1.0
  C  C158  1  0.646300  0.930600  0.012500  1.0
  C  C159  1  0.353700  0.366200  0.284300  1.0
  C  C160  1  0.918100  0.284300  0.930600  1.0
  C  C161  1  0.133600  0.198300  0.406700  1.0
  C  C162  1  0.791600  0.064700  0.198300  1.0
  C  C163  1  0.208400  0.406700  0.273100  1.0
  C  C164  1  0.133600  0.935300  0.726900  1.0
  C  C165  1  0.866400  0.273100  0.064700  1.0
  C  C166  1  0.208400  0.801700  0.935300  1.0
  C  C167  1  0.791600  0.726900  0.593300  1.0
  C  C168  1  0.866400  0.593300  0.801700  1.0
  C  C169  1  0.866400  0.801700  0.593300  1.0
  C  C170  1  0.208400  0.935300  0.801700  1.0
  C  C171  1  0.791600  0.593300  0.726900  1.0
  C  C172  1  0.866400  0.064700  0.273100  1.0
  C  C173  1  0.133600  0.726900  0.935300  1.0
  C  C174  1  0.791600  0.198300  0.064700  1.0
  C  C175  1  0.208400  0.273100  0.406700  1.0
  C  C176  1  0.133600  0.406700  0.198300  1.0
  C  C177  1  0.153300  0.231500  0.462200  1.0
  C  C178  1  0.769300  0.078200  0.231500  1.0
  C  C179  1  0.230700  0.462200  0.308900  1.0
  C  C180  1  0.153300  0.921800  0.691100  1.0
  C  C181  1  0.846700  0.308900  0.078200  1.0
  C  C182  1  0.230700  0.768500  0.921800  1.0
  C  C183  1  0.769300  0.691100  0.537800  1.0
  C  C184  1  0.846700  0.537800  0.768500  1.0
  C  C185  1  0.846700  0.768500  0.537800  1.0
  C  C186  1  0.230700  0.921800  0.768500  1.0
  C  C187  1  0.769300  0.537800  0.691100  1.0
  C  C188  1  0.846700  0.078200  0.308900  1.0
  C  C189  1  0.153300  0.691100  0.921800  1.0
  C  C190  1  0.769300  0.231500  0.078200  1.0
  C  C191  1  0.230700  0.308900  0.462200  1.0
  C  C192  1  0.153300  0.462200  0.231500  1.0
  C  C193  1  0.080300  0.133700  0.377000  1.0
  C  C194  1  0.756700  0.053400  0.133700  1.0
  C  C195  1  0.243300  0.377000  0.296700  1.0
  C  C196  1  0.080300  0.946600  0.703300  1.0
  C  C197  1  0.919700  0.296700  0.053400  1.0
  C  C198  1  0.243300  0.866300  0.946600  1.0
  C  C199  1  0.756700  0.703300  0.623000  1.0
  C  C200  1  0.919700  0.623000  0.866300  1.0
  C  C201  1  0.919700  0.866300  0.623000  1.0
  C  C202  1  0.243300  0.946600  0.866300  1.0
  C  C203  1  0.756700  0.623000  0.703300  1.0
  C  C204  1  0.919700  0.053400  0.296700  1.0
  C  C205  1  0.080300  0.703300  0.946600  1.0
  C  C206  1  0.756700  0.133700  0.053400  1.0
  C  C207  1  0.243300  0.296700  0.377000  1.0
  C  C208  1  0.080300  0.377000  0.133700  1.0
  Cu  Cu209  1  0.743960  0.743960  0.000000  1.0
  Cu  Cu210  1  0.743960  0.000000  0.743960  1.0
  Cu  Cu211  1  0.256040  0.000000  0.256040  1.0
  Cu  Cu212  1  0.256040  0.256040  0.000000  1.0
  Cu  Cu213  1  0.658660  0.658660  0.000000  1.0
  Cu  Cu214  1  0.658660  0.000000  0.658660  1.0
  Cu  Cu215  1  0.341340  0.000000  0.341340  1.0
  Cu  Cu216  1  0.341340  0.341340  0.000000  1.0
  Cu  Cu217  1  0.000000  0.037140  0.379000  1.0
  Cu  Cu218  1  0.658140  0.037140  0.037140  1.0
  Cu  Cu219  1  0.341860  0.379000  0.379000  1.0
  Cu  Cu220  1  0.000000  0.962860  0.621000  1.0
  Cu  Cu221  1  0.000000  0.379000  0.037140  1.0
  Cu  Cu222  1  0.341860  0.962860  0.962860  1.0
  Cu  Cu223  1  0.658140  0.621000  0.621000  1.0
  Cu  Cu224  1  0.000000  0.621000  0.962860  1.0
  Cu  Cu225  1  0.000000  0.027420  0.284660  1.0
  Cu  Cu226  1  0.742760  0.027420  0.027420  1.0
  Cu  Cu227  1  0.257240  0.284660  0.284660  1.0
  Cu  Cu228  1  0.000000  0.972580  0.715340  1.0
  Cu  Cu229  1  0.000000  0.284660  0.027420  1.0
  Cu  Cu230  1  0.257240  0.972580  0.972580  1.0
  Cu  Cu231  1  0.742760  0.715340  0.715340  1.0
  Cu  Cu232  1  0.000000  0.715340  0.972580  1.0
  H  H233  1  0.148000  0.193400  0.341400  1.0
  H  H234  1  0.852000  0.045400  0.193400  1.0
  H  H235  1  0.148000  0.341400  0.193400  1.0
  H  H236  1  0.148000  0.954600  0.806600  1.0
  H  H237  1  0.852000  0.193400  0.045400  1.0
  H  H238  1  0.148000  0.806600  0.954600  1.0
  H  H239  1  0.852000  0.806600  0.658600  1.0
  H  H240  1  0.852000  0.658600  0.806600  1.0
  H  H241  1  0.855700  0.854800  0.177900  1.0
  H  H242  1  0.676900  0.999100  0.854800  1.0
  H  H243  1  0.323100  0.177900  0.322200  1.0
  H  H244  1  0.855700  0.000900  0.677800  1.0
  H  H245  1  0.144300  0.322200  0.999100  1.0
  H  H246  1  0.323100  0.145200  0.000900  1.0
  H  H247  1  0.676900  0.677800  0.822100  1.0
  H  H248  1  0.144300  0.822100  0.145200  1.0
  H  H249  1  0.144300  0.145200  0.822100  1.0
  H  H250  1  0.323100  0.000900  0.145200  1.0
  H  H251  1  0.676900  0.822100  0.677800  1.0
  H  H252  1  0.144300  0.999100  0.322200  1.0
  H  H253  1  0.855700  0.677800  0.000900  1.0
  H  H254  1  0.676900  0.854800  0.999100  1.0
  H  H255  1  0.323100  0.322200  0.177900  1.0
  H  H256  1  0.855700  0.177900  0.854800  1.0
  H  H257  1  0.862700  0.860000  0.324300  1.0
  H  H258  1  0.535700  0.997300  0.860000  1.0
  H  H259  1  0.464300  0.324300  0.461600  1.0
  H  H260  1  0.862700  0.002700  0.538400  1.0
  H  H261  1  0.137300  0.461600  0.997300  1.0
  H  H262  1  0.464300  0.140000  0.002700  1.0
  H  H263  1  0.535700  0.538400  0.675700  1.0
  H  H264  1  0.137300  0.675700  0.140000  1.0
  H  H265  1  0.137300  0.140000  0.675700  1.0
  H  H266  1  0.464300  0.002700  0.140000  1.0
  H  H267  1  0.535700  0.675700  0.538400  1.0
  H  H268  1  0.137300  0.997300  0.461600  1.0
  H  H269  1  0.862700  0.538400  0.002700  1.0
  H  H270  1  0.535700  0.860000  0.997300  1.0
  H  H271  1  0.464300  0.461600  0.324300  1.0
  H  H272  1  0.862700  0.324300  0.860000  1.0
  H  H273  1  0.726600  0.721100  0.173100  1.0
  H  H274  1  0.548000  0.994500  0.721100  1.0
  H  H275  1  0.452000  0.173100  0.446500  1.0
  H  H276  1  0.726600  0.005500  0.553500  1.0
  H  H277  1  0.273400  0.446500  0.994500  1.0
  H  H278  1  0.452000  0.278900  0.005500  1.0
  H  H279  1  0.548000  0.553500  0.826900  1.0
  H  H280  1  0.273400  0.826900  0.278900  1.0
  H  H281  1  0.273400  0.278900  0.826900  1.0
  H  H282  1  0.452000  0.005500  0.278900  1.0
  H  H283  1  0.548000  0.826900  0.553500  1.0
  H  H284  1  0.273400  0.994500  0.446500  1.0
  H  H285  1  0.726600  0.553500  0.005500  1.0
  H  H286  1  0.548000  0.721100  0.994500  1.0
  H  H287  1  0.452000  0.446500  0.173100  1.0
  H  H288  1  0.726600  0.173100  0.721100  1.0
  H  H289  1  0.134600  0.216300  0.481300  1.0
  H  H290  1  0.735000  0.081700  0.216300  1.0
  H  H291  1  0.265000  0.481300  0.346700  1.0
  H  H292  1  0.134600  0.918300  0.653300  1.0
  H  H293  1  0.865400  0.346700  0.081700  1.0
  H  H294  1  0.265000  0.783700  0.918300  1.0
  H  H295  1  0.735000  0.653300  0.518700  1.0
  H  H296  1  0.865400  0.518700  0.783700  1.0
  H  H297  1  0.865400  0.783700  0.518700  1.0
  H  H298  1  0.265000  0.918300  0.783700  1.0
  H  H299  1  0.735000  0.518700  0.653300  1.0
  H  H300  1  0.865400  0.081700  0.346700  1.0
  H  H301  1  0.134600  0.653300  0.918300  1.0
  H  H302  1  0.735000  0.216300  0.081700  1.0
  H  H303  1  0.265000  0.346700  0.481300  1.0
  H  H304  1  0.134600  0.481300  0.216300  1.0
  O  O305  1  0.152400  0.307700  0.621700  1
  O  O306  1  0.686000  0.155300  0.307700  1
  O  O307  1  0.314000  0.621700  0.469300  1
  O  O308  1  0.152400  0.844700  0.530700  1
  O  O309  1  0.847600  0.469300  0.155300  1
  O  O310  1  0.314000  0.692300  0.844700  1
  O  O311  1  0.686000  0.530700  0.378300  1
  O  O312  1  0.847600  0.378300  0.692300  1
  O  O313  1  0.847600  0.692300  0.378300  1
  O  O314  1  0.314000  0.844700  0.692300  1
  O  O315  1  0.686000  0.378300  0.530700  1
  O  O316  1  0.847600  0.155300  0.469300  1
  O  O317  1  0.152400  0.530700  0.844700  1
  O  O318  1  0.686000  0.307700  0.155300  1
  O  O319  1  0.314000  0.469300  0.621700  1
  O  O320  1  0.152400  0.621700  0.307700  1
  O  O321  1  0.000000  0.202200  0.675800  1
  O  O322  1  0.526400  0.202200  0.202200  1
  O  O323  1  0.473600  0.675800  0.675800  1
  O  O324  1  0.000000  0.797800  0.324200  1
  O  O325  1  0.000000  0.675800  0.202200  1
  O  O326  1  0.473600  0.797800  0.797800  1
  O  O327  1  0.526400  0.324200  0.324200  1
  O  O328  1  0.000000  0.324200  0.797800  1
  O  O329  1  0.828600  0.877000  0.473800  1
  O  O330  1  0.403200  0.048400  0.877000  1
  O  O331  1  0.596800  0.473800  0.645200  1
  O  O332  1  0.828600  0.951600  0.354800  1
  O  O333  1  0.171400  0.645200  0.048400  1
  O  O334  1  0.596800  0.123000  0.951600  1
  O  O335  1  0.403200  0.354800  0.526200  1
  O  O336  1  0.171400  0.526200  0.123000  1
  O  O337  1  0.171400  0.123000  0.526200  1
  O  O338  1  0.596800  0.951600  0.123000  1
  O  O339  1  0.403200  0.526200  0.354800  1
  O  O340  1  0.171400  0.048400  0.645200  1
  O  O341  1  0.828600  0.354800  0.951600  1
  O  O342  1  0.403200  0.877000  0.048400  1
  O  O343  1  0.596800  0.645200  0.473800  1
  O  O344  1  0.828600  0.473800  0.877000  1
  O  O345  1  0.712000  0.920000  0.208000  1
  O  O346  1  0.712000  0.208000  0.920000  1
  O  O347  1  0.288000  0.208000  0.496000  1
  O  O348  1  0.712000  0.792000  0.504000  1
  O  O349  1  0.288000  0.496000  0.208000  1
  O  O350  1  0.288000  0.080000  0.792000  1
  O  O351  1  0.712000  0.504000  0.792000  1
  O  O352  1  0.288000  0.792000  0.080000  1
  O  O353  1  0.814800  0.835700  0.385500  1
  O  O354  1  0.450200  0.020900  0.835700  1
  O  O355  1  0.549800  0.385500  0.570700  1
  O  O356  1  0.814800  0.979100  0.429300  1
  O  O357  1  0.185200  0.570700  0.020900  1
  O  O358  1  0.549800  0.164300  0.979100  1
  O  O359  1  0.450200  0.429300  0.614500  1
  O  O360  1  0.185200  0.614500  0.164300  1
  O  O361  1  0.185200  0.164300  0.614500  1
  O  O362  1  0.549800  0.979100  0.164300  1
  O  O363  1  0.450200  0.614500  0.429300  1
  O  O364  1  0.185200  0.020900  0.570700  1
  O  O365  1  0.814800  0.429300  0.979100  1
  O  O366  1  0.450200  0.835700  0.020900  1
  O  O367  1  0.549800  0.570700  0.385500  1
  O  O368  1  0.814800  0.385500  0.835700  1
  O  O369  1  0.943100  0.850900  0.157800  1
  O  O370  1  0.693100  0.907800  0.850900  1
  O  O371  1  0.306900  0.157800  0.214700  1
  O  O372  1  0.943100  0.092200  0.785300  1
  O  O373  1  0.056900  0.214700  0.907800  1
  O  O374  1  0.306900  0.149100  0.092200  1
  O  O375  1  0.693100  0.785300  0.842200  1
  O  O376  1  0.056900  0.842200  0.149100  1
  O  O377  1  0.056900  0.149100  0.842200  1
  O  O378  1  0.306900  0.092200  0.149100  1
  O  O379  1  0.693100  0.842200  0.785300  1
  O  O380  1  0.056900  0.907800  0.214700  1
  O  O381  1  0.943100  0.785300  0.092200  1
  O  O382  1  0.693100  0.850900  0.907800  1
  O  O383  1  0.306900  0.214700  0.157800  1
  O  O384  1  0.943100  0.157800  0.850900  1
  O  O385  1  0.798000  0.627000  0.171000  1
  O  O386  1  0.456000  0.829000  0.627000  1
  O  O387  1  0.544000  0.171000  0.373000  1
  O  O388  1  0.798000  0.171000  0.627000  1
  O  O389  1  0.202000  0.373000  0.829000  1
  O  O390  1  0.544000  0.373000  0.171000  1
  O  O391  1  0.456000  0.627000  0.829000  1
  O  O392  1  0.202000  0.829000  0.373000  1
  O  O393  1  0.059000  0.173300  0.232300  1
  O  O394  1  0.941000  0.114300  0.173300  1
  O  O395  1  0.059000  0.232300  0.173300  1
  O  O396  1  0.059000  0.885700  0.826700  1
  O  O397  1  0.941000  0.173300  0.114300  1
  O  O398  1  0.059000  0.826700  0.885700  1
  O  O399  1  0.941000  0.826700  0.767700  1
  O  O400  1  0.941000  0.767700  0.826700  1
  O  O401  1  0.872600  0.950300  0.077700  1
  O  O402  1  0.872600  0.077700  0.950300  1
  O  O403  1  0.127400  0.077700  0.205100  1
  O  O404  1  0.872600  0.922300  0.794900  1
  O  O405  1  0.127400  0.205100  0.077700  1
  O  O406  1  0.127400  0.049700  0.922300  1
  O  O407  1  0.872600  0.794900  0.922300  1
  O  O408  1  0.127400  0.922300  0.049700  1
  O  O409  1  0.841600  0.941700  0.100100  1
  O  O410  1  0.841600  0.100100  0.941700  1
  O  O411  1  0.158400  0.100100  0.258500  1
  O  O412  1  0.841600  0.899900  0.741500  1
  O  O413  1  0.158400  0.258500  0.100100  1
  O  O414  1  0.158400  0.058300  0.899900  1
  O  O415  1  0.841600  0.741500  0.899900  1
  O  O416  1  0.158400  0.899900  0.058300  1
  O  O417  1  0.821100  0.819700  0.432200  1
  O  O418  1  0.387500  0.998600  0.819700  1
  O  O419  1  0.612500  0.432200  0.611100  1
  O  O420  1  0.821100  0.001400  0.388900  1
  O  O421  1  0.178900  0.611100  0.998600  1
  O  O422  1  0.612500  0.180300  0.001400  1
  O  O423  1  0.387500  0.388900  0.567800  1
  O  O424  1  0.178900  0.567800  0.180300  1
  O  O425  1  0.178900  0.180300  0.567800  1
  O  O426  1  0.612500  0.001400  0.180300  1
  O  O427  1  0.387500  0.567800  0.388900  1
  O  O428  1  0.178900  0.998600  0.611100  1
  O  O429  1  0.821100  0.388900  0.001400  1
  O  O430  1  0.387500  0.819700  0.998600  1
  O  O431  1  0.612500  0.611100  0.432200  1
  O  O432  1  0.821100  0.432200  0.819700  1
  O  O433  1  0.710200  0.866700  0.199700  1
  O  O434  1  0.667000  0.156500  0.866700  1
  O  O435  1  0.333000  0.199700  0.489500  1
  O  O436  1  0.710200  0.843500  0.510500  1
  O  O437  1  0.289800  0.489500  0.156500  1
  O  O438  1  0.333000  0.133300  0.843500  1
  O  O439  1  0.667000  0.510500  0.800300  1
  O  O440  1  0.289800  0.800300  0.133300  1
  O  O441  1  0.289800  0.133300  0.800300  1
  O  O442  1  0.333000  0.843500  0.133300  1
  O  O443  1  0.667000  0.800300  0.510500  1
  O  O444  1  0.289800  0.156500  0.489500  1
  O  O445  1  0.710200  0.510500  0.843500  1
  O  O446  1  0.667000  0.866700  0.156500  1
  O  O447  1  0.333000  0.489500  0.199700  1
  O  O448  1  0.710200  0.199700  0.866700  1
  O  O449  1  0.667800  0.878000  0.210200  1
  O  O450  1  0.667800  0.210200  0.878000  1
  O  O451  1  0.332200  0.210200  0.542400  1
  O  O452  1  0.667800  0.789800  0.457600  1
  O  O453  1  0.332200  0.542400  0.210200  1
  O  O454  1  0.332200  0.122000  0.789800  1
  O  O455  1  0.667800  0.457600  0.789800  1
  O  O456  1  0.332200  0.789800  0.122000  1
  O  O457  1  0.765200  0.819100  0.401900  1
  O  O458  1  0.417200  0.053900  0.819100  1
  O  O459  1  0.582800  0.401900  0.636700  1
  O  O460  1  0.765200  0.946100  0.363300  1
  O  O461  1  0.234800  0.636700  0.053900  1
  O  O462  1  0.582800  0.180900  0.946100  1
  O  O463  1  0.417200  0.363300  0.598100  1
  O  O464  1  0.234800  0.598100  0.180900  1
  O  O465  1  0.234800  0.180900  0.598100  1
  O  O466  1  0.582800  0.946100  0.180900  1
  O  O467  1  0.417200  0.598100  0.363300  1
  O  O468  1  0.234800  0.053900  0.636700  1
  O  O469  1  0.765200  0.363300  0.946100  1
  O  O470  1  0.417200  0.819100  0.053900  1
  O  O471  1  0.582800  0.636700  0.401900  1
  O  O472  1  0.765200  0.401900  0.819100  1
  O  O473  1  0.000000  0.143200  0.685600  1
  O  O474  1  0.457600  0.143200  0.143200  1
  O  O475  1  0.542400  0.685600  0.685600  1
  O  O476  1  0.000000  0.856800  0.314400  1
  O  O477  1  0.000000  0.685600  0.143200  1
  O  O478  1  0.542400  0.856800  0.856800  1
  O  O479  1  0.457600  0.314400  0.314400  1
  O  O480  1  0.000000  0.314400  0.856800  1
  O  O481  1  0.723000  0.894000  0.171000  1
  O  O482  1  0.723000  0.171000  0.894000  1
  O  O483  1  0.277000  0.171000  0.448000  1
  O  O484  1  0.723000  0.829000  0.552000  1
  O  O485  1  0.277000  0.448000  0.171000  1
  O  O486  1  0.277000  0.106000  0.829000  1
  O  O487  1  0.723000  0.552000  0.829000  1
  O  O488  1  0.277000  0.829000  0.106000  1
  O  O489  1  0.000000  0.215500  0.759900  1
  O  O490  1  0.455600  0.215500  0.215500  1
  O  O491  1  0.544400  0.759900  0.759900  1
  O  O492  1  0.000000  0.784500  0.240100  1
  O  O493  1  0.000000  0.759900  0.215500  1
  O  O494  1  0.544400  0.784500  0.784500  1
  O  O495  1  0.455600  0.240100  0.240100  1
  O  O496  1  0.000000  0.240100  0.784500  1
  O  O497  1  0.810100  0.810100  0.000000  1.0
  O  O498  1  0.810100  0.000000  0.810100  1.0
  O  O499  1  0.189900  0.000000  0.189900  1.0
  O  O500  1  0.189900  0.189900  0.000000  1.0
  O  O501  1  0.591500  0.591500  0.000000  1.0
  O  O502  1  0.591500  0.000000  0.591500  1.0
  O  O503  1  0.408500  0.000000  0.408500  1.0
  O  O504  1  0.408500  0.408500  0.000000  1.0
  O  O505  1  0.000000  0.045000  0.454800  1.0
  O  O506  1  0.590200  0.045000  0.045000  1.0
  O  O507  1  0.409800  0.454800  0.454800  1.0
  O  O508  1  0.000000  0.955000  0.545200  1.0
  O  O509  1  0.000000  0.454800  0.045000  1.0
  O  O510  1  0.409800  0.955000  0.955000  1.0
  O  O511  1  0.590200  0.545200  0.545200  1.0
  O  O512  1  0.000000  0.545200  0.955000  1.0
  O  O513  1  0.000000  0.020100  0.208300  1.0
  O  O514  1  0.811800  0.020100  0.020100  1.0
  O  O515  1  0.188200  0.208300  0.208300  1.0
  O  O516  1  0.000000  0.979900  0.791700  1.0
  O  O517  1  0.000000  0.208300  0.020100  1.0
  O  O518  1  0.188200  0.979900  0.979900  1.0
  O  O519  1  0.811800  0.791700  0.791700  1.0
  O  O520  1  0.000000  0.791700  0.979900  1.0
  O  O521  1  0.216300  0.321800  0.538100  1.0
  O  O522  1  0.783700  0.105500  0.321800  1.0
  O  O523  1  0.216300  0.538100  0.321800  1.0
  O  O524  1  0.216300  0.894500  0.678200  1.0
  O  O525  1  0.783700  0.321800  0.105500  1.0
  O  O526  1  0.216300  0.678200  0.894500  1.0
  O  O527  1  0.783700  0.678200  0.461900  1.0
  O  O528  1  0.783700  0.461900  0.678200  1.0
  O  O529  1  0.708500  0.702700  0.081800  1.0
  O  O530  1  0.620900  0.994200  0.702700  1.0
  O  O531  1  0.379100  0.081800  0.373300  1.0
  O  O532  1  0.708500  0.005800  0.626700  1.0
  O  O533  1  0.291500  0.373300  0.994200  1.0
  O  O534  1  0.379100  0.297300  0.005800  1.0
  O  O535  1  0.620900  0.626700  0.918200  1.0
  O  O536  1  0.291500  0.918200  0.297300  1.0
  O  O537  1  0.291500  0.297300  0.918200  1.0
  O  O538  1  0.379100  0.005800  0.297300  1.0
  O  O539  1  0.620900  0.918200  0.626700  1.0
  O  O540  1  0.291500  0.994200  0.373300  1.0
  O  O541  1  0.708500  0.626700  0.005800  1.0
  O  O542  1  0.620900  0.702700  0.994200  1.0
  O  O543  1  0.379100  0.373300  0.081800  1.0
  O  O544  1  0.708500  0.081800  0.702700  1.0
  O  O545  1  0.780900  0.775000  0.082500  1.0
  O  O546  1  0.692500  0.994100  0.775000  1.0
  O  O547  1  0.307500  0.082500  0.301600  1.0
  O  O548  1  0.780900  0.005900  0.698400  1.0
  O  O549  1  0.219100  0.301600  0.994100  1.0
  O  O550  1  0.307500  0.225000  0.005900  1.0
  O  O551  1  0.692500  0.698400  0.917500  1.0
  O  O552  1  0.219100  0.917500  0.225000  1.0
  O  O553  1  0.219100  0.225000  0.917500  1.0
  O  O554  1  0.307500  0.005900  0.225000  1.0
  O  O555  1  0.692500  0.917500  0.698400  1.0
  O  O556  1  0.219100  0.994100  0.301600  1.0
  O  O557  1  0.780900  0.698400  0.005900  1.0
  O  O558  1  0.692500  0.775000  0.994100  1.0
  O  O559  1  0.307500  0.301600  0.082500  1.0
  O  O560  1  0.780900  0.082500  0.775000  1.0
  O  O561  1  0.936700  0.956700  0.336800  1.0
  O  O562  1  0.619900  0.020000  0.956700  1.0
  O  O563  1  0.380100  0.336800  0.400100  1.0
  O  O564  1  0.936700  0.980000  0.599900  1.0
  O  O565  1  0.063300  0.400100  0.020000  1.0
  O  O566  1  0.380100  0.043300  0.980000  1.0
  O  O567  1  0.619900  0.599900  0.663200  1.0
  O  O568  1  0.063300  0.663200  0.043300  1.0
  O  O569  1  0.063300  0.043300  0.663200  1.0
  O  O570  1  0.380100  0.980000  0.043300  1.0
  O  O571  1  0.619900  0.663200  0.599900  1.0
  O  O572  1  0.063300  0.020000  0.400100  1.0
  O  O573  1  0.936700  0.599900  0.980000  1.0
  O  O574  1  0.619900  0.956700  0.020000  1.0
  O  O575  1  0.380100  0.400100  0.336800  1.0
  O  O576  1  0.936700  0.336800  0.956700  1.0
  O  O577  1  0.936100  0.947900  0.255000  1.0
  O  O578  1  0.692900  0.011800  0.947900  1.0
  O  O579  1  0.307100  0.255000  0.318900  1.0
  O  O580  1  0.936100  0.988200  0.681100  1.0
  O  O581  1  0.063900  0.318900  0.011800  1.0
  O  O582  1  0.307100  0.052100  0.988200  1.0
  O  O583  1  0.692900  0.681100  0.745000  1.0
  O  O584  1  0.063900  0.745000  0.052100  1.0
  O  O585  1  0.063900  0.052100  0.745000  1.0
  O  O586  1  0.307100  0.988200  0.052100  1.0
  O  O587  1  0.692900  0.745000  0.681100  1.0
  O  O588  1  0.063900  0.011800  0.318900  1.0
  O  O589  1  0.936100  0.681100  0.988200  1.0
  O  O590  1  0.692900  0.947900  0.011800  1.0
  O  O591  1  0.307100  0.318900  0.255000  1.0
  O  O592  1  0.936100  0.255000  0.947900  1.0
  O  O593  1  0.768300  0.766100  0.284000  1.0
  O  O594  1  0.482100  0.997800  0.766100  1.0
  O  O595  1  0.517900  0.284000  0.515700  1.0
  O  O596  1  0.768300  0.002200  0.484300  1.0
  O  O597  1  0.231700  0.515700  0.997800  1.0
  O  O598  1  0.517900  0.233900  0.002200  1.0
  O  O599  1  0.482100  0.484300  0.716000  1.0
  O  O600  1  0.231700  0.716000  0.233900  1.0
  O  O601  1  0.231700  0.233900  0.716000  1.0
  O  O602  1  0.517900  0.002200  0.233900  1.0
  O  O603  1  0.482100  0.716000  0.484300  1.0
  O  O604  1  0.231700  0.997800  0.515700  1.0
  O  O605  1  0.768300  0.484300  0.002200  1.0
  O  O606  1  0.482100  0.766100  0.997800  1.0
  O  O607  1  0.517900  0.515700  0.284000  1.0
  O  O608  1  0.768300  0.284000  0.766100  1.0
  O  O609  1  0.061900  0.108300  0.326200  1.0
  O  O610  1  0.782100  0.046400  0.108300  1.0
  O  O611  1  0.217900  0.326200  0.264300  1.0
  O  O612  1  0.061900  0.953600  0.735700  1.0
  O  O613  1  0.938100  0.264300  0.046400  1.0
  O  O614  1  0.217900  0.891700  0.953600  1.0
  O  O615  1  0.782100  0.735700  0.673800  1.0
  O  O616  1  0.938100  0.673800  0.891700  1.0
  O  O617  1  0.938100  0.891700  0.673800  1.0
  O  O618  1  0.217900  0.953600  0.891700  1.0
  O  O619  1  0.782100  0.673800  0.735700  1.0
  O  O620  1  0.938100  0.046400  0.264300  1.0
  O  O621  1  0.061900  0.735700  0.953600  1.0
  O  O622  1  0.782100  0.108300  0.046400  1.0
  O  O623  1  0.217900  0.264300  0.326200  1.0
  O  O624  1  0.061900  0.326200  0.108300  1.0
  O  O625  1  0.062700  0.117200  0.407500  1.0
  O  O626  1  0.709700  0.054500  0.117200  1.0
  O  O627  1  0.290300  0.407500  0.344800  1.0
  O  O628  1  0.062700  0.945500  0.655200  1.0
  O  O629  1  0.937300  0.344800  0.054500  1.0
  O  O630  1  0.290300  0.882800  0.945500  1.0
  O  O631  1  0.709700  0.655200  0.592500  1.0
  O  O632  1  0.937300  0.592500  0.882800  1.0
  O  O633  1  0.937300  0.882800  0.592500  1.0
  O  O634  1  0.290300  0.945500  0.882800  1.0
  O  O635  1  0.709700  0.592500  0.655200  1.0
  O  O636  1  0.937300  0.054500  0.344800  1.0
  O  O637  1  0.062700  0.655200  0.945500  1.0
  O  O638  1  0.709700  0.117200  0.054500  1.0
  O  O639  1  0.290300  0.344800  0.407500  1.0
  O  O640  1  0.062700  0.407500  0.117200  1.0
  S  S641  1  0.000000  0.083000  0.489600  1.0
  S  S642  1  0.593400  0.083000  0.083000  1.0
  S  S643  1  0.406600  0.489600  0.489600  1.0
  S  S644  1  0.000000  0.917000  0.510400  1.0
  S  S645  1  0.000000  0.489600  0.083000  1.0
  S  S646  1  0.406600  0.917000  0.917000  1.0
  S  S647  1  0.593400  0.510400  0.510400  1.0
  S  S648  1  0.000000  0.510400  0.917000  1.0
