# generated using pymatgen
data_Pd9C72N49O22
_symmetry_space_group_name_H-M   'P 1'
_cell_length_a   23.16800000
_cell_length_b   23.16800000
_cell_length_c   34.10000000
_cell_angle_alpha   90.00000000
_cell_angle_beta   90.00000000
_cell_angle_gamma   120.00000000
_symmetry_Int_Tables_number   1
_chemical_formula_structural   Pd9C72N49O22
_chemical_formula_sum   'Pd36 C288 N196 O88'
_cell_volume   15851.19832376
_cell_formula_units_Z   4
loop_
 _symmetry_equiv_pos_site_id
 _symmetry_equiv_pos_as_xyz
  1  'x, y, z'
loop_
 _atom_site_type_symbol
 _atom_site_label
 _atom_site_symmetry_multiplicity
 _atom_site_fract_x
 _atom_site_fract_y
 _atom_site_fract_z
 _atom_site_occupancy
  Pd  Pd1  1  0.047500  0.262400  0.250000  1.0
  Pd  Pd2  1  0.262400  0.214900  0.750000  1.0
  Pd  Pd3  1  0.214900  0.952500  0.250000  1.0
  Pd  Pd4  1  0.952500  0.737600  0.750000  1.0
  Pd  Pd5  1  0.737600  0.785100  0.250000  1.0
  Pd  Pd6  1  0.785100  0.047500  0.750000  1.0
  Pd  Pd7  1  0.481300  0.400700  0.250000  1.0
  Pd  Pd8  1  0.400700  0.919400  0.750000  1.0
  Pd  Pd9  1  0.919400  0.518700  0.250000  1.0
  Pd  Pd10  1  0.518700  0.599300  0.750000  1.0
  Pd  Pd11  1  0.599300  0.080600  0.250000  1.0
  Pd  Pd12  1  0.080600  0.481300  0.750000  1.0
  Pd  Pd13  1  0.299900  0.507900  0.541200  1.0
  Pd  Pd14  1  0.507900  0.208000  0.041200  1.0
  Pd  Pd15  1  0.208000  0.700100  0.541200  1.0
  Pd  Pd16  1  0.700100  0.492100  0.041200  1.0
  Pd  Pd17  1  0.492100  0.792000  0.541200  1.0
  Pd  Pd18  1  0.792000  0.299900  0.041200  1.0
  Pd  Pd19  1  0.700100  0.492100  0.458800  1.0
  Pd  Pd20  1  0.492100  0.792000  0.958800  1.0
  Pd  Pd21  1  0.792000  0.299900  0.458800  1.0
  Pd  Pd22  1  0.299900  0.507900  0.958800  1.0
  Pd  Pd23  1  0.507900  0.208000  0.458800  1.0
  Pd  Pd24  1  0.208000  0.700100  0.958800  1.0
  Pd  Pd25  1  0.257800  0.305200  0.358200  1.0
  Pd  Pd26  1  0.305200  0.047400  0.858200  1.0
  Pd  Pd27  1  0.047400  0.742200  0.358200  1.0
  Pd  Pd28  1  0.742200  0.694800  0.858200  1.0
  Pd  Pd29  1  0.694800  0.952600  0.358200  1.0
  Pd  Pd30  1  0.952600  0.257800  0.858200  1.0
  Pd  Pd31  1  0.742200  0.694800  0.641800  1.0
  Pd  Pd32  1  0.694800  0.952600  0.141800  1.0
  Pd  Pd33  1  0.952600  0.257800  0.641800  1.0
  Pd  Pd34  1  0.257800  0.305200  0.141800  1.0
  Pd  Pd35  1  0.305200  0.047400  0.641800  1.0
  Pd  Pd36  1  0.047400  0.742200  0.141800  1.0
  C  C37  1  0.237000  0.381000  0.587000  1.0
  C  C38  1  0.381000  0.144000  0.087000  1.0
  C  C39  1  0.144000  0.763000  0.587000  1.0
  C  C40  1  0.763000  0.619000  0.087000  1.0
  C  C41  1  0.619000  0.856000  0.587000  1.0
  C  C42  1  0.856000  0.237000  0.087000  1.0
  C  C43  1  0.763000  0.619000  0.413000  1.0
  C  C44  1  0.619000  0.856000  0.913000  1.0
  C  C45  1  0.856000  0.237000  0.413000  1.0
  C  C46  1  0.237000  0.381000  0.913000  1.0
  C  C47  1  0.381000  0.144000  0.413000  1.0
  C  C48  1  0.144000  0.763000  0.913000  1.0
  C  C49  1  0.320000  0.433000  0.605000  1.0
  C  C50  1  0.433000  0.113000  0.105000  1.0
  C  C51  1  0.113000  0.680000  0.605000  1.0
  C  C52  1  0.680000  0.567000  0.105000  1.0
  C  C53  1  0.567000  0.887000  0.605000  1.0
  C  C54  1  0.887000  0.320000  0.105000  1.0
  C  C55  1  0.680000  0.567000  0.395000  1.0
  C  C56  1  0.567000  0.887000  0.895000  1.0
  C  C57  1  0.887000  0.320000  0.395000  1.0
  C  C58  1  0.320000  0.433000  0.895000  1.0
  C  C59  1  0.433000  0.113000  0.395000  1.0
  C  C60  1  0.113000  0.680000  0.895000  1.0
  C  C61  1  0.409000  0.651000  0.532000  1.0
  C  C62  1  0.651000  0.242000  0.032000  1.0
  C  C63  1  0.242000  0.591000  0.532000  1.0
  C  C64  1  0.591000  0.349000  0.032000  1.0
  C  C65  1  0.349000  0.758000  0.532000  1.0
  C  C66  1  0.758000  0.409000  0.032000  1.0
  C  C67  1  0.591000  0.349000  0.468000  1.0
  C  C68  1  0.349000  0.758000  0.968000  1.0
  C  C69  1  0.758000  0.409000  0.468000  1.0
  C  C70  1  0.409000  0.651000  0.968000  1.0
  C  C71  1  0.651000  0.242000  0.468000  1.0
  C  C72  1  0.242000  0.591000  0.968000  1.0
  C  C73  1  0.211000  0.516000  0.487000  1.0
  C  C74  1  0.516000  0.305000  0.987000  1.0
  C  C75  1  0.305000  0.789000  0.487000  1.0
  C  C76  1  0.789000  0.484000  0.987000  1.0
  C  C77  1  0.484000  0.695000  0.487000  1.0
  C  C78  1  0.695000  0.211000  0.987000  1.0
  C  C79  1  0.789000  0.484000  0.513000  1.0
  C  C80  1  0.484000  0.695000  0.013000  1.0
  C  C81  1  0.695000  0.211000  0.513000  1.0
  C  C82  1  0.211000  0.516000  0.013000  1.0
  C  C83  1  0.516000  0.305000  0.513000  1.0
  C  C84  1  0.305000  0.789000  0.013000  1.0
  C  C85  1  0.172000  0.530000  0.463000  1.0
  C  C86  1  0.530000  0.358000  0.963000  1.0
  C  C87  1  0.358000  0.828000  0.463000  1.0
  C  C88  1  0.828000  0.470000  0.963000  1.0
  C  C89  1  0.470000  0.642000  0.463000  1.0
  C  C90  1  0.642000  0.172000  0.963000  1.0
  C  C91  1  0.828000  0.470000  0.537000  1.0
  C  C92  1  0.470000  0.642000  0.037000  1.0
  C  C93  1  0.642000  0.172000  0.537000  1.0
  C  C94  1  0.172000  0.530000  0.037000  1.0
  C  C95  1  0.530000  0.358000  0.537000  1.0
  C  C96  1  0.358000  0.828000  0.037000  1.0
  C  C97  1  0.398000  0.578000  0.484000  1.0
  C  C98  1  0.578000  0.180000  0.984000  1.0
  C  C99  1  0.180000  0.602000  0.484000  1.0
  C  C100  1  0.602000  0.422000  0.984000  1.0
  C  C101  1  0.422000  0.820000  0.484000  1.0
  C  C102  1  0.820000  0.398000  0.984000  1.0
  C  C103  1  0.602000  0.422000  0.516000  1.0
  C  C104  1  0.422000  0.820000  0.016000  1.0
  C  C105  1  0.820000  0.398000  0.516000  1.0
  C  C106  1  0.398000  0.578000  0.016000  1.0
  C  C107  1  0.578000  0.180000  0.516000  1.0
  C  C108  1  0.180000  0.602000  0.016000  1.0
  C  C109  1  0.147000  0.530000  0.417000  1.0
  C  C110  1  0.530000  0.383000  0.917000  1.0
  C  C111  1  0.383000  0.853000  0.417000  1.0
  C  C112  1  0.853000  0.470000  0.917000  1.0
  C  C113  1  0.470000  0.617000  0.417000  1.0
  C  C114  1  0.617000  0.147000  0.917000  1.0
  C  C115  1  0.853000  0.470000  0.583000  1.0
  C  C116  1  0.470000  0.617000  0.083000  1.0
  C  C117  1  0.617000  0.147000  0.583000  1.0
  C  C118  1  0.147000  0.530000  0.083000  1.0
  C  C119  1  0.530000  0.383000  0.583000  1.0
  C  C120  1  0.383000  0.853000  0.083000  1.0
  C  C121  1  0.103000  0.544000  0.393000  1.0
  C  C122  1  0.544000  0.441000  0.893000  1.0
  C  C123  1  0.441000  0.897000  0.393000  1.0
  C  C124  1  0.897000  0.456000  0.893000  1.0
  C  C125  1  0.456000  0.559000  0.393000  1.0
  C  C126  1  0.559000  0.103000  0.893000  1.0
  C  C127  1  0.897000  0.456000  0.607000  1.0
  C  C128  1  0.456000  0.559000  0.107000  1.0
  C  C129  1  0.559000  0.103000  0.607000  1.0
  C  C130  1  0.103000  0.544000  0.107000  1.0
  C  C131  1  0.544000  0.441000  0.607000  1.0
  C  C132  1  0.441000  0.897000  0.107000  1.0
  C  C133  1  0.093000  0.528000  0.358000  1.0
  C  C134  1  0.528000  0.435000  0.858000  1.0
  C  C135  1  0.435000  0.907000  0.358000  1.0
  C  C136  1  0.907000  0.472000  0.858000  1.0
  C  C137  1  0.472000  0.565000  0.358000  1.0
  C  C138  1  0.565000  0.093000  0.858000  1.0
  C  C139  1  0.907000  0.472000  0.642000  1.0
  C  C140  1  0.472000  0.565000  0.142000  1.0
  C  C141  1  0.565000  0.093000  0.642000  1.0
  C  C142  1  0.093000  0.528000  0.142000  1.0
  C  C143  1  0.528000  0.435000  0.642000  1.0
  C  C144  1  0.435000  0.907000  0.142000  1.0
  C  C145  1  0.103000  0.481000  0.340000  1.0
  C  C146  1  0.481000  0.378000  0.840000  1.0
  C  C147  1  0.378000  0.897000  0.340000  1.0
  C  C148  1  0.897000  0.519000  0.840000  1.0
  C  C149  1  0.519000  0.622000  0.340000  1.0
  C  C150  1  0.622000  0.103000  0.840000  1.0
  C  C151  1  0.897000  0.519000  0.660000  1.0
  C  C152  1  0.519000  0.622000  0.160000  1.0
  C  C153  1  0.622000  0.103000  0.660000  1.0
  C  C154  1  0.103000  0.481000  0.160000  1.0
  C  C155  1  0.481000  0.378000  0.660000  1.0
  C  C156  1  0.378000  0.897000  0.160000  1.0
  C  C157  1  0.130000  0.454000  0.359000  1.0
  C  C158  1  0.454000  0.324000  0.859000  1.0
  C  C159  1  0.324000  0.870000  0.359000  1.0
  C  C160  1  0.870000  0.546000  0.859000  1.0
  C  C161  1  0.546000  0.676000  0.359000  1.0
  C  C162  1  0.676000  0.130000  0.859000  1.0
  C  C163  1  0.870000  0.546000  0.641000  1.0
  C  C164  1  0.546000  0.676000  0.141000  1.0
  C  C165  1  0.676000  0.130000  0.641000  1.0
  C  C166  1  0.130000  0.454000  0.141000  1.0
  C  C167  1  0.454000  0.324000  0.641000  1.0
  C  C168  1  0.324000  0.870000  0.141000  1.0
  C  C169  1  0.154000  0.470000  0.400000  1.0
  C  C170  1  0.470000  0.316000  0.900000  1.0
  C  C171  1  0.316000  0.846000  0.400000  1.0
  C  C172  1  0.846000  0.530000  0.900000  1.0
  C  C173  1  0.530000  0.684000  0.400000  1.0
  C  C174  1  0.684000  0.154000  0.900000  1.0
  C  C175  1  0.846000  0.530000  0.600000  1.0
  C  C176  1  0.530000  0.684000  0.100000  1.0
  C  C177  1  0.684000  0.154000  0.600000  1.0
  C  C178  1  0.154000  0.470000  0.100000  1.0
  C  C179  1  0.470000  0.316000  0.600000  1.0
  C  C180  1  0.316000  0.846000  0.100000  1.0
  C  C181  1  0.139000  0.396000  0.340000  1.0
  C  C182  1  0.396000  0.257000  0.840000  1.0
  C  C183  1  0.257000  0.861000  0.340000  1.0
  C  C184  1  0.861000  0.604000  0.840000  1.0
  C  C185  1  0.604000  0.743000  0.340000  1.0
  C  C186  1  0.743000  0.139000  0.840000  1.0
  C  C187  1  0.861000  0.604000  0.660000  1.0
  C  C188  1  0.604000  0.743000  0.160000  1.0
  C  C189  1  0.743000  0.139000  0.660000  1.0
  C  C190  1  0.139000  0.396000  0.160000  1.0
  C  C191  1  0.396000  0.257000  0.660000  1.0
  C  C192  1  0.257000  0.861000  0.160000  1.0
  C  C193  1  0.103000  0.358000  0.307000  1.0
  C  C194  1  0.358000  0.255000  0.807000  1.0
  C  C195  1  0.255000  0.897000  0.307000  1.0
  C  C196  1  0.897000  0.642000  0.807000  1.0
  C  C197  1  0.642000  0.745000  0.307000  1.0
  C  C198  1  0.745000  0.103000  0.807000  1.0
  C  C199  1  0.897000  0.642000  0.693000  1.0
  C  C200  1  0.642000  0.745000  0.193000  1.0
  C  C201  1  0.745000  0.103000  0.693000  1.0
  C  C202  1  0.103000  0.358000  0.193000  1.0
  C  C203  1  0.358000  0.255000  0.693000  1.0
  C  C204  1  0.255000  0.897000  0.193000  1.0
  C  C205  1  0.155000  0.304000  0.302000  1.0
  C  C206  1  0.304000  0.149000  0.802000  1.0
  C  C207  1  0.149000  0.845000  0.302000  1.0
  C  C208  1  0.845000  0.696000  0.802000  1.0
  C  C209  1  0.696000  0.851000  0.302000  1.0
  C  C210  1  0.851000  0.155000  0.802000  1.0
  C  C211  1  0.845000  0.696000  0.698000  1.0
  C  C212  1  0.696000  0.851000  0.198000  1.0
  C  C213  1  0.851000  0.155000  0.698000  1.0
  C  C214  1  0.155000  0.304000  0.198000  1.0
  C  C215  1  0.304000  0.149000  0.698000  1.0
  C  C216  1  0.149000  0.845000  0.198000  1.0
  C  C217  1  0.197000  0.390000  0.354000  1.0
  C  C218  1  0.390000  0.193000  0.854000  1.0
  C  C219  1  0.193000  0.803000  0.354000  1.0
  C  C220  1  0.803000  0.610000  0.854000  1.0
  C  C221  1  0.610000  0.807000  0.354000  1.0
  C  C222  1  0.807000  0.197000  0.854000  1.0
  C  C223  1  0.803000  0.610000  0.646000  1.0
  C  C224  1  0.610000  0.807000  0.146000  1.0
  C  C225  1  0.807000  0.197000  0.646000  1.0
  C  C226  1  0.197000  0.390000  0.146000  1.0
  C  C227  1  0.390000  0.193000  0.646000  1.0
  C  C228  1  0.193000  0.803000  0.146000  1.0
  C  C229  1  0.949000  0.166000  0.224000  1.0
  C  C230  1  0.166000  0.217000  0.724000  1.0
  C  C231  1  0.217000  0.051000  0.224000  1.0
  C  C232  1  0.051000  0.834000  0.724000  1.0
  C  C233  1  0.834000  0.783000  0.224000  1.0
  C  C234  1  0.783000  0.949000  0.724000  1.0
  C  C235  1  0.051000  0.834000  0.776000  1.0
  C  C236  1  0.834000  0.783000  0.276000  1.0
  C  C237  1  0.783000  0.949000  0.776000  1.0
  C  C238  1  0.949000  0.166000  0.276000  1.0
  C  C239  1  0.166000  0.217000  0.776000  1.0
  C  C240  1  0.217000  0.051000  0.276000  1.0
  C  C241  1  0.192000  0.191000  0.407000  1.0
  C  C242  1  0.191000  0.999000  0.907000  1.0
  C  C243  1  0.999000  0.808000  0.407000  1.0
  C  C244  1  0.808000  0.809000  0.907000  1.0
  C  C245  1  0.809000  0.001000  0.407000  1.0
  C  C246  1  0.001000  0.192000  0.907000  1.0
  C  C247  1  0.808000  0.809000  0.593000  1.0
  C  C248  1  0.809000  0.001000  0.093000  1.0
  C  C249  1  0.001000  0.192000  0.593000  1.0
  C  C250  1  0.192000  0.191000  0.093000  1.0
  C  C251  1  0.191000  0.999000  0.593000  1.0
  C  C252  1  0.999000  0.808000  0.093000  1.0
  C  C253  1  0.267000  0.212000  0.395000  1.0
  C  C254  1  0.212000  0.945000  0.895000  1.0
  C  C255  1  0.945000  0.733000  0.395000  1.0
  C  C256  1  0.733000  0.788000  0.895000  1.0
  C  C257  1  0.788000  0.055000  0.395000  1.0
  C  C258  1  0.055000  0.267000  0.895000  1.0
  C  C259  1  0.733000  0.788000  0.605000  1.0
  C  C260  1  0.788000  0.055000  0.105000  1.0
  C  C261  1  0.055000  0.267000  0.605000  1.0
  C  C262  1  0.267000  0.212000  0.105000  1.0
  C  C263  1  0.212000  0.945000  0.605000  1.0
  C  C264  1  0.945000  0.733000  0.105000  1.0
  C  C265  1  0.373000  0.367000  0.313000  1.0
  C  C266  1  0.367000  0.994000  0.813000  1.0
  C  C267  1  0.994000  0.627000  0.313000  1.0
  C  C268  1  0.627000  0.633000  0.813000  1.0
  C  C269  1  0.633000  0.006000  0.313000  1.0
  C  C270  1  0.006000  0.373000  0.813000  1.0
  C  C271  1  0.627000  0.633000  0.687000  1.0
  C  C272  1  0.633000  0.006000  0.187000  1.0
  C  C273  1  0.006000  0.373000  0.687000  1.0
  C  C274  1  0.373000  0.367000  0.187000  1.0
  C  C275  1  0.367000  0.994000  0.687000  1.0
  C  C276  1  0.994000  0.627000  0.187000  1.0
  C  C277  1  0.472000  0.486000  0.313000  1.0
  C  C278  1  0.486000  0.014000  0.813000  1.0
  C  C279  1  0.014000  0.528000  0.313000  1.0
  C  C280  1  0.528000  0.514000  0.813000  1.0
  C  C281  1  0.514000  0.986000  0.313000  1.0
  C  C282  1  0.986000  0.472000  0.813000  1.0
  C  C283  1  0.528000  0.514000  0.687000  1.0
  C  C284  1  0.514000  0.986000  0.187000  1.0
  C  C285  1  0.986000  0.472000  0.687000  1.0
  C  C286  1  0.472000  0.486000  0.187000  1.0
  C  C287  1  0.486000  0.014000  0.687000  1.0
  C  C288  1  0.014000  0.528000  0.187000  1.0
  C  C289  1  0.053000  0.565000  0.347000  1.0
  C  C290  1  0.565000  0.512000  0.847000  1.0
  C  C291  1  0.512000  0.947000  0.347000  1.0
  C  C292  1  0.947000  0.435000  0.847000  1.0
  C  C293  1  0.435000  0.488000  0.347000  1.0
  C  C294  1  0.488000  0.053000  0.847000  1.0
  C  C295  1  0.947000  0.435000  0.653000  1.0
  C  C296  1  0.435000  0.488000  0.153000  1.0
  C  C297  1  0.488000  0.053000  0.653000  1.0
  C  C298  1  0.053000  0.565000  0.153000  1.0
  C  C299  1  0.565000  0.512000  0.653000  1.0
  C  C300  1  0.512000  0.947000  0.153000  1.0
  C  C301  1  0.363000  0.435000  0.357000  1.0
  C  C302  1  0.435000  0.072000  0.857000  1.0
  C  C303  1  0.072000  0.637000  0.357000  1.0
  C  C304  1  0.637000  0.565000  0.857000  1.0
  C  C305  1  0.565000  0.928000  0.357000  1.0
  C  C306  1  0.928000  0.363000  0.857000  1.0
  C  C307  1  0.637000  0.565000  0.643000  1.0
  C  C308  1  0.565000  0.928000  0.143000  1.0
  C  C309  1  0.928000  0.363000  0.643000  1.0
  C  C310  1  0.363000  0.435000  0.143000  1.0
  C  C311  1  0.435000  0.072000  0.643000  1.0
  C  C312  1  0.072000  0.637000  0.143000  1.0
  C  C313  1  0.568000  0.366000  0.227000  1.0
  C  C314  1  0.366000  0.798000  0.727000  1.0
  C  C315  1  0.798000  0.432000  0.227000  1.0
  C  C316  1  0.432000  0.634000  0.727000  1.0
  C  C317  1  0.634000  0.202000  0.227000  1.0
  C  C318  1  0.202000  0.568000  0.727000  1.0
  C  C319  1  0.432000  0.634000  0.773000  1.0
  C  C320  1  0.634000  0.202000  0.273000  1.0
  C  C321  1  0.202000  0.568000  0.773000  1.0
  C  C322  1  0.568000  0.366000  0.273000  1.0
  C  C323  1  0.366000  0.798000  0.773000  1.0
  C  C324  1  0.798000  0.432000  0.273000  1.0
  N  N325  1  0.704000  0.754000  0.750000  1
  N  N326  1  0.754000  0.050000  0.250000  1
  N  N327  1  0.050000  0.296000  0.750000  1
  N  N328  1  0.296000  0.246000  0.250000  1
  N  N329  1  0.246000  0.950000  0.750000  1
  N  N330  1  0.950000  0.704000  0.250000  1
  N  N331  1  0.333333  0.666667  0.458000  1
  N  N332  1  0.666667  0.333333  0.958000  1
  N  N333  1  0.666667  0.333333  0.542000  1
  N  N334  1  0.333333  0.666667  0.042000  1
  N  N335  1  0.284000  0.431000  0.439000  1
  N  N336  1  0.431000  0.147000  0.939000  1
  N  N337  1  0.147000  0.716000  0.439000  1
  N  N338  1  0.716000  0.569000  0.939000  1
  N  N339  1  0.569000  0.853000  0.439000  1
  N  N340  1  0.853000  0.284000  0.939000  1
  N  N341  1  0.716000  0.569000  0.561000  1
  N  N342  1  0.569000  0.853000  0.061000  1
  N  N343  1  0.853000  0.284000  0.561000  1
  N  N344  1  0.284000  0.431000  0.061000  1
  N  N345  1  0.431000  0.147000  0.561000  1
  N  N346  1  0.147000  0.716000  0.061000  1
  N  N347  1  0.491000  0.373000  0.398000  1
  N  N348  1  0.373000  0.882000  0.898000  1
  N  N349  1  0.882000  0.509000  0.398000  1
  N  N350  1  0.509000  0.627000  0.898000  1
  N  N351  1  0.627000  0.118000  0.398000  1
  N  N352  1  0.118000  0.491000  0.898000  1
  N  N353  1  0.509000  0.627000  0.602000  1
  N  N354  1  0.627000  0.118000  0.102000  1
  N  N355  1  0.118000  0.491000  0.602000  1
  N  N356  1  0.491000  0.373000  0.102000  1
  N  N357  1  0.373000  0.882000  0.602000  1
  N  N358  1  0.882000  0.509000  0.102000  1
  N  N359  1  0.675000  0.527000  0.750000  1
  N  N360  1  0.527000  0.852000  0.250000  1
  N  N361  1  0.852000  0.325000  0.750000  1
  N  N362  1  0.325000  0.473000  0.250000  1
  N  N363  1  0.473000  0.148000  0.750000  1
  N  N364  1  0.148000  0.675000  0.250000  1
  N  N365  1  0.221000  0.948000  0.402000  1
  N  N366  1  0.948000  0.727000  0.902000  1
  N  N367  1  0.727000  0.779000  0.402000  1
  N  N368  1  0.779000  0.052000  0.902000  1
  N  N369  1  0.052000  0.273000  0.402000  1
  N  N370  1  0.273000  0.221000  0.902000  1
  N  N371  1  0.779000  0.052000  0.598000  1
  N  N372  1  0.052000  0.273000  0.098000  1
  N  N373  1  0.273000  0.221000  0.598000  1
  N  N374  1  0.221000  0.948000  0.098000  1
  N  N375  1  0.948000  0.727000  0.598000  1
  N  N376  1  0.727000  0.779000  0.098000  1
  N  N377  1  0.360000  0.484000  0.573000  1.0
  N  N378  1  0.484000  0.124000  0.073000  1.0
  N  N379  1  0.124000  0.640000  0.573000  1.0
  N  N380  1  0.640000  0.516000  0.073000  1.0
  N  N381  1  0.516000  0.876000  0.573000  1.0
  N  N382  1  0.876000  0.360000  0.073000  1.0
  N  N383  1  0.640000  0.516000  0.427000  1.0
  N  N384  1  0.516000  0.876000  0.927000  1.0
  N  N385  1  0.876000  0.360000  0.427000  1.0
  N  N386  1  0.360000  0.484000  0.927000  1.0
  N  N387  1  0.484000  0.124000  0.427000  1.0
  N  N388  1  0.124000  0.640000  0.927000  1.0
  N  N389  1  0.219000  0.431000  0.568000  1.0
  N  N390  1  0.431000  0.212000  0.068000  1.0
  N  N391  1  0.212000  0.781000  0.568000  1.0
  N  N392  1  0.781000  0.569000  0.068000  1.0
  N  N393  1  0.569000  0.788000  0.568000  1.0
  N  N394  1  0.788000  0.219000  0.068000  1.0
  N  N395  1  0.781000  0.569000  0.432000  1.0
  N  N396  1  0.569000  0.788000  0.932000  1.0
  N  N397  1  0.788000  0.219000  0.432000  1.0
  N  N398  1  0.219000  0.431000  0.932000  1.0
  N  N399  1  0.431000  0.212000  0.432000  1.0
  N  N400  1  0.212000  0.781000  0.932000  1.0
  N  N401  1  0.385000  0.589000  0.523000  1.0
  N  N402  1  0.589000  0.204000  0.023000  1.0
  N  N403  1  0.204000  0.615000  0.523000  1.0
  N  N404  1  0.615000  0.411000  0.023000  1.0
  N  N405  1  0.411000  0.796000  0.523000  1.0
  N  N406  1  0.796000  0.385000  0.023000  1.0
  N  N407  1  0.615000  0.411000  0.477000  1.0
  N  N408  1  0.411000  0.796000  0.977000  1.0
  N  N409  1  0.796000  0.385000  0.477000  1.0
  N  N410  1  0.385000  0.589000  0.977000  1.0
  N  N411  1  0.589000  0.204000  0.477000  1.0
  N  N412  1  0.204000  0.615000  0.977000  1.0
  N  N413  1  0.233000  0.533000  0.523000  1.0
  N  N414  1  0.533000  0.300000  0.023000  1.0
  N  N415  1  0.300000  0.767000  0.523000  1.0
  N  N416  1  0.767000  0.467000  0.023000  1.0
  N  N417  1  0.467000  0.700000  0.523000  1.0
  N  N418  1  0.700000  0.233000  0.023000  1.0
  N  N419  1  0.767000  0.467000  0.477000  1.0
  N  N420  1  0.467000  0.700000  0.977000  1.0
  N  N421  1  0.700000  0.233000  0.477000  1.0
  N  N422  1  0.233000  0.533000  0.977000  1.0
  N  N423  1  0.533000  0.300000  0.477000  1.0
  N  N424  1  0.300000  0.767000  0.977000  1.0
  N  N425  1  0.192000  0.334000  0.336000  1.0
  N  N426  1  0.334000  0.142000  0.836000  1.0
  N  N427  1  0.142000  0.808000  0.336000  1.0
  N  N428  1  0.808000  0.666000  0.836000  1.0
  N  N429  1  0.666000  0.858000  0.336000  1.0
  N  N430  1  0.858000  0.192000  0.836000  1.0
  N  N431  1  0.808000  0.666000  0.664000  1.0
  N  N432  1  0.666000  0.858000  0.164000  1.0
  N  N433  1  0.858000  0.192000  0.664000  1.0
  N  N434  1  0.192000  0.334000  0.164000  1.0
  N  N435  1  0.334000  0.142000  0.664000  1.0
  N  N436  1  0.142000  0.808000  0.164000  1.0
  N  N437  1  0.112000  0.319000  0.291000  1.0
  N  N438  1  0.319000  0.207000  0.791000  1.0
  N  N439  1  0.207000  0.888000  0.291000  1.0
  N  N440  1  0.888000  0.681000  0.791000  1.0
  N  N441  1  0.681000  0.793000  0.291000  1.0
  N  N442  1  0.793000  0.112000  0.791000  1.0
  N  N443  1  0.888000  0.681000  0.709000  1.0
  N  N444  1  0.681000  0.793000  0.209000  1.0
  N  N445  1  0.793000  0.112000  0.709000  1.0
  N  N446  1  0.112000  0.319000  0.209000  1.0
  N  N447  1  0.319000  0.207000  0.709000  1.0
  N  N448  1  0.207000  0.888000  0.209000  1.0
  N  N449  1  0.986000  0.202000  0.204000  1.0
  N  N450  1  0.202000  0.216000  0.704000  1.0
  N  N451  1  0.216000  0.014000  0.204000  1.0
  N  N452  1  0.014000  0.798000  0.704000  1.0
  N  N453  1  0.798000  0.784000  0.204000  1.0
  N  N454  1  0.784000  0.986000  0.704000  1.0
  N  N455  1  0.014000  0.798000  0.796000  1.0
  N  N456  1  0.798000  0.784000  0.296000  1.0
  N  N457  1  0.784000  0.986000  0.796000  1.0
  N  N458  1  0.986000  0.202000  0.296000  1.0
  N  N459  1  0.202000  0.216000  0.796000  1.0
  N  N460  1  0.216000  0.014000  0.296000  1.0
  N  N461  1  0.174000  0.223000  0.377000  1.0
  N  N462  1  0.223000  0.049000  0.877000  1.0
  N  N463  1  0.049000  0.826000  0.377000  1.0
  N  N464  1  0.826000  0.777000  0.877000  1.0
  N  N465  1  0.777000  0.951000  0.377000  1.0
  N  N466  1  0.951000  0.174000  0.877000  1.0
  N  N467  1  0.826000  0.777000  0.623000  1.0
  N  N468  1  0.777000  0.951000  0.123000  1.0
  N  N469  1  0.951000  0.174000  0.623000  1.0
  N  N470  1  0.174000  0.223000  0.123000  1.0
  N  N471  1  0.223000  0.049000  0.623000  1.0
  N  N472  1  0.049000  0.826000  0.123000  1.0
  N  N473  1  0.314000  0.277000  0.386000  1.0
  N  N474  1  0.277000  0.963000  0.886000  1.0
  N  N475  1  0.963000  0.686000  0.386000  1.0
  N  N476  1  0.686000  0.723000  0.886000  1.0
  N  N477  1  0.723000  0.037000  0.386000  1.0
  N  N478  1  0.037000  0.314000  0.886000  1.0
  N  N479  1  0.686000  0.723000  0.614000  1.0
  N  N480  1  0.723000  0.037000  0.114000  1.0
  N  N481  1  0.037000  0.314000  0.614000  1.0
  N  N482  1  0.314000  0.277000  0.114000  1.0
  N  N483  1  0.277000  0.963000  0.614000  1.0
  N  N484  1  0.963000  0.686000  0.114000  1.0
  N  N485  1  0.345000  0.383000  0.334000  1.0
  N  N486  1  0.383000  0.038000  0.834000  1.0
  N  N487  1  0.038000  0.655000  0.334000  1.0
  N  N488  1  0.655000  0.617000  0.834000  1.0
  N  N489  1  0.617000  0.962000  0.334000  1.0
  N  N490  1  0.962000  0.345000  0.834000  1.0
  N  N491  1  0.655000  0.617000  0.666000  1.0
  N  N492  1  0.617000  0.962000  0.166000  1.0
  N  N493  1  0.962000  0.345000  0.666000  1.0
  N  N494  1  0.345000  0.383000  0.166000  1.0
  N  N495  1  0.383000  0.038000  0.666000  1.0
  N  N496  1  0.038000  0.655000  0.166000  1.0
  N  N497  1  0.436000  0.426000  0.300000  1.0
  N  N498  1  0.426000  0.990000  0.800000  1.0
  N  N499  1  0.990000  0.564000  0.300000  1.0
  N  N500  1  0.564000  0.574000  0.800000  1.0
  N  N501  1  0.574000  0.010000  0.300000  1.0
  N  N502  1  0.010000  0.436000  0.800000  1.0
  N  N503  1  0.564000  0.574000  0.700000  1.0
  N  N504  1  0.574000  0.010000  0.200000  1.0
  N  N505  1  0.010000  0.436000  0.700000  1.0
  N  N506  1  0.436000  0.426000  0.200000  1.0
  N  N507  1  0.426000  0.990000  0.700000  1.0
  N  N508  1  0.990000  0.564000  0.200000  1.0
  N  N509  1  0.527000  0.374000  0.201000  1.0
  N  N510  1  0.374000  0.847000  0.701000  1.0
  N  N511  1  0.847000  0.473000  0.201000  1.0
  N  N512  1  0.473000  0.626000  0.701000  1.0
  N  N513  1  0.626000  0.153000  0.201000  1.0
  N  N514  1  0.153000  0.527000  0.701000  1.0
  N  N515  1  0.473000  0.626000  0.799000  1.0
  N  N516  1  0.626000  0.153000  0.299000  1.0
  N  N517  1  0.153000  0.527000  0.799000  1.0
  N  N518  1  0.527000  0.374000  0.299000  1.0
  N  N519  1  0.374000  0.847000  0.799000  1.0
  N  N520  1  0.847000  0.473000  0.299000  1.0
  O  O521  1  0.317000  0.610000  0.416000  1
  O  O522  1  0.610000  0.293000  0.916000  1
  O  O523  1  0.293000  0.683000  0.416000  1
  O  O524  1  0.683000  0.390000  0.916000  1
  O  O525  1  0.390000  0.707000  0.416000  1
  O  O526  1  0.707000  0.317000  0.916000  1
  O  O527  1  0.683000  0.390000  0.584000  1
  O  O528  1  0.390000  0.707000  0.084000  1
  O  O529  1  0.707000  0.317000  0.584000  1
  O  O530  1  0.317000  0.610000  0.084000  1
  O  O531  1  0.610000  0.293000  0.584000  1
  O  O532  1  0.293000  0.683000  0.084000  1
  O  O533  1  0.307000  0.551000  0.353000  1
  O  O534  1  0.551000  0.244000  0.853000  1
  O  O535  1  0.244000  0.693000  0.353000  1
  O  O536  1  0.693000  0.449000  0.853000  1
  O  O537  1  0.449000  0.756000  0.353000  1
  O  O538  1  0.756000  0.307000  0.853000  1
  O  O539  1  0.693000  0.449000  0.647000  1
  O  O540  1  0.449000  0.756000  0.147000  1
  O  O541  1  0.756000  0.307000  0.647000  1
  O  O542  1  0.307000  0.551000  0.147000  1
  O  O543  1  0.551000  0.244000  0.647000  1
  O  O544  1  0.244000  0.693000  0.147000  1
  O  O545  1  0.666667  0.333367  0.385000  1
  O  O546  1  0.333367  0.666700  0.885000  1
  O  O547  1  0.333333  0.666633  0.615000  1
  O  O548  1  0.666633  0.333300  0.115000  1
  O  O549  1  0.737000  0.631000  0.750000  1
  O  O550  1  0.631000  0.894000  0.250000  1
  O  O551  1  0.894000  0.263000  0.750000  1
  O  O552  1  0.263000  0.369000  0.250000  1
  O  O553  1  0.369000  0.106000  0.750000  1
  O  O554  1  0.106000  0.737000  0.250000  1
  O  O555  1  0.266000  0.388000  0.466000  1
  O  O556  1  0.388000  0.122000  0.966000  1
  O  O557  1  0.122000  0.734000  0.466000  1
  O  O558  1  0.734000  0.612000  0.966000  1
  O  O559  1  0.612000  0.878000  0.466000  1
  O  O560  1  0.878000  0.266000  0.966000  1
  O  O561  1  0.734000  0.612000  0.534000  1
  O  O562  1  0.612000  0.878000  0.034000  1
  O  O563  1  0.878000  0.266000  0.534000  1
  O  O564  1  0.266000  0.388000  0.034000  1
  O  O565  1  0.388000  0.122000  0.534000  1
  O  O566  1  0.122000  0.734000  0.034000  1
  O  O567  1  0.527000  0.421000  0.374000  1
  O  O568  1  0.421000  0.894000  0.874000  1
  O  O569  1  0.894000  0.473000  0.374000  1
  O  O570  1  0.473000  0.579000  0.874000  1
  O  O571  1  0.579000  0.106000  0.374000  1
  O  O572  1  0.106000  0.527000  0.874000  1
  O  O573  1  0.473000  0.579000  0.626000  1
  O  O574  1  0.579000  0.106000  0.126000  1
  O  O575  1  0.106000  0.527000  0.626000  1
  O  O576  1  0.527000  0.421000  0.126000  1
  O  O577  1  0.421000  0.894000  0.626000  1
  O  O578  1  0.894000  0.473000  0.126000  1
  O  O579  1  0.758000  0.562000  0.750000  1
  O  O580  1  0.562000  0.804000  0.250000  1
  O  O581  1  0.804000  0.242000  0.750000  1
  O  O582  1  0.242000  0.438000  0.250000  1
  O  O583  1  0.438000  0.196000  0.750000  1
  O  O584  1  0.196000  0.758000  0.250000  1
  O  O585  1  0.178000  0.958000  0.368000  1
  O  O586  1  0.958000  0.780000  0.868000  1
  O  O587  1  0.780000  0.822000  0.368000  1
  O  O588  1  0.822000  0.042000  0.868000  1
  O  O589  1  0.042000  0.220000  0.368000  1
  O  O590  1  0.220000  0.178000  0.868000  1
  O  O591  1  0.822000  0.042000  0.632000  1
  O  O592  1  0.042000  0.220000  0.132000  1
  O  O593  1  0.220000  0.178000  0.632000  1
  O  O594  1  0.178000  0.958000  0.132000  1
  O  O595  1  0.958000  0.780000  0.632000  1
  O  O596  1  0.780000  0.822000  0.132000  1
  O  O597  1  0.769000  0.775000  0.775000  1.0
  O  O598  1  0.775000  0.006000  0.275000  1.0
  O  O599  1  0.006000  0.231000  0.775000  1.0
  O  O600  1  0.231000  0.225000  0.275000  1.0
  O  O601  1  0.225000  0.994000  0.775000  1.0
  O  O602  1  0.994000  0.769000  0.275000  1.0
  O  O603  1  0.231000  0.225000  0.225000  1.0
  O  O604  1  0.225000  0.994000  0.725000  1.0
  O  O605  1  0.994000  0.769000  0.225000  1.0
  O  O606  1  0.769000  0.775000  0.725000  1.0
  O  O607  1  0.775000  0.006000  0.225000  1.0
  O  O608  1  0.006000  0.231000  0.725000  1.0
