# generated using pymatgen
data_Cu2H21C23S2(NO10)2
_symmetry_space_group_name_H-M   'P 1'
_cell_length_a   9.97110000
_cell_length_b   20.49188029
_cell_length_c   20.49188029
_cell_angle_alpha   117.42187497
_cell_angle_beta   99.33438008
_cell_angle_gamma   99.33438008
_symmetry_Int_Tables_number   1
_chemical_formula_structural   Cu2H21C23S2(NO10)2
_chemical_formula_sum   'Cu6 H63 C69 S6 N6 O60'
_cell_volume   3530.68633791
_cell_formula_units_Z   3
loop_
 _symmetry_equiv_pos_site_id
 _symmetry_equiv_pos_as_xyz
  1  'x, y, z'
loop_
 _atom_site_type_symbol
 _atom_site_label
 _atom_site_symmetry_multiplicity
 _atom_site_fract_x
 _atom_site_fract_y
 _atom_site_fract_z
 _atom_site_occupancy
  C  C1  1  0.259000  0.839800  0.674200  1
  C  C2  1  0.419200  0.834400  0.160200  1
  C  C3  1  0.584800  0.325800  0.165600  1
  C  C4  1  0.569000  0.692000  0.804000  1
  C  C5  1  0.877000  0.112000  0.308000  1
  C  C6  1  0.765000  0.196000  0.888000  1
  C  C7  1  0.326700  0.132800  0.529000  1.0
  C  C8  1  0.193900  0.396200  0.867200  1.0
  C  C9  1  0.797700  0.471000  0.603800  1.0
  C  C10  1  0.382800  0.219000  0.572100  1.0
  C  C11  1  0.163800  0.353100  0.781000  1.0
  C  C12  1  0.810700  0.427900  0.646900  1.0
  C  C13  1  0.388600  0.258600  0.533700  1.0
  C  C14  1  0.130000  0.275100  0.741400  1.0
  C  C15  1  0.854900  0.466300  0.724900  1.0
  C  C16  1  0.427500  0.339200  0.577000  1.0
  C  C17  1  0.088300  0.237800  0.660800  1.0
  C  C18  1  0.850500  0.423000  0.762200  1.0
  C  C19  1  0.468800  0.377700  0.655500  1.0
  C  C20  1  0.091100  0.277800  0.622300  1.0
  C  C21  1  0.813300  0.344500  0.722200  1.0
  C  C22  1  0.473800  0.332900  0.689200  1.0
  C  C23  1  0.140900  0.356300  0.667100  1.0
  C  C24  1  0.784600  0.310800  0.643700  1.0
  C  C25  1  0.428300  0.255600  0.648900  1.0
  C  C26  1  0.172700  0.393300  0.744400  1.0
  C  C27  1  0.779400  0.351100  0.606700  1.0
  C  C28  1  0.431400  0.385400  0.536200  1.0
  C  C29  1  0.046000  0.150800  0.614600  1.0
  C  C30  1  0.895200  0.463800  0.849200  1.0
  C  C31  1  0.072400  0.909800  0.220400  1.0
  C  C32  1  0.162600  0.310600  0.090200  1.0
  C  C33  1  0.852000  0.779600  0.689400  1.0
  C  C34  1  0.385700  0.525700  0.391400  1.0
  C  C35  1  0.860000  0.865700  0.474300  1.0
  C  C36  1  0.994300  0.608600  0.134300  1.0
  C  C37  1  0.384300  0.571700  0.353500  1.0
  C  C38  1  0.812600  0.781800  0.428300  1.0
  C  C39  1  0.030800  0.646500  0.218200  1.0
  C  C40  1  0.352700  0.537100  0.276200  1.0
  C  C41  1  0.815600  0.739100  0.462900  1.0
  C  C42  1  0.076500  0.723800  0.260900  1.0
  C  C43  1  0.339400  0.577600  0.235100  1.0
  C  C44  1  0.761800  0.657500  0.422400  1.0
  C  C45  1  0.104300  0.764900  0.342500  1.0
  C  C46  1  0.378000  0.655700  0.277900  1.0
  C  C47  1  0.722300  0.622200  0.344300  1.0
  C  C48  1  0.100100  0.722100  0.377800  1.0
  C  C49  1  0.421000  0.690600  0.357000  1.0
  C  C50  1  0.730400  0.666400  0.309400  1.0
  C  C51  1  0.064000  0.643000  0.333600  1.0
  C  C52  1  0.414700  0.649700  0.393400  1.0
  C  C53  1  0.765000  0.743700  0.350300  1.0
  C  C54  1  0.021300  0.606600  0.256300  1.0
  C  C55  1  0.153400  0.850300  0.385500  1.0
  C  C56  1  0.303100  0.535200  0.149700  1.0
  C  C57  1  0.767900  0.614500  0.464800  1.0
  C  C58  1  0.101900  0.498300  0.458400  1.0
  C  C59  1  0.603600  0.960100  0.501700  1.0
  C  C60  1  0.643500  0.541600  0.039900  1.0
  C  C61  1  0.931000  0.351400  0.374600  1.0
  C  C62  1  0.579600  0.023200  0.648600  1.0
  C  C63  1  0.556400  0.625400  0.976800  1.0
  C  C64  1  0.681600  0.002100  0.402000  1.0
  C  C65  1  0.679500  0.399900  0.997900  1.0
  C  C66  1  0.279600  0.598000  0.600100  1.0
  C  C67  1  0.516900  0.080900  0.359800  1.0
  C  C68  1  0.436000  0.278900  0.919100  1.0
  C  C69  1  0.157100  0.640200  0.721100  1.0
  Cu  Cu70  1  0.210980  0.993130  0.400350  1.0
  Cu  Cu71  1  0.217850  0.407220  0.006870  1.0
  Cu  Cu72  1  0.810630  0.599650  0.592780  1.0
  Cu  Cu73  1  0.383620  0.399120  0.406050  1.0
  Cu  Cu74  1  0.984500  0.006930  0.600880  1.0
  Cu  Cu75  1  0.977570  0.593950  0.993070  1.0
  H  H76  1  0.367200  0.232700  0.479500  1.0
  H  H77  1  0.134500  0.246800  0.767300  1.0
  H  H78  1  0.887700  0.520500  0.753200  1.0
  H  H79  1  0.492300  0.431800  0.684800  1.0
  H  H80  1  0.060500  0.253000  0.568200  1.0
  H  H81  1  0.807500  0.315200  0.747000  1.0
  H  H82  1  0.428400  0.227100  0.674700  1.0
  H  H83  1  0.201300  0.447600  0.772900  1.0
  H  H84  1  0.753700  0.325300  0.552400  1.0
  H  H85  1  0.056800  0.910500  0.172300  1.0
  H  H86  1  0.146300  0.261800  0.089500  1.0
  H  H87  1  0.884500  0.827700  0.738200  1.0
  H  H88  1  0.981200  0.897400  0.230100  1.0
  H  H89  1  0.083800  0.332700  0.102600  1.0
  H  H90  1  0.751100  0.769900  0.667300  1.0
  H  H91  1  0.122000  0.871300  0.217200  1.0
  H  H92  1  0.250700  0.345900  0.128700  1.0
  H  H93  1  0.904800  0.782800  0.654100  1.0
  H  H94  1  0.338700  0.483500  0.247900  1.0
  H  H95  1  0.855200  0.764400  0.516500  1.0
  H  H96  1  0.090800  0.752100  0.235600  1.0
  H  H97  1  0.375500  0.685800  0.253800  1.0
  H  H98  1  0.689700  0.568000  0.314200  1.0
  H  H99  1  0.121700  0.746200  0.432000  1.0
  H  H100  1  0.431600  0.675600  0.447300  1.0
  H  H101  1  0.756000  0.771700  0.324400  1.0
  H  H102  1  0.984300  0.552700  0.228300  1.0
  H  H103  1  0.187600  0.538200  0.471600  1.0
  H  H104  1  0.649400  0.933400  0.461800  1.0
  H  H105  1  0.716000  0.528400  0.066600  1.0
  H  H106  1  0.099600  0.490900  0.502100  1.0
  H  H107  1  0.608700  0.011200  0.509100  1.0
  H  H108  1  0.597500  0.497900  0.988800  1.0
  H  H109  1  0.018700  0.513900  0.445200  1.0
  H  H110  1  0.504800  0.931300  0.486100  1.0
  H  H111  1  0.573500  0.554800  0.068700  1.0
  H  H112  1  0.894900  0.301400  0.328300  1.0
  H  H113  1  0.593500  0.026900  0.698600  1.0
  H  H114  1  0.566600  0.671700  0.973100  1.0
  H  H115  1  0.862200  0.381300  0.378000  1.0
  H  H116  1  0.480900  0.996700  0.618700  1.0
  H  H117  1  0.484200  0.622000  0.003300  1.0
  H  H118  1  0.947200  0.344800  0.419600  1.0
  H  H119  1  0.602400  0.074800  0.655200  1.0
  H  H120  1  0.527600  0.580400  0.925200  1.0
  H  H121  1  0.709300  0.977300  0.431000  1.0
  H  H122  1  0.732000  0.453700  0.022700  1.0
  H  H123  1  0.278300  0.569000  0.546300  1.0
  H  H124  1  0.759500  0.046100  0.415900  1.0
  H  H125  1  0.713400  0.369800  0.953900  1.0
  H  H126  1  0.343600  0.584100  0.630200  1.0
  H  H127  1  0.659600  0.965800  0.347100  1.0
  H  H128  1  0.693800  0.381300  0.034200  1.0
  H  H129  1  0.312500  0.652900  0.618700  1.0
  H  H130  1  0.427100  0.094300  0.353900  1.0
  H  H131  1  0.332800  0.259600  0.905700  1.0
  H  H132  1  0.073200  0.646100  0.740400  1.0
  H  H133  1  0.524100  0.044200  0.309500  1.0
  H  H134  1  0.479900  0.265300  0.955800  1.0
  H  H135  1  0.214600  0.690500  0.734700  1.0
  H  H136  1  0.595300  0.126900  0.383100  1.0
  H  H137  1  0.468400  0.256200  0.873100  1.0
  H  H138  1  0.212200  0.616900  0.743800  1.0
  N  N139  1  0.513800  0.369300  0.774600  1.0
  N  N140  1  0.144500  0.405300  0.630700  1.0
  N  N141  1  0.739200  0.225400  0.594700  1.0
  N  N142  1  0.449900  0.773400  0.400200  1.0
  N  N143  1  0.676500  0.626800  0.226600  1.0
  N  N144  1  0.049700  0.599800  0.373200  1.0
  O  O145  1  0.152900  0.804800  0.600600  1
  O  O146  1  0.348100  0.795800  0.195200  1
  O  O147  1  0.552300  0.399400  0.204200  1
  O  O148  1  0.568100  0.613300  0.787000  1
  O  O149  1  0.954800  0.173700  0.386700  1
  O  O150  1  0.781100  0.213000  0.826300  1
  O  O151  1  0.027900  0.001800  0.422100  1.0
  O  O152  1  0.026100  0.420300  0.998200  1.0
  O  O153  1  0.605800  0.577900  0.579700  1.0
  O  O154  1  0.280200  0.105100  0.457100  1.0
  O  O155  1  0.175100  0.352000  0.894900  1.0
  O  O156  1  0.823100  0.542900  0.648000  1.0
  O  O157  1  0.334700  0.097600  0.565400  1.0
  O  O158  1  0.237100  0.467800  0.902400  1.0
  O  O159  1  0.769300  0.434600  0.532200  1.0
  O  O160  1  0.529700  0.329200  0.801500  1.0
  O  O161  1  0.200500  0.472300  0.670800  1.0
  O  O162  1  0.728200  0.198500  0.527700  1.0
  O  O163  1  0.538000  0.437600  0.807700  1.0
  O  O164  1  0.100400  0.370100  0.562400  1.0
  O  O165  1  0.730300  0.192300  0.629900  1.0
  O  O166  1  0.399900  0.349900  0.467000  1.0
  O  O167  1  0.050000  0.117100  0.650100  1.0
  O  O168  1  0.932900  0.533000  0.882900  1.0
  O  O169  1  0.475100  0.456200  0.580600  1.0
  O  O170  1  0.018900  0.124400  0.543800  1.0
  O  O171  1  0.894500  0.419400  0.875600  1.0
  O  O172  1  0.167400  0.993400  0.289800  1.0
  O  O173  1  0.174000  0.296400  0.006600  1.0
  O  O174  1  0.877600  0.710200  0.703600  1.0
  O  O175  1  0.587800  0.420800  0.416500  1.0
  O  O176  1  0.167000  0.995700  0.579200  1.0
  O  O177  1  0.171300  0.583500  0.004300  1.0
  O  O178  1  0.372800  0.455600  0.352300  1.0
  O  O179  1  0.917200  0.896700  0.544400  1.0
  O  O180  1  0.020500  0.647700  0.103300  1.0
  O  O181  1  0.425500  0.563900  0.461800  1.0
  O  O182  1  0.861600  0.897900  0.436100  1.0
  O  O183  1  0.963700  0.538200  0.102100  1.0
  O  O184  1  0.474400  0.805300  0.470300  1.0
  O  O185  1  0.669100  0.665000  0.194700  1.0
  O  O186  1  0.004100  0.529700  0.335000  1.0
  O  O187  1  0.466300  0.809000  0.367300  1.0
  O  O188  1  0.657300  0.558300  0.191000  1.0
  O  O189  1  0.099000  0.632700  0.441700  1.0
  O  O190  1  0.144000  0.884500  0.350400  1.0
  O  O191  1  0.259500  0.465900  0.115500  1.0
  O  O192  1  0.793600  0.649600  0.534100  1.0
  O  O193  1  0.192000  0.881100  0.456100  1.0
  O  O194  1  0.310900  0.575000  0.118900  1.0
  O  O195  1  0.735900  0.543900  0.425000  1.0
  O  O196  1  0.346700  0.287500  0.293600  1.0
  O  O197  1  0.059200  0.006100  0.712500  1.0
  O  O198  1  0.053100  0.706400  0.993900  1.0
  O  O199  1  0.198500  0.374900  0.394600  1.0
  O  O200  1  0.823600  0.019700  0.625100  1.0
  O  O201  1  0.803900  0.605400  0.980300  1.0
  O  O202  1  0.402900  0.984300  0.398800  1.0
  O  O203  1  0.418600  0.414500  0.015700  1.0
  O  O204  1  0.004100  0.601200  0.585500  1.0
  S  S205  1  0.104000  0.404300  0.372700  1.0
  S  S206  1  0.699700  0.968400  0.595700  1.0
  S  S207  1  0.731300  0.627300  0.031600  1.0
  S  S208  1  0.522100  0.035300  0.424900  1.0
  S  S209  1  0.486800  0.389600  0.964700  1.0
  S  S210  1  0.097200  0.575100  0.610400  1.0
