# generated using pymatgen
data_H32PtC44N6(OF)8
_symmetry_space_group_name_H-M   'P 1'
_cell_length_a   9.60300000
_cell_length_b   13.48400000
_cell_length_c   17.82800000
_cell_angle_alpha   88.62100000
_cell_angle_beta   82.88400000
_cell_angle_gamma   70.38200000
_symmetry_Int_Tables_number   1
_chemical_formula_structural   H32PtC44N6(OF)8
_chemical_formula_sum   'H64 Pt2 C88 N12 O16 F16'
_cell_volume   2157.35972610
_cell_formula_units_Z   2
loop_
 _symmetry_equiv_pos_site_id
 _symmetry_equiv_pos_as_xyz
  1  'x, y, z'
loop_
 _atom_site_type_symbol
 _atom_site_label
 _atom_site_symmetry_multiplicity
 _atom_site_fract_x
 _atom_site_fract_y
 _atom_site_fract_z
 _atom_site_occupancy
  H  H1  1  0.652500  0.557900  0.970600  1
  H  H2  1  0.347500  0.442100  0.029400  1
  H  H3  1  0.735900  0.633600  0.960700  1
  H  H4  1  0.264100  0.366400  0.039300  1
  H  H5  1  0.415000  0.880400  0.971200  1
  H  H6  1  0.585000  0.119600  0.028800  1
  H  H7  1  0.333100  0.812400  0.008200  1
  H  H8  1  0.666900  0.187600  0.991800  1
  H  H9  1  0.664000  0.646000  0.083600  1
  H  H10  1  0.336000  0.354000  0.916400  1
  H  H11  1  0.503100  0.642100  0.070700  1
  H  H12  1  0.496900  0.357900  0.929300  1
  H  H13  1  0.473700  0.817500  0.095000  1
  H  H14  1  0.526300  0.182500  0.905000  1
  H  H15  1  0.610500  0.812900  0.031900  1
  H  H16  1  0.389500  0.187100  0.968100  1
  H  H17  1  0.519200  0.776500  0.740000  1
  H  H18  1  0.480800  0.223500  0.260000  1
  H  H19  1  0.376400  0.889500  0.658400  1
  H  H20  1  0.623600  0.110500  0.341600  1
  H  H21  1  0.030900  0.952900  0.820800  1
  H  H22  1  0.969100  0.047100  0.179200  1
  H  H23  1  0.179700  0.839900  0.899300  1
  H  H24  1  0.820300  0.160100  0.100700  1
  H  H25  1  0.990200  0.008800  0.688500  1
  H  H26  1  0.009800  0.991200  0.311500  1
  H  H27  1  0.067900  0.091200  0.708000  1
  H  H28  1  0.932100  0.908800  0.292000  1
  H  H29  1  0.488700  0.882000  0.364100  1
  H  H30  1  0.511300  0.118000  0.635900  1
  H  H31  1  0.432900  0.011900  0.159700  1
  H  H32  1  0.567100  0.988100  0.840300  1
  H  H33  1  0.232600  0.151100  0.213100  1
  H  H34  1  0.767400  0.848900  0.786900  1
  H  H35  1  0.159500  0.160700  0.343200  1
  H  H36  1  0.840500  0.839300  0.656800  1
  H  H37  1  0.588000  0.731200  0.290600  1
  H  H38  1  0.412000  0.268800  0.709400  1
  H  H39  1  0.965600  0.638300  0.145300  1
  H  H40  1  0.034400  0.361700  0.854700  1
  H  H41  1  0.915200  0.810600  0.104800  1
  H  H42  1  0.084800  0.189400  0.895200  1
  H  H43  1  0.699500  0.940500  0.152000  1
  H  H44  1  0.300500  0.059500  0.848000  1
  H  H45  1  0.754300  0.589600  0.360500  1
  H  H46  1  0.245700  0.410400  0.639500  1
  H  H47  1  0.880800  0.279200  0.308200  1
  H  H48  1  0.119200  0.720800  0.691800  1
  H  H49  1  0.922900  0.315400  0.180700  1
  H  H50  1  0.077100  0.684600  0.819300  1
  H  H51  1  0.882400  0.488900  0.144000  1
  H  H52  1  0.117600  0.511100  0.856000  1
  H  H53  1  0.414200  0.549900  0.825100  1
  H  H54  1  0.585800  0.450100  0.174900  1
  H  H55  1  0.512300  0.410200  0.741900  1
  H  H56  1  0.487700  0.589800  0.258100  1
  H  H57  1  0.898500  0.470100  0.716000  1
  H  H58  1  0.101500  0.529900  0.284000  1
  H  H59  1  0.786500  0.613000  0.793800  1
  H  H60  1  0.213500  0.387000  0.206200  1
  H  H61  1  0.722500  0.281400  0.677500  1
  H  H62  1  0.277500  0.718600  0.322500  1
  H  H63  1  0.884000  0.290200  0.679700  1
  H  H64  1  0.116000  0.709800  0.320300  1
  Pt  Pt65  1  0.505930  0.709290  0.899220  1
  Pt  Pt66  1  0.494070  0.290710  0.100780  1
  C  C67  1  0.584300  0.668600  0.050200  1
  C  C68  1  0.415700  0.331400  0.949800  1
  C  C69  1  0.526900  0.785900  0.045600  1
  C  C70  1  0.473100  0.214100  0.954400  1
  C  C71  1  0.418200  0.814800  0.757800  1
  C  C72  1  0.581800  0.185200  0.242200  1
  C  C73  1  0.334500  0.882000  0.708500  1
  C  C74  1  0.665500  0.118000  0.291500  1
  C  C75  1  0.186200  0.939000  0.734100  1
  C  C76  1  0.813800  0.061000  0.265900  1
  C  C77  1  0.133300  0.919000  0.803400  1
  C  C78  1  0.866700  0.081000  0.196600  1
  C  C79  1  0.222000  0.851100  0.850200  1
  C  C80  1  0.778000  0.148900  0.149800  1
  C  C81  1  0.087100  0.020500  0.686000  1
  C  C82  1  0.912900  0.979500  0.314000  1
  C  C83  1  0.149200  0.019600  0.604700  1
  C  C84  1  0.850800  0.980400  0.395300  1
  C  C85  1  0.149300  0.943900  0.552900  1
  C  C86  1  0.850700  0.056100  0.447100  1
  C  C87  1  0.201900  0.946000  0.478900  1
  C  C88  1  0.798100  0.054000  0.521100  1
  C  C89  1  0.259700  0.020700  0.449900  1
  C  C90  1  0.740300  0.979300  0.550100  1
  C  C91  1  0.261000  0.096500  0.500000  1
  C  C92  1  0.739000  0.903500  0.500000  1
  C  C93  1  0.208400  0.093800  0.575200  1
  C  C94  1  0.791600  0.906200  0.424800  1
  C  C95  1  0.313500  0.021300  0.366000  1
  C  C96  1  0.686500  0.978700  0.634000  1
  C  C97  1  0.437800  0.937700  0.333400  1
  C  C98  1  0.562200  0.062300  0.666600  1
  C  C99  1  0.485100  0.936400  0.258300  1
  C  C100  1  0.514900  0.063600  0.741700  1
  C  C101  1  0.404700  0.015100  0.212800  1
  C  C102  1  0.595300  0.984900  0.787200  1
  C  C103  1  0.285200  0.097000  0.244400  1
  C  C104  1  0.714800  0.903000  0.755600  1
  C  C105  1  0.240100  0.102200  0.321400  1
  C  C106  1  0.759900  0.897800  0.678600  1
  C  C107  1  0.620500  0.848800  0.224800  1
  C  C108  1  0.379500  0.151200  0.775200  1
  C  C109  1  0.654300  0.746300  0.251500  1
  C  C110  1  0.345700  0.253700  0.748500  1
  C  C111  1  0.782000  0.665800  0.222500  1
  C  C112  1  0.218000  0.334200  0.777500  1
  C  C113  1  0.877700  0.691600  0.166700  1
  C  C114  1  0.122300  0.308400  0.833300  1
  C  C115  1  0.846800  0.794100  0.141900  1
  C  C116  1  0.153200  0.205900  0.858100  1
  C  C117  1  0.720000  0.870800  0.170100  1
  C  C118  1  0.280000  0.129200  0.829900  1
  C  C119  1  0.813000  0.556500  0.248900  1
  C  C120  1  0.187000  0.443500  0.751100  1
  C  C121  1  0.789300  0.534000  0.323800  1
  C  C122  1  0.210700  0.466000  0.676200  1
  C  C123  1  0.816000  0.430400  0.346900  1
  C  C124  1  0.184000  0.569600  0.653100  1
  C  C125  1  0.864500  0.349700  0.292900  1
  C  C126  1  0.135500  0.650300  0.707100  1
  C  C127  1  0.889200  0.370900  0.217400  1
  C  C128  1  0.110800  0.629100  0.782600  1
  C  C129  1  0.864300  0.474000  0.195900  1
  C  C130  1  0.135700  0.526000  0.804100  1
  C  C131  1  0.801500  0.407000  0.429100  1
  C  C132  1  0.198500  0.593000  0.570900  1
  C  C133  1  0.682100  0.390900  0.468000  1
  C  C134  1  0.317900  0.609100  0.532000  1
  C  C135  1  0.673000  0.368400  0.545000  1
  C  C136  1  0.327000  0.631600  0.455000  1
  C  C137  1  0.788800  0.357300  0.583900  1
  C  C138  1  0.211200  0.642700  0.416100  1
  C  C139  1  0.910500  0.374300  0.545600  1
  C  C140  1  0.089500  0.625700  0.454400  1
  C  C141  1  0.920400  0.395200  0.469600  1
  C  C142  1  0.079600  0.604800  0.530400  1
  C  C143  1  0.514300  0.533600  0.802200  1
  C  C144  1  0.485700  0.466400  0.197800  1
  C  C145  1  0.572300  0.450200  0.752800  1
  C  C146  1  0.427700  0.549800  0.247200  1
  C  C147  1  0.714500  0.423600  0.719000  1
  C  C148  1  0.285500  0.576400  0.281000  1
  C  C149  1  0.797400  0.486000  0.737000  1
  C  C150  1  0.202600  0.514000  0.263000  1
  C  C151  1  0.730700  0.569000  0.784800  1
  C  C152  1  0.269300  0.431000  0.215200  1
  C  C153  1  0.781900  0.328800  0.667800  1
  C  C154  1  0.218100  0.671200  0.332200  1
  N  N155  1  0.643000  0.628000  0.973200  1
  N  N156  1  0.357000  0.372000  0.026800  1
  N  N157  1  0.425400  0.813400  0.987800  1
  N  N158  1  0.574600  0.186600  0.012200  1
  N  N159  1  0.368400  0.799500  0.828200  1
  N  N160  1  0.631600  0.200500  0.171800  1
  N  N161  1  0.593100  0.594100  0.820200  1
  N  N162  1  0.406900  0.405900  0.179800  1
  N  N163  1  0.217000  0.643200  0.022200  1
  N  N164  1  0.783000  0.356800  0.977800  1
  N  N165  1  0.198700  0.043900  0.055600  1
  N  N166  1  0.801300  0.956100  0.944400  1
  O  O167  1  0.207900  0.593600  0.967400  1
  O  O168  1  0.792100  0.406400  0.032600  1
  O  O169  1  0.163600  0.741300  0.018900  1
  O  O170  1  0.836400  0.258700  0.981100  1
  O  O171  1  0.276700  0.600200  0.075100  1
  O  O172  1  0.723300  0.399800  0.924900  1
  O  O173  1  0.301800  0.040600  0.007000  1
  O  O174  1  0.698200  0.959400  0.993000  1
  O  O175  1  0.124900  0.129500  0.089500  1
  O  O176  1  0.875100  0.870500  0.910500  1
  O  O177  1  0.167800  0.963800  0.072700  1
  O  O178  1  0.832200  0.036200  0.927300  1
  O  O179  1  0.097000  0.326100  0.050400  1
  O  O180  1  0.903000  0.673900  0.949600  1
  O  O181  1  0.785600  0.201900  0.815900  1
  O  O182  1  0.214400  0.798100  0.184100  1
  F  F183  1  0.094600  0.868100  0.577500  1
  F  F184  1  0.905400  0.131900  0.422500  1
  F  F185  1  0.194600  0.870500  0.431800  1
  F  F186  1  0.805400  0.129500  0.568200  1
  F  F187  1  0.316100  0.171900  0.476100  1
  F  F188  1  0.683900  0.828100  0.523900  1
  F  F189  1  0.216400  0.169500  0.621000  1
  F  F190  1  0.783600  0.830500  0.379000  1
  F  F191  1  0.562500  0.397100  0.430400  1
  F  F192  1  0.437500  0.602900  0.569600  1
  F  F193  1  0.549000  0.352200  0.577500  1
  F  F194  1  0.451000  0.647800  0.422500  1
  F  F195  1  0.029900  0.364100  0.581900  1
  F  F196  1  0.970100  0.635900  0.418100  1
  F  F197  1  0.045500  0.407400  0.434900  1
  F  F198  1  0.954500  0.592600  0.565100  1
