# generated using pymatgen
data_H68Pd2C107N15(O9F8)2
_symmetry_space_group_name_H-M   'P 1'
_cell_length_a   11.65950000
_cell_length_b   12.03870000
_cell_length_c   20.20900000
_cell_angle_alpha   82.50800000
_cell_angle_beta   83.35200000
_cell_angle_gamma   68.84100000
_symmetry_Int_Tables_number   1
_chemical_formula_structural   H68Pd2C107N15(O9F8)2
_chemical_formula_sum   'H68 Pd2 C107 N15 O18 F16'
_cell_volume   2615.56668773
_cell_formula_units_Z   1
loop_
 _symmetry_equiv_pos_site_id
 _symmetry_equiv_pos_as_xyz
  1  'x, y, z'
loop_
 _atom_site_type_symbol
 _atom_site_label
 _atom_site_symmetry_multiplicity
 _atom_site_fract_x
 _atom_site_fract_y
 _atom_site_fract_z
 _atom_site_occupancy
  H  H1  1  0.070400  0.214800  0.977800  1
  H  H2  1  0.950500  0.114700  0.085000  1
  H  H3  1  0.137000  0.027000  0.132000  1
  H  H4  1  0.213000  0.029000  0.063000  1
  H  H5  1  0.180000  0.170000  0.155000  1
  H  H6  1  0.250000  0.182000  0.083000  1
  H  H7  1  0.130000  0.340000  0.077000  1
  H  H8  1  0.050000  0.320000  0.140000  1
  H  H9  1  0.898000  0.339000  0.081000  1
  H  H10  1  0.967000  0.399000  0.024000  1
  H  H11  1  0.650000  0.177700  0.946500  1
  H  H12  1  0.477900  0.243300  0.877500  1
  H  H13  1  0.716300  0.256900  0.727900  1
  H  H14  1  0.869500  0.185200  0.801900  1
  H  H15  1  0.433000  0.411000  0.754000  1
  H  H16  1  0.405000  0.292000  0.769000  1
  H  H17  1  0.724600  0.130900  0.466300  1
  H  H18  1  0.584000  0.217500  0.282900  1
  H  H19  1  0.413900  0.358700  0.328400  1
  H  H20  1  0.389700  0.379200  0.438500  1
  H  H21  1  0.793400  0.944000  0.427500  1
  H  H22  1  0.072700  0.826200  0.284800  1
  H  H23  1  0.018400  0.000800  0.231400  1
  H  H24  1  0.824100  0.152200  0.255700  1
  H  H25  1  0.940600  0.809800  0.498600  1
  H  H26  1  0.098700  0.455200  0.510600  1
  H  H27  1  0.138100  0.464600  0.395500  1
  H  H28  1  0.050800  0.642600  0.327900  1
  H  H29  1  0.811400  0.890500  0.957400  1
  H  H30  1  0.853800  0.698100  0.924100  1
  H  H31  1  0.076300  0.788100  0.774700  1
  H  H32  1  0.046400  0.952300  0.830800  1
  H  H33  1  0.044000  0.551000  0.827000  1
  H  H34  1  0.900000  0.592000  0.826000  1
  H  H35  1  0.216100  0.577900  0.087100  1
  H  H36  1  0.431700  0.540000  0.999600  1
  H  H37  1  0.453000  0.347000  0.992000  1
  H  H38  1  0.342000  0.354000  0.046000  1
  H  H39  1  0.330000  0.390000  0.917000  1
  H  H40  1  0.230000  0.400000  0.970000  1
  H  H41  1  0.160000  0.536000  0.918000  1
  H  H42  1  0.282000  0.555000  0.895000  1
  H  H43  1  0.216000  0.711000  0.965000  1
  H  H44  1  0.110000  0.669000  0.000000  1
  H  H45  1  0.715600  0.550200  0.123800  1
  H  H46  1  0.871100  0.437300  0.187800  1
  H  H47  1  0.636500  0.451800  0.346900  1
  H  H48  1  0.471900  0.546200  0.281800  1
  H  H49  1  0.920000  0.317000  0.309000  1
  H  H50  1  0.940000  0.441000  0.302000  1
  H  H51  1  0.621700  0.587200  0.601700  1
  H  H52  1  0.742700  0.505800  0.783300  1
  H  H53  1  0.927100  0.367600  0.741700  1
  H  H54  1  0.954500  0.332800  0.627500  1
  H  H55  1  0.552500  0.786700  0.648000  1
  H  H56  1  0.257900  0.889600  0.774700  1
  H  H57  1  0.353500  0.715100  0.850700  1
  H  H58  1  0.520700  0.570600  0.809200  1
  H  H59  1  0.407500  0.906500  0.577900  1
  H  H60  1  0.253800  0.265200  0.561600  1
  H  H61  1  0.233000  0.260700  0.675500  1
  H  H62  1  0.279400  0.081800  0.737500  1
  H  H63  1  0.492300  0.867800  0.097800  1
  H  H64  1  0.506800  0.004800  0.157400  1
  H  H65  1  0.264700  0.940800  0.296200  1
  H  H66  1  0.286700  0.773600  0.252900  1
  H  H67  1  0.300000  0.173000  0.248000  1
  H  H68  1  0.440000  0.126000  0.251000  1
  Pd  Pd69  1  0.909020  0.085900  0.937700  1
  Pd  Pd70  1  0.433900  0.633380  0.133350  1
  C  C71  1  0.999400  0.221000  0.010100  1
  C  C72  1  0.021700  0.110200  0.053100  1
  C  C73  1  0.143500  0.076300  0.090800  1
  C  C74  1  0.169000  0.182500  0.107400  1
  C  C75  1  0.088000  0.290000  0.096000  1
  C  C76  1  0.974100  0.326100  0.052300  1
  C  C77  1  0.664000  0.189000  0.900300  1
  C  C78  1  0.556800  0.236900  0.859300  1
  C  C79  1  0.578500  0.271600  0.793100  1
  C  C80  1  0.694000  0.244000  0.773200  1
  C  C81  1  0.789500  0.193600  0.818800  1
  C  C82  1  0.467300  0.325800  0.750700  1
  C  C83  1  0.495800  0.304900  0.676100  1
  C  C84  1  0.543500  0.191700  0.648100  1
  C  C85  1  0.567000  0.182500  0.592300  1
  C  C86  1  0.539400  0.278300  0.534200  1
  C  C87  1  0.488500  0.395700  0.561300  1
  C  C88  1  0.470400  0.401900  0.626500  1
  C  C89  1  0.553900  0.256400  0.463900  1
  C  C90  1  0.661700  0.174400  0.438700  1
  C  C91  1  0.674000  0.158300  0.371400  1
  C  C92  1  0.576800  0.228600  0.328100  1
  C  C93  1  0.476000  0.310000  0.355600  1
  C  C94  1  0.461900  0.323800  0.421100  1
  C  C95  1  0.785900  0.067500  0.345900  1
  C  C96  1  0.835000  0.956100  0.386600  1
  C  C97  1  0.945600  0.863500  0.366000  1
  C  C98  1  0.005000  0.887100  0.301900  1
  C  C99  1  0.969000  0.987000  0.268600  1
  C  C100  1  0.853000  0.083000  0.284800  1
  C  C101  1  0.992100  0.745900  0.409900  1
  C  C102  1  0.976700  0.739700  0.477600  1
  C  C103  1  0.013700  0.631900  0.515300  1
  C  C104  1  0.072400  0.528600  0.485000  1
  C  C105  1  0.092300  0.534400  0.415200  1
  C  C106  1  0.046700  0.640000  0.374300  1
  C  C107  1  0.005800  0.629700  0.589900  1
  C  C108  1  0.097000  0.553300  0.631500  1
  C  C109  1  0.091600  0.549800  0.700200  1
  C  C110  1  0.982900  0.625300  0.735600  1
  C  C111  1  0.889900  0.702300  0.694800  1
  C  C112  1  0.898300  0.701700  0.626500  1
  C  C113  1  0.872100  0.863700  0.923100  1
  C  C114  1  0.887900  0.751300  0.900000  1
  C  C115  1  0.958100  0.725700  0.838300  1
  C  C116  1  0.023000  0.802400  0.813100  1
  C  C117  1  0.003100  0.902400  0.848600  1
  C  C118  1  0.971200  0.614100  0.810200  1
  C  C119  1  0.265400  0.604700  0.050300  1
  C  C120  1  0.386800  0.506000  0.035600  1
  C  C121  1  0.372500  0.399400  0.009200  1
  C  C122  1  0.288000  0.436000  0.955400  1
  C  C123  1  0.233200  0.534500  0.933300  1
  C  C124  1  0.198000  0.642800  0.987900  1
  C  C125  1  0.698800  0.524300  0.168000  1
  C  C126  1  0.791200  0.467600  0.207400  1
  C  C127  1  0.772500  0.452900  0.273900  1
  C  C128  1  0.650400  0.473500  0.301700  1
  C  C129  1  0.552600  0.524900  0.262900  1
  C  C130  1  0.878900  0.401000  0.316900  1
  C  C131  1  0.850000  0.408100  0.389300  1
  C  C132  1  0.797700  0.521200  0.411900  1
  C  C133  1  0.775000  0.539500  0.484900  1
  C  C134  1  0.805400  0.441100  0.527900  1
  C  C135  1  0.847300  0.340500  0.507500  1
  C  C136  1  0.873500  0.313800  0.437800  1
  C  C137  1  0.789500  0.457700  0.601600  1
  C  C138  1  0.683800  0.542500  0.629500  1
  C  C139  1  0.666100  0.564100  0.697900  1
  C  C140  1  0.754500  0.496300  0.737700  1
  C  C141  1  0.865700  0.410400  0.713000  1
  C  C142  1  0.882800  0.390000  0.644100  1
  C  C143  1  0.549800  0.658900  0.722300  1
  C  C144  1  0.507000  0.771100  0.686500  1
  C  C145  1  0.401000  0.858000  0.705500  1
  C  C146  1  0.335800  0.835000  0.763500  1
  C  C147  1  0.388700  0.726000  0.807700  1
  C  C148  1  0.489000  0.643300  0.783400  1
  C  C149  1  0.355200  0.971100  0.666900  1
  C  C150  1  0.368600  0.977700  0.597500  1
  C  C151  1  0.327200  0.085800  0.554000  1
  C  C152  1  0.277800  0.191700  0.587200  1
  C  C153  1  0.264100  0.190100  0.654900  1
  C  C154  1  0.297300  0.081700  0.691400  1
  C  C155  1  0.341600  0.086800  0.481400  1
  C  C156  1  0.245400  0.159100  0.444300  1
  C  C157  1  0.255800  0.160000  0.376700  1
  C  C158  1  0.352900  0.098400  0.339800  1
  C  C159  1  0.450500  0.024900  0.376900  1
  C  C160  1  0.443400  0.018000  0.445100  1
  C  C161  1  0.455500  0.874800  0.141100  1
  C  C162  1  0.454400  0.963000  0.173500  1
  C  C163  1  0.378000  0.995600  0.230600  1
  C  C164  1  0.316600  0.921200  0.257600  1
  C  C165  1  0.327600  0.823600  0.231800  1
  C  C166  1  0.368000  0.106000  0.264700  1
  C  C167  1  0.874000  0.649000  0.058300  1
  C  C168  1  0.792400  0.925000  0.144100  1
  C  C169  1  0.806000  0.768000  0.229500  1
  C  C170  1  0.996100  0.781100  0.160600  1
  C  C171  1  0.514800  0.968000  0.833200  1
  C  C172  1  0.549000  0.791000  0.932000  1
  C  C173  1  0.349000  0.947000  0.910700  1
  C  C174  1  0.089000  0.854000  0.633000  1
  C  C175  1  0.069000  0.967000  0.535000  1
  C  C176  1  0.202000  0.865000  0.453000  1
  C  C177  1  0.269000  0.761000  0.497000  1
  N  N178  1  0.884500  0.244500  0.973600  1
  N  N179  1  0.044500  0.009800  0.003300  1
  N  N180  1  0.775000  0.162200  0.875300  1
  N  N181  1  0.937000  0.932200  0.899600  1
  N  N182  1  0.298600  0.704200  0.068300  1
  N  N183  1  0.457600  0.481500  0.095600  1
  N  N184  1  0.578400  0.544600  0.193000  1
  N  N185  1  0.403900  0.793200  0.169800  1
  N  N186  1  0.122100  0.226200  0.845700  1
  N  N187  1  0.219100  0.485100  0.225100  1
  N  N188  1  0.696300  0.508100  0.955900  1
  N  N189  1  0.645300  0.202200  0.107500  1
  N  N190  1  0.870500  0.818900  0.174600  1
  N  N191  1  0.465100  0.903200  0.889600  1
  N  N192  1  0.172000  0.860400  0.522800  1
  O  O193  1  0.038900  0.323900  0.852100  1
  O  O194  1  0.227600  0.226400  0.851400  1
  O  O195  1  0.101500  0.139400  0.834800  1
  O  O196  1  0.300700  0.396200  0.201300  1
  O  O197  1  0.108200  0.492700  0.233500  1
  O  O198  1  0.243700  0.570300  0.234200  1
  O  O199  1  0.639800  0.456300  0.930400  1
  O  O200  1  0.679000  0.564100  0.005100  1
  O  O201  1  0.782400  0.519700  0.920200  1
  O  O202  1  0.685600  0.162800  0.051200  1
  O  O203  1  0.699700  0.275900  0.103500  1
  O  O204  1  0.571600  0.194200  0.150200  1
  O  O205  1  0.745000  0.719500  0.048800  1
  O  O206  1  0.042700  0.826400  0.114300  1
  O  O207  1  0.299000  0.891700  0.958500  1
  O  O208  1  0.059000  0.945000  0.631000  1
  O  O209  1  0.596000  0.076000  0.044000  1
  O  O210  1  0.335000  0.708000  0.412000  1
  F  F211  1  0.577200  0.097900  0.700100  1
  F  F212  1  0.613900  0.067300  0.573400  1
  F  F213  1  0.468500  0.488300  0.519600  1
  F  F214  1  0.423300  0.516900  0.650100  1
  F  F215  1  0.204300  0.488100  0.598100  1
  F  F216  1  0.188000  0.476800  0.729300  1
  F  F217  1  0.789300  0.768000  0.725600  1
  F  F218  1  0.800100  0.775100  0.594000  1
  F  F219  1  0.779600  0.618200  0.370500  1
  F  F220  1  0.730800  0.649900  0.501400  1
  F  F221  1  0.876900  0.230500  0.551800  1
  F  F222  1  0.922300  0.203100  0.423600  1
  F  F223  1  0.138400  0.234100  0.470400  1
  F  F224  1  0.157100  0.238100  0.339100  1
  F  F225  1  0.558700  0.952700  0.344300  1
  F  F226  1  0.541100  0.943000  0.476700  1
