# generated using pymatgen
data_Si2AgH24C16N2ClO4
_symmetry_space_group_name_H-M   'P 1'
_cell_length_a   9.99580000
_cell_length_b   11.81930000
_cell_length_c   19.19580000
_cell_angle_alpha   76.16800000
_cell_angle_beta   89.31700000
_cell_angle_gamma   77.36100000
_symmetry_Int_Tables_number   1
_chemical_formula_structural   Si2AgH24C16N2ClO4
_chemical_formula_sum   'Si8 Ag4 H96 C64 N8 Cl4 O16'
_cell_volume   2146.77616482
_cell_formula_units_Z   4
loop_
 _symmetry_equiv_pos_site_id
 _symmetry_equiv_pos_as_xyz
  1  'x, y, z'
loop_
 _atom_site_type_symbol
 _atom_site_label
 _atom_site_symmetry_multiplicity
 _atom_site_fract_x
 _atom_site_fract_y
 _atom_site_fract_z
 _atom_site_occupancy
  Si  Si1  1  0.002260  0.445870  0.764340  1.0
  Si  Si2  1  0.997740  0.554130  0.235660  1.0
  Si  Si3  1  0.178410  0.627740  0.907260  1.0
  Si  Si4  1  0.821590  0.372260  0.092740  1.0
  Si  Si5  1  0.300270  0.125570  0.309770  1.0
  Si  Si6  1  0.699730  0.874430  0.690230  1.0
  Si  Si7  1  0.933710  0.968840  0.356350  1.0
  Si  Si8  1  0.066290  0.031160  0.643650  1.0
  Ag  Ag9  1  0.408390  0.926860  0.961540  1.0
  Ag  Ag10  1  0.591610  0.073140  0.038460  1.0
  Ag  Ag11  1  0.632250  0.558850  0.481780  1.0
  Ag  Ag12  1  0.367750  0.441150  0.518220  1.0
  H  H13  1  0.312000  0.224900  0.055600  1.0
  H  H14  1  0.688000  0.775100  0.944400  1.0
  H  H15  1  0.175600  0.411100  0.014000  1.0
  H  H16  1  0.824400  0.588900  0.986000  1.0
  H  H17  1  0.594700  0.308500  0.923800  1.0
  H  H18  1  0.405300  0.691500  0.076200  1.0
  H  H19  1  0.465200  0.495700  0.879800  1.0
  H  H20  1  0.534800  0.504300  0.120200  1.0
  H  H21  1  0.430200  0.158900  0.851200  1.0
  H  H22  1  0.569800  0.841100  0.148800  1.0
  H  H23  1  0.297000  0.334400  0.786000  1.0
  H  H24  1  0.703000  0.665600  0.214000  1.0
  H  H25  1  0.812600  0.450200  0.838800  1.0
  H  H26  1  0.187400  0.549800  0.161200  1.0
  H  H27  1  0.794800  0.380400  0.780900  1.0
  H  H28  1  0.205200  0.619600  0.219100  1.0
  H  H29  1  0.762600  0.520500  0.760100  1.0
  H  H30  1  0.237400  0.479500  0.239900  1.0
  H  H31  1  0.166800  0.554900  0.780900  1.0
  H  H32  1  0.833200  0.445100  0.219100  1.0
  H  H33  1  0.030000  0.644200  0.748400  1.0
  H  H34  1  0.970000  0.355800  0.251600  1.0
  H  H35  1  0.007200  0.524900  0.889000  1.0
  H  H36  1  0.992800  0.475100  0.111000  1.0
  H  H37  1  0.955200  0.661500  0.853900  1.0
  H  H38  1  0.044800  0.338500  0.146100  1.0
  H  H39  1  0.049600  0.762400  0.969300  1.0
  H  H40  1  0.950400  0.237600  0.030700  1.0
  H  H41  1  0.187700  0.696100  0.012800  1.0
  H  H42  1  0.812300  0.303900  0.987200  1.0
  H  H43  1  0.065900  0.631400  0.015900  1.0
  H  H44  1  0.934100  0.368600  0.984100  1.0
  H  H45  1  0.203900  0.809100  0.832100  1.0
  H  H46  1  0.796100  0.190900  0.167900  1.0
  H  H47  1  0.301700  0.702600  0.808800  1.0
  H  H48  1  0.698300  0.297400  0.191200  1.0
  H  H49  1  0.342100  0.744000  0.875800  1.0
  H  H50  1  0.657900  0.256000  0.124200  1.0
  H  H51  1  0.973700  0.515500  0.637300  1.0
  H  H52  1  0.026300  0.484500  0.362700  1.0
  H  H53  1  0.003400  0.375500  0.658100  1.0
  H  H54  1  0.996600  0.624500  0.341900  1.0
  H  H55  1  0.124100  0.441000  0.657500  1.0
  H  H56  1  0.875900  0.559000  0.342500  1.0
  H  H57  1  0.966900  0.229300  0.876200  1.0
  H  H58  1  0.033100  0.770700  0.123800  1.0
  H  H59  1  0.108900  0.058400  0.939600  1.0
  H  H60  1  0.891100  0.941600  0.060400  1.0
  H  H61  1  0.314700  0.623900  0.369300  1.0
  H  H62  1  0.685300  0.376100  0.630700  1.0
  H  H63  1  0.168800  0.798400  0.313200  1.0
  H  H64  1  0.831200  0.201600  0.686800  1.0
  H  H65  1  0.588600  0.728100  0.331500  1.0
  H  H66  1  0.411400  0.271900  0.668500  1.0
  H  H67  1  0.480800  0.915600  0.271600  1.0
  H  H68  1  0.519200  0.084400  0.728400  1.0
  H  H69  1  0.087200  0.162900  0.245000  1.0
  H  H70  1  0.912800  0.837100  0.755000  1.0
  H  H71  1  0.145300  0.024800  0.270200  1.0
  H  H72  1  0.854700  0.975200  0.729800  1.0
  H  H73  1  0.963100  0.167900  0.338700  1.0
  H  H74  1  0.036900  0.832100  0.661300  1.0
  H  H75  1  0.080100  0.081100  0.391400  1.0
  H  H76  1  0.919900  0.918900  0.608600  1.0
  H  H77  1  0.820000  0.885700  0.281500  1.0
  H  H78  1  0.180000  0.114300  0.718500  1.0
  H  H79  1  0.941100  0.933400  0.240800  1.0
  H  H80  1  0.058900  0.066600  0.759200  1.0
  H  H81  1  0.803300  0.022900  0.247700  1.0
  H  H82  1  0.196700  0.977100  0.752300  1.0
  H  H83  1  0.742900  0.930200  0.424200  1.0
  H  H84  1  0.257100  0.069800  0.575800  1.0
  H  H85  1  0.731100  0.068600  0.399900  1.0
  H  H86  1  0.268900  0.931400  0.600100  1.0
  H  H87  1  0.830200  0.991500  0.464900  1.0
  H  H88  1  0.169800  0.008500  0.535100  1.0
  H  H89  1  0.999300  0.811000  0.502200  1.0
  H  H90  1  0.000700  0.189000  0.497800  1.0
  H  H91  1  0.149600  0.638300  0.552800  1.0
  H  H92  1  0.850400  0.361700  0.447200  1.0
  H  H93  1  0.362800  0.981400  0.460400  1.0
  H  H94  1  0.637200  0.018600  0.539600  1.0
  H  H95  1  0.469100  0.789100  0.514900  1.0
  H  H96  1  0.530900  0.210900  0.485100  1.0
  H  H97  1  0.226800  0.304200  0.347900  1.0
  H  H98  1  0.773200  0.695800  0.652100  1.0
  H  H99  1  0.368700  0.234300  0.386200  1.0
  H  H100  1  0.631300  0.765700  0.613800  1.0
  H  H101  1  0.233800  0.194500  0.413600  1.0
  H  H102  1  0.766200  0.805500  0.586400  1.0
  H  H103  1  0.339600  0.260300  0.201900  1.0
  H  H104  1  0.660400  0.739700  0.798100  1.0
  H  H105  1  0.401100  0.128900  0.196700  1.0
  H  H106  1  0.598900  0.871100  0.803300  1.0
  H  H107  1  0.480900  0.190500  0.241000  1.0
  H  H108  1  0.519100  0.809500  0.759000  1.0
  C  C109  1  0.343300  0.280000  0.019800  1.0
  C  C110  1  0.656700  0.720000  0.980200  1.0
  C  C111  1  0.260900  0.392300  0.994600  1.0
  C  C112  1  0.739100  0.607700  0.005400  1.0
  C  C113  1  0.508900  0.329400  0.942400  1.0
  C  C114  1  0.491100  0.670600  0.057600  1.0
  C  C115  1  0.431200  0.442300  0.915500  1.0
  C  C116  1  0.568800  0.557700  0.084500  1.0
  C  C117  1  0.302000  0.478000  0.941200  1.0
  C  C118  1  0.698000  0.522000  0.058800  1.0
  C  C119  1  0.335700  0.173600  0.856100  1.0
  C  C120  1  0.664300  0.826400  0.143900  1.0
  C  C121  1  0.255600  0.279200  0.816200  1.0
  C  C122  1  0.744400  0.720800  0.183800  1.0
  C  C123  1  0.113800  0.303800  0.820700  1.0
  C  C124  1  0.886200  0.696200  0.179300  1.0
  C  C125  1  0.821200  0.449700  0.789000  1.0
  C  C126  1  0.178800  0.550300  0.211000  1.0
  C  C127  1  0.067900  0.571700  0.784600  1.0
  C  C128  1  0.932100  0.428300  0.215400  1.0
  C  C129  1  0.033600  0.594600  0.859300  1.0
  C  C130  1  0.966400  0.405400  0.140700  1.0
  C  C131  1  0.112400  0.686500  0.985800  1.0
  C  C132  1  0.887600  0.313500  0.014200  1.0
  C  C133  1  0.267100  0.733500  0.849000  1.0
  C  C134  1  0.732900  0.266500  0.151000  1.0
  C  C135  1  0.029100  0.444300  0.667400  1.0
  C  C136  1  0.970900  0.555700  0.332600  1.0
  C  C137  1  0.060900  0.217000  0.869700  1.0
  C  C138  1  0.939100  0.783000  0.130300  1.0
  C  C139  1  0.146900  0.114400  0.907900  1.0
  C  C140  1  0.853100  0.885600  0.092100  1.0
  C  C141  1  0.249200  0.661100  0.396200  1.0
  C  C142  1  0.750800  0.338900  0.603800  1.0
  C  C143  1  0.160900  0.766500  0.361900  1.0
  C  C144  1  0.839100  0.233500  0.638100  1.0
  C  C145  1  0.059900  0.825700  0.399700  1.0
  C  C146  1  0.940100  0.174300  0.600300  1.0
  C  C147  1  0.540800  0.779500  0.357700  1.0
  C  C148  1  0.459200  0.220500  0.642300  1.0
  C  C149  1  0.476700  0.892600  0.321300  1.0
  C  C150  1  0.523300  0.107400  0.678700  1.0
  C  C151  1  0.405200  0.973700  0.358600  1.0
  C  C152  1  0.594800  0.026300  0.641400  1.0
  C  C153  1  0.129500  0.099000  0.285400  1.0
  C  C154  1  0.870500  0.901000  0.714600  1.0
  C  C155  1  0.029400  0.092200  0.346600  1.0
  C  C156  1  0.970600  0.907800  0.653400  1.0
  C  C157  1  0.866400  0.950500  0.271400  1.0
  C  C158  1  0.133600  0.049500  0.728600  1.0
  C  C159  1  0.792300  0.992700  0.418900  1.0
  C  C160  1  0.207700  0.007300  0.581100  1.0
  C  C161  1  0.061100  0.773900  0.473500  1.0
  C  C162  1  0.938900  0.226100  0.526500  1.0
  C  C163  1  0.151700  0.670000  0.503700  1.0
  C  C164  1  0.848300  0.330000  0.496300  1.0
  C  C165  1  0.406500  0.931100  0.432500  1.0
  C  C166  1  0.593500  0.068900  0.567500  1.0
  C  C167  1  0.471700  0.815200  0.465300  1.0
  C  C168  1  0.528300  0.184800  0.534700  1.0
  C  C169  1  0.279900  0.226900  0.371900  1.0
  C  C170  1  0.720100  0.773100  0.628100  1.0
  C  C171  1  0.391600  0.183400  0.227300  1.0
  C  C172  1  0.608400  0.816600  0.772700  1.0
  N  N173  1  0.467600  0.247800  0.993900  1.0
  N  N174  1  0.532400  0.752200  0.006100  1.0
  N  N175  1  0.282700  0.091300  0.901700  1.0
  N  N176  1  0.717300  0.908700  0.098300  1.0
  N  N177  1  0.245400  0.610100  0.465500  1.0
  N  N178  1  0.754600  0.389900  0.534500  1.0
  N  N179  1  0.538400  0.739100  0.428600  1.0
  N  N180  1  0.461600  0.260900  0.571400  1.0
  Cl  Cl181  1  0.770850  0.045970  0.882870  1
  Cl  Cl182  1  0.229150  0.954030  0.117130  1
  Cl  Cl183  1  0.416970  0.580630  0.665240  1
  Cl  Cl184  1  0.583030  0.419370  0.334760  1
  O  O185  1  0.792500  0.106700  0.937100  1
  O  O186  1  0.207500  0.893300  0.062900  1
  O  O187  1  0.648000  0.004400  0.895900  1
  O  O188  1  0.352000  0.995600  0.104100  1
  O  O189  1  0.760500  0.126700  0.813600  1
  O  O190  1  0.239500  0.873300  0.186400  1
  O  O191  1  0.882100  0.946800  0.885800  1
  O  O192  1  0.117900  0.053200  0.114200  1
  O  O193  1  0.335300  0.500700  0.660200  1
  O  O194  1  0.664700  0.499300  0.339800  1
  O  O195  1  0.519600  0.576700  0.613800  1
  O  O196  1  0.480400  0.423300  0.386200  1
  O  O197  1  0.334000  0.698000  0.650300  1
  O  O198  1  0.666000  0.302000  0.349700  1
  O  O199  1  0.476400  0.549700  0.734800  1
  O  O200  1  0.523600  0.450300  0.265200  1
