# generated using pymatgen
data_HgH31C44N4Cl2O7
_symmetry_space_group_name_H-M   'P 1'
_cell_length_a   14.54790000
_cell_length_b   15.11240000
_cell_length_c   15.24236452
_cell_angle_alpha   90.00000000
_cell_angle_beta   118.50394480
_cell_angle_gamma   90.00000000
_symmetry_Int_Tables_number   1
_chemical_formula_structural   HgH31C44N4Cl2O7
_chemical_formula_sum   'Hg4 H124 C176 N16 Cl8 O28'
_cell_volume   2944.88513322
_cell_formula_units_Z   4
loop_
 _symmetry_equiv_pos_site_id
 _symmetry_equiv_pos_as_xyz
  1  'x, y, z'
loop_
 _atom_site_type_symbol
 _atom_site_label
 _atom_site_symmetry_multiplicity
 _atom_site_fract_x
 _atom_site_fract_y
 _atom_site_fract_z
 _atom_site_occupancy
  C  C1  1  0.881400  0.139500  0.000000  1.0
  C  C2  1  0.618600  0.639500  0.000000  1.0
  C  C3  1  0.381400  0.360500  1.000000  1.0
  C  C4  1  0.118600  0.860500  0.000000  1.0
  C  C5  1  0.877300  0.947200  1.000000  1.0
  C  C6  1  0.622700  0.447200  0.000000  1.0
  C  C7  1  0.377300  0.552800  0.000000  1.0
  C  C8  1  0.122700  0.052800  0.000000  1.0
  C  C9  1  0.852100  0.667800  1.000000  1.0
  C  C10  1  0.647900  0.167800  1.000000  1.0
  C  C11  1  0.352100  0.832200  0.000000  1.0
  C  C12  1  0.147900  0.332200  0.000000  1.0
  C  C13  1  0.866800  0.853500  1.000000  1.0
  C  C14  1  0.633200  0.353500  0.000000  1.0
  C  C15  1  0.366800  0.646500  0.000000  1.0
  C  C16  1  0.133200  0.146500  0.000000  1.0
  C  C17  1  0.436700  0.547200  0.313400  1.0
  C  C18  1  0.063300  0.047200  0.686600  1.0
  C  C19  1  0.623300  0.952800  0.686600  1.0
  C  C20  1  0.876700  0.452800  0.313400  1.0
  C  C21  1  0.563300  0.452800  0.686600  1.0
  C  C22  1  0.936700  0.952800  0.313400  1.0
  C  C23  1  0.376700  0.047200  0.313400  1.0
  C  C24  1  0.123300  0.547200  0.686600  1.0
  C  C25  1  0.367800  0.575100  0.350800  1.0
  C  C26  1  0.132200  0.075100  0.649200  1.0
  C  C27  1  0.517000  0.924900  0.649200  1.0
  C  C28  1  0.983000  0.424900  0.350800  1.0
  C  C29  1  0.632200  0.424900  0.649200  1.0
  C  C30  1  0.867800  0.924900  0.350800  1.0
  C  C31  1  0.483000  0.075100  0.350800  1.0
  C  C32  1  0.017000  0.575100  0.649200  1.0
  C  C33  1  0.408800  0.617700  0.438600  1.0
  C  C34  1  0.091200  0.117700  0.561400  1.0
  C  C35  1  0.470200  0.882300  0.561400  1.0
  C  C36  1  0.029800  0.382300  0.438600  1.0
  C  C37  1  0.591200  0.382300  0.561400  1.0
  C  C38  1  0.908800  0.882300  0.438600  1.0
  C  C39  1  0.529800  0.117700  0.438600  1.0
  C  C40  1  0.970200  0.617700  0.561400  1.0
  C  C41  1  0.519100  0.623300  0.497800  1.0
  C  C42  1  0.980900  0.123300  0.502200  1.0
  C  C43  1  0.521300  0.876700  0.502200  1.0
  C  C44  1  0.978700  0.376700  0.497800  1.0
  C  C45  1  0.480900  0.376700  0.502200  1.0
  C  C46  1  0.019100  0.876700  0.497800  1.0
  C  C47  1  0.478700  0.123300  0.497800  1.0
  C  C48  1  0.021300  0.623300  0.502200  1.0
  C  C49  1  0.569400  0.663300  0.594200  1.0
  C  C50  1  0.930600  0.163300  0.405800  1.0
  C  C51  1  0.475200  0.836700  0.405800  1.0
  C  C52  1  0.024800  0.336700  0.594200  1.0
  C  C53  1  0.430600  0.336700  0.405800  1.0
  C  C54  1  0.069400  0.836700  0.594200  1.0
  C  C55  1  0.524800  0.163300  0.594200  1.0
  C  C56  1  0.975200  0.663300  0.405800  1.0
  C  C57  1  0.671500  0.671800  0.642600  1.0
  C  C58  1  0.828500  0.171800  0.357400  1.0
  C  C59  1  0.528900  0.828200  0.357400  1.0
  C  C60  1  0.971100  0.328200  0.642600  1.0
  C  C61  1  0.328500  0.328200  0.357400  1.0
  C  C62  1  0.171500  0.828200  0.642600  1.0
  C  C63  1  0.471100  0.171800  0.642600  1.0
  C  C64  1  0.028900  0.671800  0.357400  1.0
  C  C65  1  0.739400  0.643700  0.608600  1.0
  C  C66  1  0.760600  0.143700  0.391400  1.0
  C  C67  1  0.630800  0.856300  0.391400  1.0
  C  C68  1  0.869200  0.356300  0.608600  1.0
  C  C69  1  0.260600  0.356300  0.391400  1.0
  C  C70  1  0.239400  0.856300  0.608600  1.0
  C  C71  1  0.369200  0.143700  0.608600  1.0
  C  C72  1  0.130800  0.643700  0.391400  1.0
  C  C73  1  0.682900  0.614100  0.504200  1.0
  C  C74  1  0.817100  0.114100  0.495800  1.0
  C  C75  1  0.678700  0.885900  0.495800  1.0
  C  C76  1  0.821300  0.385900  0.504200  1.0
  C  C77  1  0.317100  0.385900  0.495800  1.0
  C  C78  1  0.182900  0.885900  0.504200  1.0
  C  C79  1  0.321300  0.114100  0.504200  1.0
  C  C80  1  0.178700  0.614100  0.495800  1.0
  C  C81  1  0.582800  0.596700  0.456800  1.0
  C  C82  1  0.917200  0.096700  0.543200  1.0
  C  C83  1  0.626000  0.903300  0.543200  1.0
  C  C84  1  0.874000  0.403300  0.456800  1.0
  C  C85  1  0.417200  0.403300  0.543200  1.0
  C  C86  1  0.082800  0.903300  0.456800  1.0
  C  C87  1  0.374000  0.096700  0.456800  1.0
  C  C88  1  0.126000  0.596700  0.543200  1.0
  C  C89  1  0.763700  0.662300  0.817600  1.0
  C  C90  1  0.736300  0.162300  0.182400  1.0
  C  C91  1  0.446100  0.837700  0.182400  1.0
  C  C92  1  0.053900  0.337700  0.817600  1.0
  C  C93  1  0.236300  0.337700  0.182400  1.0
  C  C94  1  0.263700  0.837700  0.817600  1.0
  C  C95  1  0.553900  0.162300  0.817600  1.0
  C  C96  1  0.946100  0.662300  0.182400  1.0
  C  C97  1  0.960400  0.402000  0.088800  1.0
  C  C98  1  0.539600  0.902000  0.911200  1.0
  C  C99  1  0.371600  0.098000  0.911200  1.0
  C  C100  1  0.128400  0.598000  0.088800  1.0
  C  C101  1  0.039600  0.598000  0.911200  1.0
  C  C102  1  0.460400  0.098000  0.088800  1.0
  C  C103  1  0.628400  0.902000  0.088800  1.0
  C  C104  1  0.871600  0.402000  0.911200  1.0
  C  C105  1  0.886400  0.383400  0.980800  1.0
  C  C106  1  0.613600  0.883400  0.019200  1.0
  C  C107  1  0.405600  0.116600  0.019200  1.0
  C  C108  1  0.094400  0.616600  0.980800  1.0
  C  C109  1  0.113600  0.616600  0.019200  1.0
  C  C110  1  0.386400  0.116600  0.980800  1.0
  C  C111  1  0.594400  0.883400  0.980800  1.0
  C  C112  1  0.905600  0.383400  0.019200  1.0
  C  C113  1  0.865200  0.297800  0.958400  1.0
  C  C114  1  0.634800  0.797800  0.041600  1.0
  C  C115  1  0.406800  0.202200  0.041600  1.0
  C  C116  1  0.093200  0.702200  0.958400  1.0
  C  C117  1  0.134800  0.702200  0.041600  1.0
  C  C118  1  0.365200  0.202200  0.958400  1.0
  C  C119  1  0.593200  0.797800  0.958400  1.0
  C  C120  1  0.906800  0.297800  0.041600  1.0
  C  C121  1  0.905800  0.232300  0.030200  1.0
  C  C122  1  0.594200  0.732300  0.969800  1.0
  C  C123  1  0.375600  0.267700  0.969800  1.0
  C  C124  1  0.124400  0.767700  0.030200  1.0
  C  C125  1  0.094200  0.767700  0.969800  1.0
  C  C126  1  0.405800  0.267700  0.030200  1.0
  C  C127  1  0.624400  0.732300  0.030200  1.0
  C  C128  1  0.875600  0.232300  0.969800  1.0
  C  C129  1  0.933800  0.076700  0.084000  1.0
  C  C130  1  0.566200  0.576700  0.916000  1.0
  C  C131  1  0.349800  0.423300  0.916000  1.0
  C  C132  1  0.150200  0.923300  0.084000  1.0
  C  C133  1  0.066200  0.923300  0.916000  1.0
  C  C134  1  0.433800  0.423300  0.084000  1.0
  C  C135  1  0.650200  0.576700  0.084000  1.0
  C  C136  1  0.849800  0.076700  0.916000  1.0
  C  C137  1  0.009700  0.101300  0.179400  1.0
  C  C138  1  0.490300  0.601300  0.820600  1.0
  C  C139  1  0.330300  0.398700  0.820600  1.0
  C  C140  1  0.169700  0.898700  0.179400  1.0
  C  C141  1  0.990300  0.898700  0.820600  1.0
  C  C142  1  0.509700  0.398700  0.179400  1.0
  C  C143  1  0.669700  0.601300  0.179400  1.0
  C  C144  1  0.830300  0.101300  0.820600  1.0
  C  C145  1  0.032200  0.189100  0.206400  1.0
  C  C146  1  0.467800  0.689100  0.793600  1.0
  C  C147  1  0.325800  0.310900  0.793600  1.0
  C  C148  1  0.174200  0.810900  0.206400  1.0
  C  C149  1  0.967800  0.810900  0.793600  1.0
  C  C150  1  0.532200  0.310900  0.206400  1.0
  C  C151  1  0.674200  0.689100  0.206400  1.0
  C  C152  1  0.825800  0.189100  0.793600  1.0
  C  C153  1  0.980700  0.258500  0.130000  1.0
  C  C154  1  0.519300  0.758500  0.870000  1.0
  C  C155  1  0.350700  0.241500  0.870000  1.0
  C  C156  1  0.149300  0.741500  0.130000  1.0
  C  C157  1  0.019300  0.741500  0.870000  1.0
  C  C158  1  0.480700  0.241500  0.130000  1.0
  C  C159  1  0.649300  0.758500  0.130000  1.0
  C  C160  1  0.850700  0.258500  0.870000  1.0
  C  C161  1  0.810400  0.715000  0.908200  1.0
  C  C162  1  0.689600  0.215000  0.091800  1.0
  C  C163  1  0.402200  0.785000  0.091800  1.0
  C  C164  1  0.097800  0.285000  0.908200  1.0
  C  C165  1  0.189600  0.285000  0.091800  1.0
  C  C166  1  0.310400  0.785000  0.908200  1.0
  C  C167  1  0.597800  0.215000  0.908200  1.0
  C  C168  1  0.902200  0.715000  0.091800  1.0
  C  C169  1  0.819800  0.803700  0.910400  1.0
  C  C170  1  0.680200  0.303700  0.089600  1.0
  C  C171  1  0.409400  0.696300  0.089600  1.0
  C  C172  1  0.090600  0.196300  0.910400  1.0
  C  C173  1  0.180200  0.196300  0.089600  1.0
  C  C174  1  0.319800  0.696300  0.910400  1.0
  C  C175  1  0.590600  0.303700  0.910400  1.0
  C  C176  1  0.909400  0.803700  0.089600  1.0
  Cl  Cl177  1  0.572800  0.354300  0.260400  1.0
  Cl  Cl178  1  0.927200  0.854300  0.739600  1.0
  Cl  Cl179  1  0.812400  0.145700  0.739600  1.0
  Cl  Cl180  1  0.687600  0.645700  0.260400  1.0
  Cl  Cl181  1  0.427200  0.645700  0.739600  1.0
  Cl  Cl182  1  0.072800  0.145700  0.260400  1.0
  Cl  Cl183  1  0.187600  0.854300  0.260400  1.0
  Cl  Cl184  1  0.312400  0.354300  0.739600  1.0
  H  H185  1  0.852300  0.536300  0.626000  1
  H  H186  1  0.647700  0.036300  0.374000  1
  H  H187  1  0.726300  0.963700  0.374000  1
  H  H188  1  0.773700  0.463700  0.626000  1
  H  H189  1  0.147700  0.463700  0.374000  1
  H  H190  1  0.352300  0.963700  0.626000  1
  H  H191  1  0.273700  0.036300  0.626000  1
  H  H192  1  0.226300  0.536300  0.374000  1
  H  H193  1  0.836500  0.121500  0.933200  1
  H  H194  1  0.663500  0.621500  0.066800  1
  H  H195  1  0.403300  0.378500  0.066800  1
  H  H196  1  0.096700  0.878500  0.933200  1
  H  H197  1  0.163500  0.878500  0.066800  1
  H  H198  1  0.336500  0.378500  0.933200  1
  H  H199  1  0.596700  0.621500  0.933200  1
  H  H200  1  0.903300  0.121500  0.066800  1
  H  H201  1  0.821300  0.281400  0.891000  1
  H  H202  1  0.678700  0.781400  0.109000  1
  H  H203  1  0.430300  0.218600  0.109000  1
  H  H204  1  0.069700  0.718600  0.891000  1
  H  H205  1  0.178700  0.718600  0.109000  1
  H  H206  1  0.321300  0.218600  0.891000  1
  H  H207  1  0.569700  0.781400  0.891000  1
  H  H208  1  0.930300  0.281400  0.109000  1
  H  H209  1  0.856700  0.429000  0.932200  1
  H  H210  1  0.643300  0.929000  0.067800  1
  H  H211  1  0.424500  0.071000  0.067800  1
  H  H212  1  0.075500  0.571000  0.932200  1
  H  H213  1  0.143300  0.571000  0.067800  1
  H  H214  1  0.356700  0.071000  0.932200  1
  H  H215  1  0.575500  0.929000  0.932200  1
  H  H216  1  0.924500  0.429000  0.067800  1
  H  H217  1  0.832900  0.472500  0.578400  1.0
  H  H218  1  0.667100  0.972500  0.421600  1.0
  H  H219  1  0.754500  0.027500  0.421600  1.0
  H  H220  1  0.745500  0.527500  0.578400  1.0
  H  H221  1  0.167100  0.527500  0.421600  1.0
  H  H222  1  0.332900  0.027500  0.578400  1.0
  H  H223  1  0.245500  0.972500  0.578400  1.0
  H  H224  1  0.254500  0.472500  0.421600  1.0
  H  H225  1  0.846400  0.605200  1.000000  1.0
  H  H226  1  0.653600  0.105200  1.000000  1.0
  H  H227  1  0.346400  0.894800  0.000000  1.0
  H  H228  1  0.153600  0.394800  0.000000  1.0
  H  H229  1  0.407300  0.518900  0.250200  1.0
  H  H230  1  0.092700  0.018900  0.749800  1.0
  H  H231  1  0.657100  0.981100  0.749800  1.0
  H  H232  1  0.842900  0.481100  0.250200  1.0
  H  H233  1  0.592700  0.481100  0.749800  1.0
  H  H234  1  0.907300  0.981100  0.250200  1.0
  H  H235  1  0.342900  0.018900  0.250200  1.0
  H  H236  1  0.157100  0.518900  0.749800  1.0
  H  H237  1  0.294800  0.563700  0.314200  1.0
  H  H238  1  0.205200  0.063700  0.685800  1.0
  H  H239  1  0.480600  0.936300  0.685800  1.0
  H  H240  1  0.019400  0.436300  0.314200  1.0
  H  H241  1  0.705200  0.436300  0.685800  1.0
  H  H242  1  0.794800  0.936300  0.314200  1.0
  H  H243  1  0.519400  0.063700  0.314200  1.0
  H  H244  1  0.980600  0.563700  0.685800  1.0
  H  H245  1  0.364300  0.643900  0.461000  1.0
  H  H246  1  0.135700  0.143900  0.539000  1.0
  H  H247  1  0.403300  0.856100  0.539000  1.0
  H  H248  1  0.096700  0.356100  0.461000  1.0
  H  H249  1  0.635700  0.356100  0.539000  1.0
  H  H250  1  0.864300  0.856100  0.461000  1.0
  H  H251  1  0.596700  0.143900  0.461000  1.0
  H  H252  1  0.903300  0.643900  0.539000  1.0
  H  H253  1  0.528700  0.684000  0.623600  1.0
  H  H254  1  0.971300  0.184000  0.376400  1.0
  H  H255  1  0.405100  0.816000  0.376400  1.0
  H  H256  1  0.094900  0.316000  0.623600  1.0
  H  H257  1  0.471300  0.316000  0.376400  1.0
  H  H258  1  0.028700  0.816000  0.623600  1.0
  H  H259  1  0.594900  0.184000  0.623600  1.0
  H  H260  1  0.905100  0.684000  0.376400  1.0
  H  H261  1  0.813400  0.643500  0.648000  1.0
  H  H262  1  0.686600  0.143500  0.352000  1.0
  H  H263  1  0.665400  0.856500  0.352000  1.0
  H  H264  1  0.834600  0.356500  0.648000  1.0
  H  H265  1  0.186600  0.356500  0.352000  1.0
  H  H266  1  0.313400  0.856500  0.648000  1.0
  H  H267  1  0.334600  0.143500  0.648000  1.0
  H  H268  1  0.165400  0.643500  0.352000  1.0
  H  H269  1  0.721500  0.607200  0.469000  1.0
  H  H270  1  0.778500  0.107200  0.531000  1.0
  H  H271  1  0.752500  0.892800  0.531000  1.0
  H  H272  1  0.747500  0.392800  0.469000  1.0
  H  H273  1  0.278500  0.392800  0.531000  1.0
  H  H274  1  0.221500  0.892800  0.469000  1.0
  H  H275  1  0.247500  0.107200  0.469000  1.0
  H  H276  1  0.252500  0.607200  0.531000  1.0
  H  H277  1  0.972900  0.462000  0.108400  1.0
  H  H278  1  0.527100  0.962000  0.891600  1.0
  H  H279  1  0.364500  0.038000  0.891600  1.0
  H  H280  1  0.135500  0.538000  0.108400  1.0
  H  H281  1  0.027100  0.538000  0.891600  1.0
  H  H282  1  0.472900  0.038000  0.108400  1.0
  H  H283  1  0.635500  0.962000  0.108400  1.0
  H  H284  1  0.864500  0.462000  0.891600  1.0
  H  H285  1  0.045800  0.055900  0.227800  1.0
  H  H286  1  0.454200  0.555900  0.772200  1.0
  H  H287  1  0.318000  0.444100  0.772200  1.0
  H  H288  1  0.182000  0.944100  0.227800  1.0
  H  H289  1  0.954200  0.944100  0.772200  1.0
  H  H290  1  0.545800  0.444100  0.227800  1.0
  H  H291  1  0.682000  0.555900  0.227800  1.0
  H  H292  1  0.818000  0.055900  0.772200  1.0
  H  H293  1  0.081500  0.208300  0.272600  1.0
  H  H294  1  0.418500  0.708300  0.727400  1.0
  H  H295  1  0.308900  0.291700  0.727400  1.0
  H  H296  1  0.191100  0.791700  0.272600  1.0
  H  H297  1  0.918500  0.791700  0.727400  1.0
  H  H298  1  0.581500  0.291700  0.272600  1.0
  H  H299  1  0.691100  0.708300  0.272600  1.0
  H  H300  1  0.808900  0.208300  0.727400  1.0
  H  H301  1  0.793600  0.834400  0.848600  1.0
  H  H302  1  0.706400  0.334400  0.151400  1.0
  H  H303  1  0.445000  0.665600  0.151400  1.0
  H  H304  1  0.055000  0.165600  0.848600  1.0
  H  H305  1  0.206400  0.165600  0.151400  1.0
  H  H306  1  0.293600  0.665600  0.848600  1.0
  H  H307  1  0.555000  0.334400  0.848600  1.0
  H  H308  1  0.945000  0.834400  0.151400  1.0
  Hg  Hg309  1  0.639560  0.500000  0.279120  1.0
  Hg  Hg310  1  0.860440  0.000000  0.720880  1.0
  Hg  Hg311  1  0.360440  0.500000  0.720880  1.0
  Hg  Hg312  1  0.139560  0.000000  0.279120  1.0
  N  N313  1  0.536100  0.558400  0.361000  1.0
  N  N314  1  0.963900  0.058400  0.639000  1.0
  N  N315  1  0.675100  0.941600  0.639000  1.0
  N  N316  1  0.824900  0.441600  0.361000  1.0
  N  N317  1  0.463900  0.441600  0.639000  1.0
  N  N318  1  0.036100  0.941600  0.361000  1.0
  N  N319  1  0.324900  0.058400  0.361000  1.0
  N  N320  1  0.175100  0.558400  0.639000  1.0
  N  N321  1  0.006400  0.346600  0.153600  1.0
  N  N322  1  0.493600  0.846600  0.846400  1.0
  N  N323  1  0.352800  0.153400  0.846400  1.0
  N  N324  1  0.147200  0.653400  0.153600  1.0
  N  N325  1  0.993600  0.653400  0.846400  1.0
  N  N326  1  0.506400  0.153400  0.153600  1.0
  N  N327  1  0.647200  0.846600  0.153600  1.0
  N  N328  1  0.852800  0.346600  0.846400  1.0
  O  O329  1  0.802500  0.500000  0.605000  1
  O  O330  1  0.697500  0.000000  0.395000  1
  O  O331  1  0.197500  0.500000  0.395000  1
  O  O332  1  0.302500  0.000000  0.605000  1
  O  O333  1  0.719500  0.713400  0.735600  1.0
  O  O334  1  0.780500  0.213400  0.264400  1.0
  O  O335  1  0.483900  0.786600  0.264400  1.0
  O  O336  1  0.016100  0.286600  0.735600  1.0
  O  O337  1  0.280500  0.286600  0.264400  1.0
  O  O338  1  0.219500  0.786600  0.735600  1.0
  O  O339  1  0.516100  0.213400  0.735600  1.0
  O  O340  1  0.983900  0.713400  0.264400  1.0
  O  O341  1  0.756200  0.582300  0.817400  1.0
  O  O342  1  0.743800  0.082300  0.182600  1.0
  O  O343  1  0.438800  0.917700  0.182600  1.0
  O  O344  1  0.061200  0.417700  0.817400  1.0
  O  O345  1  0.243800  0.417700  0.182600  1.0
  O  O346  1  0.256200  0.917700  0.817400  1.0
  O  O347  1  0.561200  0.082300  0.817400  1.0
  O  O348  1  0.938800  0.582300  0.182600  1.0
  O  O349  1  0.920200  0.984900  0.079200  1.0
  O  O350  1  0.579800  0.484900  0.920800  1.0
  O  O351  1  0.341000  0.515100  0.920800  1.0
  O  O352  1  0.159000  0.015100  0.079200  1.0
  O  O353  1  0.079800  0.015100  0.920800  1.0
  O  O354  1  0.420200  0.515100  0.079200  1.0
  O  O355  1  0.659000  0.484900  0.079200  1.0
  O  O356  1  0.841000  0.984900  0.920800  1.0
