# generated using pymatgen
data_CuH27C44Br2(N2O3)2
_symmetry_space_group_name_H-M   'P 1'
_cell_length_a   14.57320000
_cell_length_b   15.14080000
_cell_length_c   15.28030247
_cell_angle_alpha   90.00000000
_cell_angle_beta   118.48067283
_cell_angle_gamma   90.00000000
_symmetry_Int_Tables_number   1
_chemical_formula_structural   CuH27C44Br2(N2O3)2
_chemical_formula_sum   'Cu4 H108 C176 Br8 N16 O24'
_cell_volume   2963.55992750
_cell_formula_units_Z   4
loop_
 _symmetry_equiv_pos_site_id
 _symmetry_equiv_pos_as_xyz
  1  'x, y, z'
loop_
 _atom_site_type_symbol
 _atom_site_label
 _atom_site_symmetry_multiplicity
 _atom_site_fract_x
 _atom_site_fract_y
 _atom_site_fract_z
 _atom_site_occupancy
  Br  Br1  1  0.411880  0.642310  0.719360  1.0
  Br  Br2  1  0.088120  0.142310  0.280640  1.0
  Br  Br3  1  0.192520  0.857690  0.280640  1.0
  Br  Br4  1  0.307480  0.357690  0.719360  1.0
  Br  Br5  1  0.588120  0.357690  0.280640  1.0
  Br  Br6  1  0.911880  0.857690  0.719360  1.0
  Br  Br7  1  0.807480  0.142310  0.719360  1.0
  Br  Br8  1  0.692520  0.642310  0.280640  1.0
  C  C9  1  0.137000  0.048000  0.000000  1.0
  C  C10  1  0.363000  0.548000  0.000000  1.0
  C  C11  1  0.637000  0.452000  1.000000  1.0
  C  C12  1  0.863000  0.952000  0.000000  1.0
  C  C13  1  0.152800  0.333700  0.000000  1.0
  C  C14  1  0.347200  0.833700  0.000000  1.0
  C  C15  1  0.652800  0.166300  0.000000  1.0
  C  C16  1  0.847200  0.666300  1.000000  1.0
  C  C17  1  0.137400  0.148500  0.000000  1.0
  C  C18  1  0.362600  0.648500  1.000000  1.0
  C  C19  1  0.637400  0.351500  0.000000  1.0
  C  C20  1  0.862600  0.851500  1.000000  1.0
  C  C21  1  0.110500  0.860500  0.000000  1.0
  C  C22  1  0.389500  0.360500  0.000000  1.0
  C  C23  1  0.610500  0.639500  0.000000  1.0
  C  C24  1  0.889500  0.139500  0.000000  1.0
  C  C25  1  0.543400  0.459100  0.682000  1.0
  C  C26  1  0.956600  0.959100  0.318000  1.0
  C  C27  1  0.361400  0.040900  0.318000  1.0
  C  C28  1  0.138600  0.540900  0.682000  1.0
  C  C29  1  0.456600  0.540900  0.318000  1.0
  C  C30  1  0.043400  0.040900  0.682000  1.0
  C  C31  1  0.638600  0.959100  0.682000  1.0
  C  C32  1  0.861400  0.459100  0.318000  1.0
  C  C33  1  0.617800  0.428800  0.659600  1.0
  C  C34  1  0.882200  0.928800  0.340400  1.0
  C  C35  1  0.458200  0.071200  0.340400  1.0
  C  C36  1  0.041800  0.571200  0.659600  1.0
  C  C37  1  0.382200  0.571200  0.340400  1.0
  C  C38  1  0.117800  0.071200  0.659600  1.0
  C  C39  1  0.541800  0.928800  0.659600  1.0
  C  C40  1  0.958200  0.428800  0.340400  1.0
  C  C41  1  0.582100  0.385600  0.565800  1.0
  C  C42  1  0.917900  0.885600  0.434200  1.0
  C  C43  1  0.516300  0.114400  0.434200  1.0
  C  C44  1  0.983700  0.614400  0.565800  1.0
  C  C45  1  0.417900  0.614400  0.434200  1.0
  C  C46  1  0.082100  0.114400  0.565800  1.0
  C  C47  1  0.483700  0.885600  0.565800  1.0
  C  C48  1  0.016300  0.385600  0.434200  1.0
  C  C49  1  0.474500  0.378100  0.506600  1.0
  C  C50  1  0.025500  0.878100  0.493400  1.0
  C  C51  1  0.467900  0.121900  0.493400  1.0
  C  C52  1  0.032100  0.621900  0.506600  1.0
  C  C53  1  0.525500  0.621900  0.493400  1.0
  C  C54  1  0.974500  0.121900  0.506600  1.0
  C  C55  1  0.532100  0.878100  0.506600  1.0
  C  C56  1  0.967900  0.378100  0.493400  1.0
  C  C57  1  0.429600  0.337400  0.407400  1.0
  C  C58  1  0.070400  0.837400  0.592600  1.0
  C  C59  1  0.522200  0.162600  0.592600  1.0
  C  C60  1  0.977800  0.662600  0.407400  1.0
  C  C61  1  0.570400  0.662600  0.592600  1.0
  C  C62  1  0.929600  0.162600  0.407400  1.0
  C  C63  1  0.477800  0.837400  0.407400  1.0
  C  C64  1  0.022200  0.337400  0.592600  1.0
  C  C65  1  0.330700  0.328200  0.358000  1.0
  C  C66  1  0.169300  0.828200  0.642000  1.0
  C  C67  1  0.472700  0.171800  0.642000  1.0
  C  C68  1  0.027300  0.671800  0.358000  1.0
  C  C69  1  0.669300  0.671800  0.642000  1.0
  C  C70  1  0.830700  0.171800  0.358000  1.0
  C  C71  1  0.527300  0.828200  0.358000  1.0
  C  C72  1  0.972700  0.328200  0.642000  1.0
  C  C73  1  0.260700  0.357700  0.389800  1.0
  C  C74  1  0.239300  0.857700  0.610200  1.0
  C  C75  1  0.370900  0.142300  0.610200  1.0
  C  C76  1  0.129100  0.642300  0.389800  1.0
  C  C77  1  0.739300  0.642300  0.610200  1.0
  C  C78  1  0.760700  0.142300  0.389800  1.0
  C  C79  1  0.629100  0.857700  0.389800  1.0
  C  C80  1  0.870900  0.357700  0.610200  1.0
  C  C81  1  0.302800  0.399100  0.481000  1.0
  C  C82  1  0.197200  0.899100  0.519000  1.0
  C  C83  1  0.321800  0.100900  0.519000  1.0
  C  C84  1  0.178200  0.600900  0.481000  1.0
  C  C85  1  0.697200  0.600900  0.519000  1.0
  C  C86  1  0.802800  0.100900  0.481000  1.0
  C  C87  1  0.678200  0.899100  0.481000  1.0
  C  C88  1  0.821800  0.399100  0.519000  1.0
  C  C89  1  0.408700  0.411000  0.541400  1.0
  C  C90  1  0.091300  0.911000  0.458600  1.0
  C  C91  1  0.367300  0.089000  0.458600  1.0
  C  C92  1  0.132700  0.589000  0.541400  1.0
  C  C93  1  0.591300  0.589000  0.458600  1.0
  C  C94  1  0.908700  0.089000  0.541400  1.0
  C  C95  1  0.632700  0.911000  0.541400  1.0
  C  C96  1  0.867300  0.411000  0.458600  1.0
  C  C97  1  0.242500  0.337400  0.184200  1.0
  C  C98  1  0.257500  0.837400  0.815800  1.0
  C  C99  1  0.558300  0.162600  0.815800  1.0
  C  C100  1  0.941700  0.662600  0.184200  1.0
  C  C101  1  0.757500  0.662600  0.815800  1.0
  C  C102  1  0.742500  0.162600  0.184200  1.0
  C  C103  1  0.441700  0.837400  0.184200  1.0
  C  C104  1  0.058300  0.337400  0.815800  1.0
  C  C105  1  0.193000  0.286300  0.089200  1.0
  C  C106  1  0.307000  0.786300  0.910800  1.0
  C  C107  1  0.603800  0.213700  0.910800  1.0
  C  C108  1  0.896200  0.713700  0.089200  1.0
  C  C109  1  0.807000  0.713700  0.910800  1.0
  C  C110  1  0.693000  0.213700  0.089200  1.0
  C  C111  1  0.396200  0.786300  0.089200  1.0
  C  C112  1  0.103800  0.286300  0.910800  1.0
  C  C113  1  0.188700  0.194900  0.089000  1.0
  C  C114  1  0.311300  0.694900  0.911000  1.0
  C  C115  1  0.599700  0.305100  0.911000  1.0
  C  C116  1  0.900300  0.805100  0.089000  1.0
  C  C117  1  0.811300  0.805100  0.911000  1.0
  C  C118  1  0.688700  0.305100  0.089000  1.0
  C  C119  1  0.400300  0.694900  0.089000  1.0
  C  C120  1  0.099700  0.194900  0.911000  1.0
  C  C121  1  0.040300  0.600400  0.916600  1.0
  C  C122  1  0.459700  0.100400  0.083400  1.0
  C  C123  1  0.623700  0.899600  0.083400  1.0
  C  C124  1  0.876300  0.399600  0.916600  1.0
  C  C125  1  0.959700  0.399600  0.083400  1.0
  C  C126  1  0.540300  0.899600  0.916600  1.0
  C  C127  1  0.376300  0.100400  0.916600  1.0
  C  C128  1  0.123700  0.600400  0.083400  1.0
  C  C129  1  0.103200  0.613000  0.014400  1.0
  C  C130  1  0.396800  0.113000  0.985600  1.0
  C  C131  1  0.588800  0.887000  0.985600  1.0
  C  C132  1  0.911200  0.387000  0.014400  1.0
  C  C133  1  0.896800  0.387000  0.985600  1.0
  C  C134  1  0.603200  0.887000  0.014400  1.0
  C  C135  1  0.411200  0.113000  0.014400  1.0
  C  C136  1  0.088800  0.613000  0.985600  1.0
  C  C137  1  0.130000  0.706000  0.044000  1.0
  C  C138  1  0.370000  0.206000  0.956000  1.0
  C  C139  1  0.586000  0.794000  0.956000  1.0
  C  C140  1  0.914000  0.294000  0.044000  1.0
  C  C141  1  0.870000  0.294000  0.956000  1.0
  C  C142  1  0.630000  0.794000  0.044000  1.0
  C  C143  1  0.414000  0.206000  0.044000  1.0
  C  C144  1  0.086000  0.706000  0.956000  1.0
  C  C145  1  0.087500  0.769600  0.971000  1.0
  C  C146  1  0.412500  0.269600  0.029000  1.0
  C  C147  1  0.616500  0.730400  0.029000  1.0
  C  C148  1  0.883500  0.230400  0.971000  1.0
  C  C149  1  0.912500  0.230400  0.029000  1.0
  C  C150  1  0.587500  0.730400  0.971000  1.0
  C  C151  1  0.383500  0.269600  0.971000  1.0
  C  C152  1  0.116500  0.769600  0.029000  1.0
  C  C153  1  0.064900  0.921400  0.920000  1.0
  C  C154  1  0.435100  0.421400  0.080000  1.0
  C  C155  1  0.644900  0.578600  0.080000  1.0
  C  C156  1  0.855100  0.078600  0.920000  1.0
  C  C157  1  0.935100  0.078600  0.080000  1.0
  C  C158  1  0.564900  0.578600  0.920000  1.0
  C  C159  1  0.355100  0.421400  0.920000  1.0
  C  C160  1  0.144900  0.921400  0.080000  1.0
  C  C161  1  0.992500  0.893000  0.813000  1.0
  C  C162  1  0.507500  0.393000  0.187000  1.0
  C  C163  1  0.679500  0.607000  0.187000  1.0
  C  C164  1  0.820500  0.107000  0.813000  1.0
  C  C165  1  0.007500  0.107000  0.187000  1.0
  C  C166  1  0.492500  0.607000  0.813000  1.0
  C  C167  1  0.320500  0.393000  0.813000  1.0
  C  C168  1  0.179500  0.893000  0.187000  1.0
  C  C169  1  0.971600  0.811000  0.791200  1.0
  C  C170  1  0.528400  0.311000  0.208800  1.0
  C  C171  1  0.680400  0.689000  0.208800  1.0
  C  C172  1  0.819600  0.189000  0.791200  1.0
  C  C173  1  0.028400  0.189000  0.208800  1.0
  C  C174  1  0.471600  0.689000  0.791200  1.0
  C  C175  1  0.319600  0.311000  0.791200  1.0
  C  C176  1  0.180400  0.811000  0.208800  1.0
  C  C177  1  0.017400  0.742900  0.870800  1.0
  C  C178  1  0.482600  0.242900  0.129200  1.0
  C  C179  1  0.646600  0.757100  0.129200  1.0
  C  C180  1  0.853400  0.257100  0.870800  1.0
  C  C181  1  0.982600  0.257100  0.129200  1.0
  C  C182  1  0.517400  0.757100  0.870800  1.0
  C  C183  1  0.353400  0.242900  0.870800  1.0
  C  C184  1  0.146600  0.742900  0.129200  1.0
  Cu  Cu185  1  0.334690  0.500000  0.669380  1.0
  Cu  Cu186  1  0.165310  1.000000  0.330620  1.0
  Cu  Cu187  1  0.665310  0.500000  0.330620  1.0
  Cu  Cu188  1  0.834690  0.000000  0.669380  1.0
  H  H189  1  0.152800  0.878400  0.067200  1
  H  H190  1  0.347200  0.378400  0.932800  1
  H  H191  1  0.585600  0.621600  0.932800  1
  H  H192  1  0.914400  0.121600  0.067200  1
  H  H193  1  0.847200  0.121600  0.932800  1
  H  H194  1  0.652800  0.621600  0.067200  1
  H  H195  1  0.414400  0.378400  0.067200  1
  H  H196  1  0.085600  0.878400  0.932800  1
  H  H197  1  0.179700  0.719300  0.111800  1
  H  H198  1  0.320300  0.219300  0.888200  1
  H  H199  1  0.567900  0.780700  0.888200  1
  H  H200  1  0.932100  0.280700  0.111800  1
  H  H201  1  0.820300  0.280700  0.888200  1
  H  H202  1  0.679700  0.780700  0.111800  1
  H  H203  1  0.432100  0.219300  0.111800  1
  H  H204  1  0.067900  0.719300  0.888200  1
  H  H205  1  0.158400  0.396200  0.000000  1.0
  H  H206  1  0.341600  0.896200  0.000000  1.0
  H  H207  1  0.658400  0.103800  0.000000  1.0
  H  H208  1  0.841600  0.603800  0.000000  1.0
  H  H209  1  0.567700  0.494300  0.740400  1.0
  H  H210  1  0.932300  0.994300  0.259600  1.0
  H  H211  1  0.327300  0.005700  0.259600  1.0
  H  H212  1  0.172700  0.505700  0.740400  1.0
  H  H213  1  0.432300  0.505700  0.259600  1.0
  H  H214  1  0.067700  0.005700  0.740400  1.0
  H  H215  1  0.672700  0.994300  0.740400  1.0
  H  H216  1  0.827300  0.494300  0.259600  1.0
  H  H217  1  0.690000  0.436100  0.704200  1.0
  H  H218  1  0.810000  0.936100  0.295800  1.0
  H  H219  1  0.485800  0.063900  0.295800  1.0
  H  H220  1  0.014200  0.563900  0.704200  1.0
  H  H221  1  0.310000  0.563900  0.295800  1.0
  H  H222  1  0.190000  0.063900  0.704200  1.0
  H  H223  1  0.514200  0.936100  0.704200  1.0
  H  H224  1  0.985800  0.436100  0.295800  1.0
  H  H225  1  0.629400  0.363100  0.545000  1.0
  H  H226  1  0.870600  0.863100  0.455000  1.0
  H  H227  1  0.584400  0.136900  0.455000  1.0
  H  H228  1  0.915600  0.636900  0.545000  1.0
  H  H229  1  0.370600  0.636900  0.455000  1.0
  H  H230  1  0.129400  0.136900  0.545000  1.0
  H  H231  1  0.415600  0.863100  0.545000  1.0
  H  H232  1  0.084400  0.363100  0.455000  1.0
  H  H233  1  0.473200  0.318300  0.380600  1.0
  H  H234  1  0.026800  0.818300  0.619400  1.0
  H  H235  1  0.592600  0.181700  0.619400  1.0
  H  H236  1  0.907400  0.681700  0.380600  1.0
  H  H237  1  0.526800  0.681700  0.619400  1.0
  H  H238  1  0.973200  0.181700  0.380600  1.0
  H  H239  1  0.407400  0.818300  0.380600  1.0
  H  H240  1  0.092600  0.318300  0.619400  1.0
  H  H241  1  0.187500  0.349700  0.350400  1.0
  H  H242  1  0.312500  0.849700  0.649600  1.0
  H  H243  1  0.337100  0.150300  0.649600  1.0
  H  H244  1  0.162900  0.650300  0.350400  1.0
  H  H245  1  0.812500  0.650300  0.649600  1.0
  H  H246  1  0.687500  0.150300  0.350400  1.0
  H  H247  1  0.662900  0.849700  0.350400  1.0
  H  H248  1  0.837100  0.349700  0.649600  1.0
  H  H249  1  0.256600  0.420600  0.503800  1.0
  H  H250  1  0.243400  0.920600  0.496200  1.0
  H  H251  1  0.252800  0.079400  0.496200  1.0
  H  H252  1  0.247200  0.579400  0.503800  1.0
  H  H253  1  0.743400  0.579400  0.496200  1.0
  H  H254  1  0.756600  0.079400  0.503800  1.0
  H  H255  1  0.747200  0.920600  0.503800  1.0
  H  H256  1  0.752800  0.420600  0.496200  1.0
  H  H257  1  0.221300  0.163700  0.150400  1.0
  H  H258  1  0.278700  0.663700  0.849600  1.0
  H  H259  1  0.570900  0.336300  0.849600  1.0
  H  H260  1  0.929100  0.836300  0.150400  1.0
  H  H261  1  0.778700  0.836300  0.849600  1.0
  H  H262  1  0.721300  0.336300  0.150400  1.0
  H  H263  1  0.429100  0.663700  0.150400  1.0
  H  H264  1  0.070900  0.163700  0.849600  1.0
  H  H265  1  0.962300  0.936100  0.760800  1.0
  H  H266  1  0.537700  0.436100  0.239200  1.0
  H  H267  1  0.701500  0.563900  0.239200  1.0
  H  H268  1  0.798500  0.063900  0.760800  1.0
  H  H269  1  0.037700  0.063900  0.239200  1.0
  H  H270  1  0.462300  0.563900  0.760800  1.0
  H  H271  1  0.298500  0.436100  0.760800  1.0
  H  H272  1  0.201500  0.936100  0.239200  1.0
  H  H273  1  0.128600  0.565500  0.060800  1.0
  H  H274  1  0.371400  0.065500  0.939200  1.0
  H  H275  1  0.567800  0.934500  0.939200  1.0
  H  H276  1  0.932200  0.434500  0.060800  1.0
  H  H277  1  0.871400  0.434500  0.939200  1.0
  H  H278  1  0.628600  0.934500  0.060800  1.0
  H  H279  1  0.432200  0.065500  0.060800  1.0
  H  H280  1  0.067800  0.565500  0.939200  1.0
  H  H281  1  0.022700  0.539600  0.898800  1.0
  H  H282  1  0.477300  0.039600  0.101200  1.0
  H  H283  1  0.623900  0.960400  0.101200  1.0
  H  H284  1  0.876100  0.460400  0.898800  1.0
  H  H285  1  0.977300  0.460400  0.101200  1.0
  H  H286  1  0.522700  0.960400  0.898800  1.0
  H  H287  1  0.376100  0.039600  0.898800  1.0
  H  H288  1  0.123900  0.539600  0.101200  1.0
  H  H289  1  0.927200  0.792700  0.723600  1.0
  H  H290  1  0.572800  0.292700  0.276400  1.0
  H  H291  1  0.703600  0.707300  0.276400  1.0
  H  H292  1  0.796400  0.207300  0.723600  1.0
  H  H293  1  0.072800  0.207300  0.276400  1.0
  H  H294  1  0.427200  0.707300  0.723600  1.0
  H  H295  1  0.296400  0.292700  0.723600  1.0
  H  H296  1  0.203600  0.792700  0.276400  1.0
  N  N297  1  0.448300  0.446200  0.635800  1.0
  N  N298  1  0.051700  0.946200  0.364200  1.0
  N  N299  1  0.312500  0.053800  0.364200  1.0
  N  N300  1  0.187500  0.553800  0.635800  1.0
  N  N301  1  0.551700  0.553800  0.364200  1.0
  N  N302  1  0.948300  0.053800  0.635800  1.0
  N  N303  1  0.687500  0.946200  0.635800  1.0
  N  N304  1  0.812500  0.446200  0.364200  1.0
  N  N305  1  0.999400  0.655400  0.842800  1.0
  N  N306  1  0.500600  0.155400  0.157200  1.0
  N  N307  1  0.656600  0.844600  0.157200  1.0
  N  N308  1  0.843400  0.344600  0.842800  1.0
  N  N309  1  0.000600  0.344600  0.157200  1.0
  N  N310  1  0.499400  0.844600  0.842800  1.0
  N  N311  1  0.343400  0.155400  0.842800  1.0
  N  N312  1  0.156600  0.655400  0.157200  1.0
  O  O313  1  0.283600  0.288100  0.263000  1.0
  O  O314  1  0.216400  0.788100  0.737000  1.0
  O  O315  1  0.520600  0.211900  0.737000  1.0
  O  O316  1  0.979400  0.711900  0.263000  1.0
  O  O317  1  0.716400  0.711900  0.737000  1.0
  O  O318  1  0.783600  0.211900  0.263000  1.0
  O  O319  1  0.479400  0.788100  0.263000  1.0
  O  O320  1  0.020600  0.288100  0.737000  1.0
  O  O321  1  0.243300  0.416900  0.185400  1.0
  O  O322  1  0.256700  0.916900  0.814600  1.0
  O  O323  1  0.557900  0.083100  0.814600  1.0
  O  O324  1  0.942100  0.583100  0.185400  1.0
  O  O325  1  0.756700  0.583100  0.814600  1.0
  O  O326  1  0.743300  0.083100  0.185400  1.0
  O  O327  1  0.442100  0.916900  0.185400  1.0
  O  O328  1  0.057900  0.416900  0.814600  1.0
  O  O329  1  0.080800  0.012100  0.926000  1.0
  O  O330  1  0.419200  0.512100  0.074000  1.0
  O  O331  1  0.654800  0.487900  0.074000  1.0
  O  O332  1  0.845200  0.987900  0.926000  1.0
  O  O333  1  0.919200  0.987900  0.074000  1.0
  O  O334  1  0.580800  0.487900  0.926000  1.0
  O  O335  1  0.345200  0.512100  0.926000  1.0
  O  O336  1  0.154800  0.012100  0.074000  1.0
