# generated using pymatgen
data_CuH27C42N4(ClO3)2
_symmetry_space_group_name_H-M   'P 1'
_cell_length_a   14.38710000
_cell_length_b   15.11910000
_cell_length_c   15.14186704
_cell_angle_alpha   90.00000000
_cell_angle_beta   118.36435170
_cell_angle_gamma   90.00000000
_symmetry_Int_Tables_number   1
_chemical_formula_structural   CuH27C42N4(ClO3)2
_chemical_formula_sum   'Cu4 H108 C168 N16 Cl8 O24'
_cell_volume   2898.23652810
_cell_formula_units_Z   4
loop_
 _symmetry_equiv_pos_site_id
 _symmetry_equiv_pos_as_xyz
  1  'x, y, z'
loop_
 _atom_site_type_symbol
 _atom_site_label
 _atom_site_symmetry_multiplicity
 _atom_site_fract_x
 _atom_site_fract_y
 _atom_site_fract_z
 _atom_site_occupancy
  C  C1  1  0.148800  0.828900  0.000000  1.0
  C  C2  1  0.351200  0.328900  0.000000  1.0
  C  C3  1  0.648800  0.671100  0.000000  1.0
  C  C4  1  0.851200  0.171100  0.000000  1.0
  C  C5  1  0.138500  0.648500  0.000000  1.0
  C  C6  1  0.361500  0.148500  0.000000  1.0
  C  C7  1  0.638500  0.851500  1.000000  1.0
  C  C8  1  0.861500  0.351500  1.000000  1.0
  C  C9  1  0.131000  0.548300  0.000000  1.0
  C  C10  1  0.369000  0.048300  1.000000  1.0
  C  C11  1  0.631000  0.951700  0.000000  1.0
  C  C12  1  0.869000  0.451700  1.000000  1.0
  C  C13  1  0.109800  0.355500  0.000000  1.0
  C  C14  1  0.390200  0.855500  0.000000  1.0
  C  C15  1  0.609800  0.144500  0.000000  1.0
  C  C16  1  0.890200  0.644500  1.000000  1.0
  C  C17  1  0.102900  0.273600  0.000000  1.0
  C  C18  1  0.397100  0.773600  1.000000  1.0
  C  C19  1  0.602900  0.226400  1.000000  1.0
  C  C20  1  0.897100  0.726400  0.000000  1.0
  C  C21  1  0.097200  0.115200  0.000000  1.0
  C  C22  1  0.402800  0.615200  1.000000  1.0
  C  C23  1  0.597200  0.384800  1.000000  1.0
  C  C24  1  0.902800  0.884800  0.000000  1.0
  C  C25  1  0.865100  0.957100  0.313800  1.0
  C  C26  1  0.634900  0.457100  0.686200  1.0
  C  C27  1  0.051300  0.542900  0.686200  1.0
  C  C28  1  0.448700  0.042900  0.313800  1.0
  C  C29  1  0.134900  0.042900  0.686200  1.0
  C  C30  1  0.365100  0.542900  0.313800  1.0
  C  C31  1  0.948700  0.457100  0.313800  1.0
  C  C32  1  0.551300  0.957100  0.686200  1.0
  C  C33  1  0.867300  0.908800  0.453600  1.0
  C  C34  1  0.632700  0.408800  0.546400  1.0
  C  C35  1  0.913700  0.591200  0.546400  1.0
  C  C36  1  0.586300  0.091200  0.453600  1.0
  C  C37  1  0.132700  0.091200  0.546400  1.0
  C  C38  1  0.367300  0.591200  0.453600  1.0
  C  C39  1  0.086300  0.408800  0.453600  1.0
  C  C40  1  0.413700  0.908800  0.546400  1.0
  C  C41  1  0.173100  0.392900  0.183200  1.0
  C  C42  1  0.326900  0.892900  0.816800  1.0
  C  C43  1  0.489900  0.107100  0.816800  1.0
  C  C44  1  0.010100  0.607100  0.183200  1.0
  C  C45  1  0.826900  0.607100  0.816800  1.0
  C  C46  1  0.673100  0.107100  0.183200  1.0
  C  C47  1  0.510100  0.892900  0.183200  1.0
  C  C48  1  0.989900  0.392900  0.816800  1.0
  C  C49  1  0.175000  0.304000  0.197200  1.0
  C  C50  1  0.325000  0.804000  0.802800  1.0
  C  C51  1  0.477800  0.196000  0.802800  1.0
  C  C52  1  0.022200  0.696000  0.197200  1.0
  C  C53  1  0.825000  0.696000  0.802800  1.0
  C  C54  1  0.675000  0.196000  0.197200  1.0
  C  C55  1  0.522200  0.804000  0.197200  1.0
  C  C56  1  0.977800  0.304000  0.802800  1.0
  C  C57  1  0.962400  0.927100  0.339800  1.0
  C  C58  1  0.537600  0.427100  0.660200  1.0
  C  C59  1  0.122600  0.572900  0.660200  1.0
  C  C60  1  0.377400  0.072900  0.339800  1.0
  C  C61  1  0.037600  0.072900  0.660200  1.0
  C  C62  1  0.462400  0.572900  0.339800  1.0
  C  C63  1  0.877400  0.427100  0.339800  1.0
  C  C64  1  0.622600  0.927100  0.660200  1.0
  C  C65  1  0.969500  0.877000  0.492600  1.0
  C  C66  1  0.530500  0.377000  0.507400  1.0
  C  C67  1  0.976900  0.623000  0.507400  1.0
  C  C68  1  0.523100  0.123000  0.492600  1.0
  C  C69  1  0.030500  0.123000  0.507400  1.0
  C  C70  1  0.469500  0.623000  0.492600  1.0
  C  C71  1  0.023100  0.377000  0.492600  1.0
  C  C72  1  0.476900  0.877000  0.507400  1.0
  C  C73  1  0.817900  0.897300  0.516800  1.0
  C  C74  1  0.682100  0.397300  0.483200  1.0
  C  C75  1  0.801100  0.602700  0.483200  1.0
  C  C76  1  0.698900  0.102700  0.516800  1.0
  C  C77  1  0.182100  0.102700  0.483200  1.0
  C  C78  1  0.317900  0.602700  0.516800  1.0
  C  C79  1  0.198900  0.397300  0.516800  1.0
  C  C80  1  0.301100  0.897300  0.483200  1.0
  C  C81  1  0.020600  0.886600  0.431000  1.0
  C  C82  1  0.479400  0.386600  0.569000  1.0
  C  C83  1  0.089600  0.613400  0.569000  1.0
  C  C84  1  0.410400  0.113400  0.431000  1.0
  C  C85  1  0.979400  0.113400  0.569000  1.0
  C  C86  1  0.520600  0.613400  0.431000  1.0
  C  C87  1  0.910400  0.386600  0.431000  1.0
  C  C88  1  0.589600  0.886600  0.569000  1.0
  C  C89  1  0.021600  0.836500  0.588200  1.0
  C  C90  1  0.478400  0.336500  0.411800  1.0
  C  C91  1  0.933400  0.663500  0.411800  1.0
  C  C92  1  0.566600  0.163500  0.588200  1.0
  C  C93  1  0.978400  0.163500  0.411800  1.0
  C  C94  1  0.521600  0.663500  0.588200  1.0
  C  C95  1  0.066600  0.336500  0.588200  1.0
  C  C96  1  0.433400  0.836500  0.411800  1.0
  C  C97  1  0.866100  0.854500  0.603800  1.0
  C  C98  1  0.633900  0.354500  0.396200  1.0
  C  C99  1  0.762300  0.645500  0.396200  1.0
  C  C100  1  0.737700  0.145500  0.603800  1.0
  C  C101  1  0.133900  0.145500  0.396200  1.0
  C  C102  1  0.366100  0.645500  0.603800  1.0
  C  C103  1  0.237700  0.354500  0.603800  1.0
  C  C104  1  0.262300  0.854500  0.396200  1.0
  C  C105  1  0.970700  0.829000  0.641200  1.0
  C  C106  1  0.529300  0.329000  0.358800  1.0
  C  C107  1  0.829500  0.671000  0.358800  1.0
  C  C108  1  0.670500  0.171000  0.641200  1.0
  C  C109  1  0.029300  0.171000  0.358800  1.0
  C  C110  1  0.470700  0.671000  0.641200  1.0
  C  C111  1  0.170500  0.329000  0.641200  1.0
  C  C112  1  0.329500  0.829000  0.358800  1.0
  C  C113  1  0.058200  0.835200  0.815000  1.0
  C  C114  1  0.441800  0.335200  0.185000  1.0
  C  C115  1  0.743200  0.664800  0.185000  1.0
  C  C116  1  0.756800  0.164800  0.815000  1.0
  C  C117  1  0.941800  0.164800  0.185000  1.0
  C  C118  1  0.558200  0.664800  0.815000  1.0
  C  C119  1  0.256800  0.335200  0.815000  1.0
  C  C120  1  0.243200  0.835200  0.185000  1.0
  C  C121  1  0.102700  0.784200  0.912000  1.0
  C  C122  1  0.397300  0.284200  0.088000  1.0
  C  C123  1  0.690700  0.715800  0.088000  1.0
  C  C124  1  0.809300  0.215800  0.912000  1.0
  C  C125  1  0.897300  0.215800  0.088000  1.0
  C  C126  1  0.602700  0.715800  0.912000  1.0
  C  C127  1  0.309300  0.284200  0.912000  1.0
  C  C128  1  0.190700  0.784200  0.088000  1.0
  C  C129  1  0.096500  0.691200  0.912200  1.0
  C  C130  1  0.403500  0.191200  0.087800  1.0
  C  C131  1  0.684300  0.808800  0.087800  1.0
  C  C132  1  0.815700  0.308800  0.912200  1.0
  C  C133  1  0.903500  0.308800  0.087800  1.0
  C  C134  1  0.596500  0.808800  0.912200  1.0
  C  C135  1  0.315700  0.191200  0.912200  1.0
  C  C136  1  0.184300  0.691200  0.087800  1.0
  C  C137  1  0.140200  0.416800  0.076600  1.0
  C  C138  1  0.359800  0.916800  0.923400  1.0
  C  C139  1  0.563600  0.083200  0.923400  1.0
  C  C140  1  0.936400  0.583200  0.076600  1.0
  C  C141  1  0.859800  0.583200  0.923400  1.0
  C  C142  1  0.640200  0.083200  0.076600  1.0
  C  C143  1  0.436400  0.916800  0.076600  1.0
  C  C144  1  0.063600  0.416800  0.923400  1.0
  C  C145  1  0.085100  0.192800  0.956000  1.0
  C  C146  1  0.414900  0.692800  0.044000  1.0
  C  C147  1  0.629100  0.307200  0.044000  1.0
  C  C148  1  0.870900  0.807200  0.956000  1.0
  C  C149  1  0.914900  0.807200  0.044000  1.0
  C  C150  1  0.585100  0.307200  0.956000  1.0
  C  C151  1  0.370900  0.692800  0.956000  1.0
  C  C152  1  0.129100  0.192800  0.044000  1.0
  C  C153  1  0.015400  0.239800  0.864200  1.0
  C  C154  1  0.484600  0.739800  0.135800  1.0
  C  C155  1  0.651200  0.260200  0.135800  1.0
  C  C156  1  0.848800  0.760200  0.864200  1.0
  C  C157  1  0.984600  0.760200  0.135800  1.0
  C  C158  1  0.515400  0.260200  0.864200  1.0
  C  C159  1  0.348800  0.739800  0.864200  1.0
  C  C160  1  0.151200  0.239800  0.135800  1.0
  C  C161  1  0.030100  0.086800  0.910200  1.0
  C  C162  1  0.469900  0.586800  0.089800  1.0
  C  C163  1  0.619900  0.413200  0.089800  1.0
  C  C164  1  0.880100  0.913200  0.910200  1.0
  C  C165  1  0.969900  0.913200  0.089800  1.0
  C  C166  1  0.530100  0.413200  0.910200  1.0
  C  C167  1  0.380100  0.586800  0.910200  1.0
  C  C168  1  0.119900  0.086800  0.089800  1.0
  Cl  Cl169  1  0.695200  0.133400  0.284400  1.0
  Cl  Cl170  1  0.804800  0.633400  0.715600  1.0
  Cl  Cl171  1  0.910800  0.366600  0.715600  1.0
  Cl  Cl172  1  0.589200  0.866600  0.284400  1.0
  Cl  Cl173  1  0.304800  0.866600  0.715600  1.0
  Cl  Cl174  1  0.195200  0.366600  0.284400  1.0
  Cl  Cl175  1  0.089200  0.633400  0.284400  1.0
  Cl  Cl176  1  0.410800  0.133400  0.715600  1.0
  Cu  Cu177  1  0.662660  0.000000  0.325320  1.0
  Cu  Cu178  1  0.837340  0.500000  0.674680  1.0
  Cu  Cu179  1  0.337340  0.000000  0.674680  1.0
  Cu  Cu180  1  0.162660  0.500000  0.325320  1.0
  H  H181  1  0.090900  0.380400  0.936000  1
  H  H182  1  0.409100  0.880400  0.064000  1
  H  H183  1  0.654900  0.119600  0.064000  1
  H  H184  1  0.845100  0.619600  0.936000  1
  H  H185  1  0.909100  0.619600  0.064000  1
  H  H186  1  0.590900  0.119600  0.936000  1
  H  H187  1  0.345100  0.880400  0.936000  1
  H  H188  1  0.154900  0.380400  0.064000  1
  H  H189  1  0.185700  0.438000  0.232200  1
  H  H190  1  0.314300  0.938000  0.767800  1
  H  H191  1  0.453500  0.062000  0.767800  1
  H  H192  1  0.046500  0.562000  0.232200  1
  H  H193  1  0.814300  0.562000  0.767800  1
  H  H194  1  0.685700  0.062000  0.232200  1
  H  H195  1  0.546500  0.938000  0.232200  1
  H  H196  1  0.953500  0.438000  0.767800  1
  H  H197  1  0.201500  0.283000  0.264600  1
  H  H198  1  0.298500  0.783000  0.735400  1
  H  H199  1  0.436900  0.217000  0.735400  1
  H  H200  1  0.063100  0.717000  0.264600  1
  H  H201  1  0.798500  0.717000  0.735400  1
  H  H202  1  0.701500  0.217000  0.264600  1
  H  H203  1  0.563100  0.783000  0.264600  1
  H  H204  1  0.936900  0.283000  0.735400  1
  H  H205  1  0.063700  0.193000  0.885600  1
  H  H206  1  0.436300  0.693000  0.114400  1
  H  H207  1  0.678100  0.307000  0.114400  1
  H  H208  1  0.821900  0.807000  0.885600  1
  H  H209  1  0.936300  0.807000  0.114400  1
  H  H210  1  0.563700  0.307000  0.885600  1
  H  H211  1  0.321900  0.693000  0.885600  1
  H  H212  1  0.178100  0.193000  0.114400  1
  H  H213  1  0.086500  0.067700  0.955000  1
  H  H214  1  0.413500  0.567700  0.045000  1
  H  H215  1  0.631500  0.432300  0.045000  1
  H  H216  1  0.868500  0.932300  0.955000  1
  H  H217  1  0.913500  0.932300  0.045000  1
  H  H218  1  0.586500  0.432300  0.955000  1
  H  H219  1  0.368500  0.567700  0.955000  1
  H  H220  1  0.131500  0.067700  0.045000  1
  H  H221  1  0.133200  0.024600  0.101600  1
  H  H222  1  0.366800  0.524600  0.898400  1
  H  H223  1  0.531600  0.475400  0.898400  1
  H  H224  1  0.968400  0.975400  0.101600  1
  H  H225  1  0.866800  0.975400  0.898400  1
  H  H226  1  0.633200  0.475400  0.101600  1
  H  H227  1  0.468400  0.524600  0.101600  1
  H  H228  1  0.031600  0.024600  0.898400  1
  H  H229  1  0.151700  0.891700  0.000000  1.0
  H  H230  1  0.348300  0.391700  0.000000  1.0
  H  H231  1  0.651700  0.608300  0.000000  1.0
  H  H232  1  0.848300  0.108300  1.000000  1.0
  H  H233  1  0.829900  0.987900  0.252000  1.0
  H  H234  1  0.670100  0.487900  0.748000  1.0
  H  H235  1  0.077900  0.512100  0.748000  1.0
  H  H236  1  0.422100  0.012100  0.252000  1.0
  H  H237  1  0.170100  0.012100  0.748000  1.0
  H  H238  1  0.329900  0.512100  0.252000  1.0
  H  H239  1  0.922100  0.487900  0.252000  1.0
  H  H240  1  0.577900  0.987900  0.748000  1.0
  H  H241  1  0.991100  0.933900  0.295200  1.0
  H  H242  1  0.508900  0.433900  0.704800  1.0
  H  H243  1  0.195900  0.566100  0.704800  1.0
  H  H244  1  0.304100  0.066100  0.295200  1.0
  H  H245  1  0.008900  0.066100  0.704800  1.0
  H  H246  1  0.491100  0.566100  0.295200  1.0
  H  H247  1  0.804100  0.433900  0.295200  1.0
  H  H248  1  0.695900  0.933900  0.704800  1.0
  H  H249  1  0.749400  0.920900  0.495600  1.0
  H  H250  1  0.750600  0.420900  0.504400  1.0
  H  H251  1  0.753800  0.579100  0.504400  1.0
  H  H252  1  0.746200  0.079100  0.495600  1.0
  H  H253  1  0.250600  0.079100  0.504400  1.0
  H  H254  1  0.249400  0.579100  0.495600  1.0
  H  H255  1  0.246200  0.420900  0.495600  1.0
  H  H256  1  0.253800  0.920900  0.504400  1.0
  H  H257  1  0.090400  0.866100  0.452200  1.0
  H  H258  1  0.409600  0.366100  0.547800  1.0
  H  H259  1  0.138200  0.633900  0.547800  1.0
  H  H260  1  0.361800  0.133900  0.452200  1.0
  H  H261  1  0.909600  0.133900  0.547800  1.0
  H  H262  1  0.590400  0.633900  0.452200  1.0
  H  H263  1  0.861800  0.366100  0.452200  1.0
  H  H264  1  0.638200  0.866100  0.547800  1.0
  H  H265  1  0.091800  0.815100  0.613800  1.0
  H  H266  1  0.408200  0.315100  0.386200  1.0
  H  H267  1  0.978000  0.684900  0.386200  1.0
  H  H268  1  0.522000  0.184900  0.613800  1.0
  H  H269  1  0.908200  0.184900  0.386200  1.0
  H  H270  1  0.591800  0.684900  0.613800  1.0
  H  H271  1  0.022000  0.315100  0.613800  1.0
  H  H272  1  0.478000  0.815100  0.386200  1.0
  H  H273  1  0.829200  0.841400  0.640200  1.0
  H  H274  1  0.670800  0.341400  0.359800  1.0
  H  H275  1  0.689000  0.658600  0.359800  1.0
  H  H276  1  0.811000  0.158600  0.640200  1.0
  H  H277  1  0.170800  0.158600  0.359800  1.0
  H  H278  1  0.329200  0.658600  0.640200  1.0
  H  H279  1  0.311000  0.341400  0.640200  1.0
  H  H280  1  0.189000  0.841400  0.359800  1.0
  H  H281  1  0.063000  0.659300  0.851000  1.0
  H  H282  1  0.437000  0.159300  0.149000  1.0
  H  H283  1  0.712000  0.840700  0.149000  1.0
  H  H284  1  0.788000  0.340700  0.851000  1.0
  H  H285  1  0.937000  0.340700  0.149000  1.0
  H  H286  1  0.563000  0.840700  0.851000  1.0
  H  H287  1  0.288000  0.159300  0.851000  1.0
  H  H288  1  0.212000  0.659300  0.149000  1.0
  N  N289  1  0.814300  0.948300  0.364400  1.0
  N  N290  1  0.685700  0.448300  0.635600  1.0
  N  N291  1  0.949900  0.551700  0.635600  1.0
  N  N292  1  0.550100  0.051700  0.364400  1.0
  N  N293  1  0.185700  0.051700  0.635600  1.0
  N  N294  1  0.314300  0.551700  0.364400  1.0
  N  N295  1  0.050100  0.448300  0.364400  1.0
  N  N296  1  0.449900  0.948300  0.635600  1.0
  N  N297  1  0.993800  0.154900  0.848800  1.0
  N  N298  1  0.506200  0.654900  0.151200  1.0
  N  N299  1  0.645000  0.345100  0.151200  1.0
  N  N300  1  0.855000  0.845100  0.848800  1.0
  N  N301  1  0.006200  0.845100  0.151200  1.0
  N  N302  1  0.493800  0.345100  0.848800  1.0
  N  N303  1  0.355000  0.654900  0.848800  1.0
  N  N304  1  0.145000  0.154900  0.151200  1.0
  O  O305  1  0.018100  0.783900  0.735400  1.0
  O  O306  1  0.481900  0.283900  0.264600  1.0
  O  O307  1  0.782700  0.716100  0.264600  1.0
  O  O308  1  0.717300  0.216100  0.735400  1.0
  O  O309  1  0.981900  0.216100  0.264600  1.0
  O  O310  1  0.518100  0.716100  0.735400  1.0
  O  O311  1  0.217300  0.283900  0.735400  1.0
  O  O312  1  0.282700  0.783900  0.264600  1.0
  O  O313  1  0.054100  0.915300  0.812600  1.0
  O  O314  1  0.445900  0.415300  0.187400  1.0
  O  O315  1  0.741500  0.584700  0.187400  1.0
  O  O316  1  0.758500  0.084700  0.812600  1.0
  O  O317  1  0.945900  0.084700  0.187400  1.0
  O  O318  1  0.554100  0.584700  0.812600  1.0
  O  O319  1  0.258500  0.415300  0.812600  1.0
  O  O320  1  0.241500  0.915300  0.187400  1.0
  O  O321  1  0.150100  0.510500  0.072800  1.0
  O  O322  1  0.349900  0.010500  0.927200  1.0
  O  O323  1  0.577300  0.989500  0.927200  1.0
  O  O324  1  0.922700  0.489500  0.072800  1.0
  O  O325  1  0.849900  0.489500  0.927200  1.0
  O  O326  1  0.650100  0.989500  0.072800  1.0
  O  O327  1  0.422700  0.010500  0.072800  1.0
  O  O328  1  0.077300  0.510500  0.927200  1.0
