# generated using pymatgen
data_HgH27C44Br2(N2O3)2
_symmetry_space_group_name_H-M   'P 1'
_cell_length_a   14.65970000
_cell_length_b   15.08790000
_cell_length_c   15.31449374
_cell_angle_alpha   90.00000000
_cell_angle_beta   118.59542584
_cell_angle_gamma   90.00000000
_symmetry_Int_Tables_number   1
_chemical_formula_structural   HgH27C44Br2(N2O3)2
_chemical_formula_sum   'Hg4 H108 C176 Br8 N16 O24'
_cell_volume   2974.14077511
_cell_formula_units_Z   4
loop_
 _symmetry_equiv_pos_site_id
 _symmetry_equiv_pos_as_xyz
  1  'x, y, z'
loop_
 _atom_site_type_symbol
 _atom_site_label
 _atom_site_symmetry_multiplicity
 _atom_site_fract_x
 _atom_site_fract_y
 _atom_site_fract_z
 _atom_site_occupancy
  Br  Br1  1  0.071770  0.153370  0.258860  1.0
  Br  Br2  1  0.428230  0.653370  0.741140  1.0
  Br  Br3  1  0.312910  0.346630  0.741140  1.0
  Br  Br4  1  0.187090  0.846630  0.258860  1.0
  Br  Br5  1  0.928230  0.846630  0.741140  1.0
  Br  Br6  1  0.571770  0.346630  0.258860  1.0
  Br  Br7  1  0.687090  0.653370  0.258860  1.0
  Br  Br8  1  0.812910  0.153370  0.741140  1.0
  C  C9  1  0.351500  0.834100  0.000000  1.0
  C  C10  1  0.148500  0.334100  0.000000  1.0
  C  C11  1  0.851500  0.665900  0.000000  1.0
  C  C12  1  0.648500  0.165900  0.000000  1.0
  C  C13  1  0.367700  0.648900  0.000000  1.0
  C  C14  1  0.132300  0.148900  0.000000  1.0
  C  C15  1  0.867700  0.851100  0.000000  1.0
  C  C16  1  0.632300  0.351100  0.000000  1.0
  C  C17  1  0.380000  0.552800  0.000000  1.0
  C  C18  1  0.120000  0.052800  1.000000  1.0
  C  C19  1  0.880000  0.947200  0.000000  1.0
  C  C20  1  0.620000  0.447200  0.000000  1.0
  C  C21  1  0.396300  0.114200  1.000000  1.0
  C  C22  1  0.103700  0.614200  0.000000  1.0
  C  C23  1  0.896300  0.385800  0.000000  1.0
  C  C24  1  0.603700  0.885800  0.000000  1.0
  C  C25  1  0.938800  0.954200  0.317400  1.0
  C  C26  1  0.561200  0.454200  0.682600  1.0
  C  C27  1  0.121400  0.545800  0.682600  1.0
  C  C28  1  0.378600  0.045800  0.317400  1.0
  C  C29  1  0.061200  0.045800  0.682600  1.0
  C  C30  1  0.438800  0.545800  0.317400  1.0
  C  C31  1  0.878600  0.454200  0.317400  1.0
  C  C32  1  0.621400  0.954200  0.682600  1.0
  C  C33  1  0.869500  0.921500  0.349400  1.0
  C  C34  1  0.630500  0.421500  0.650600  1.0
  C  C35  1  0.020100  0.578500  0.650600  1.0
  C  C36  1  0.479900  0.078500  0.349400  1.0
  C  C37  1  0.130500  0.078500  0.650600  1.0
  C  C38  1  0.369500  0.578500  0.349400  1.0
  C  C39  1  0.979900  0.421500  0.349400  1.0
  C  C40  1  0.520100  0.921500  0.650600  1.0
  C  C41  1  0.909300  0.880900  0.440600  1.0
  C  C42  1  0.590700  0.380900  0.559400  1.0
  C  C43  1  0.968700  0.619100  0.559400  1.0
  C  C44  1  0.531300  0.119100  0.440600  1.0
  C  C45  1  0.090700  0.119100  0.559400  1.0
  C  C46  1  0.409300  0.619100  0.440600  1.0
  C  C47  1  0.031300  0.380900  0.440600  1.0
  C  C48  1  0.468700  0.880900  0.559400  1.0
  C  C49  1  0.019700  0.874500  0.498800  1.0
  C  C50  1  0.480300  0.374500  0.501200  1.0
  C  C51  1  0.020900  0.625500  0.501200  1.0
  C  C52  1  0.479100  0.125500  0.498800  1.0
  C  C53  1  0.980300  0.125500  0.501200  1.0
  C  C54  1  0.519700  0.625500  0.498800  1.0
  C  C55  1  0.979100  0.374500  0.498800  1.0
  C  C56  1  0.520900  0.874500  0.501200  1.0
  C  C57  1  0.067900  0.836900  0.593600  1.0
  C  C58  1  0.432100  0.336900  0.406400  1.0
  C  C59  1  0.974300  0.663100  0.406400  1.0
  C  C60  1  0.525700  0.163100  0.593600  1.0
  C  C61  1  0.932100  0.163100  0.406400  1.0
  C  C62  1  0.567900  0.663100  0.593600  1.0
  C  C63  1  0.025700  0.336900  0.593600  1.0
  C  C64  1  0.474300  0.836900  0.406400  1.0
  C  C65  1  0.172200  0.828600  0.643200  1.0
  C  C66  1  0.327800  0.328600  0.356800  1.0
  C  C67  1  0.029000  0.671400  0.356800  1.0
  C  C68  1  0.471000  0.171400  0.643200  1.0
  C  C69  1  0.827800  0.171400  0.356800  1.0
  C  C70  1  0.672200  0.671400  0.643200  1.0
  C  C71  1  0.971000  0.328600  0.643200  1.0
  C  C72  1  0.529000  0.828600  0.356800  1.0
  C  C73  1  0.236900  0.858700  0.607800  1.0
  C  C74  1  0.263100  0.358700  0.392200  1.0
  C  C75  1  0.129100  0.641300  0.392200  1.0
  C  C76  1  0.370900  0.141300  0.607800  1.0
  C  C77  1  0.763100  0.141300  0.392200  1.0
  C  C78  1  0.736900  0.641300  0.607800  1.0
  C  C79  1  0.870900  0.358700  0.607800  1.0
  C  C80  1  0.629100  0.858700  0.392200  1.0
  C  C81  1  0.187500  0.893200  0.511600  1.0
  C  C82  1  0.312500  0.393200  0.488400  1.0
  C  C83  1  0.175900  0.606800  0.488400  1.0
  C  C84  1  0.324100  0.106800  0.511600  1.0
  C  C85  1  0.812500  0.106800  0.488400  1.0
  C  C86  1  0.687500  0.606800  0.511600  1.0
  C  C87  1  0.824100  0.393200  0.511600  1.0
  C  C88  1  0.675900  0.893200  0.488400  1.0
  C  C89  1  0.081900  0.904300  0.457000  1.0
  C  C90  1  0.418100  0.404300  0.543000  1.0
  C  C91  1  0.124900  0.595700  0.543000  1.0
  C  C92  1  0.375100  0.095700  0.457000  1.0
  C  C93  1  0.918100  0.095700  0.543000  1.0
  C  C94  1  0.581900  0.595700  0.457000  1.0
  C  C95  1  0.875100  0.404300  0.457000  1.0
  C  C96  1  0.624900  0.904300  0.543000  1.0
  C  C97  1  0.260300  0.838700  0.817200  1.0
  C  C98  1  0.239700  0.338700  0.182800  1.0
  C  C99  1  0.943100  0.661300  0.182800  1.0
  C  C100  1  0.556900  0.161300  0.817200  1.0
  C  C101  1  0.739700  0.161300  0.182800  1.0
  C  C102  1  0.760300  0.661300  0.817200  1.0
  C  C103  1  0.056900  0.338700  0.817200  1.0
  C  C104  1  0.443100  0.838700  0.182800  1.0
  C  C105  1  0.308500  0.786300  0.908400  1.0
  C  C106  1  0.191500  0.286300  0.091600  1.0
  C  C107  1  0.900100  0.713700  0.091600  1.0
  C  C108  1  0.599900  0.213700  0.908400  1.0
  C  C109  1  0.691500  0.213700  0.091600  1.0
  C  C110  1  0.808500  0.713700  0.908400  1.0
  C  C111  1  0.099900  0.286300  0.908400  1.0
  C  C112  1  0.400100  0.786300  0.091600  1.0
  C  C113  1  0.317200  0.695200  0.909200  1.0
  C  C114  1  0.182800  0.195200  0.090800  1.0
  C  C115  1  0.908000  0.804800  0.090800  1.0
  C  C116  1  0.592000  0.304800  0.909200  1.0
  C  C117  1  0.682800  0.304800  0.090800  1.0
  C  C118  1  0.817200  0.804800  0.909200  1.0
  C  C119  1  0.092000  0.195200  0.909200  1.0
  C  C120  1  0.408000  0.695200  0.090800  1.0
  C  C121  1  0.434400  0.418000  0.085000  1.0
  C  C122  1  0.065600  0.918000  0.915000  1.0
  C  C123  1  0.849400  0.082000  0.915000  1.0
  C  C124  1  0.650600  0.582000  0.085000  1.0
  C  C125  1  0.565600  0.582000  0.915000  1.0
  C  C126  1  0.934400  0.082000  0.085000  1.0
  C  C127  1  0.150600  0.918000  0.085000  1.0
  C  C128  1  0.349400  0.418000  0.915000  1.0
  C  C129  1  0.388300  0.358100  0.016200  1.0
  C  C130  1  0.111700  0.858100  0.983800  1.0
  C  C131  1  0.872100  0.141900  0.983800  1.0
  C  C132  1  0.627900  0.641900  0.016200  1.0
  C  C133  1  0.611700  0.641900  0.983800  1.0
  C  C134  1  0.888300  0.141900  0.016200  1.0
  C  C135  1  0.127900  0.858100  0.016200  1.0
  C  C136  1  0.372100  0.358100  0.983800  1.0
  C  C137  1  0.408500  0.265300  0.035000  1.0
  C  C138  1  0.091500  0.765300  0.965000  1.0
  C  C139  1  0.873500  0.234700  0.965000  1.0
  C  C140  1  0.626500  0.734700  0.035000  1.0
  C  C141  1  0.591500  0.734700  0.965000  1.0
  C  C142  1  0.908500  0.234700  0.035000  1.0
  C  C143  1  0.126500  0.765300  0.035000  1.0
  C  C144  1  0.373500  0.265300  0.965000  1.0
  C  C145  1  0.369100  0.204600  0.971800  1.0
  C  C146  1  0.130900  0.704600  0.028200  1.0
  C  C147  1  0.897300  0.295400  0.028200  1.0
  C  C148  1  0.602700  0.795400  0.971800  1.0
  C  C149  1  0.630900  0.795400  0.028200  1.0
  C  C150  1  0.869100  0.295400  0.971800  1.0
  C  C151  1  0.102700  0.704600  0.971800  1.0
  C  C152  1  0.397300  0.204600  0.028200  1.0
  C  C153  1  0.470800  0.098000  0.095600  1.0
  C  C154  1  0.029200  0.598000  0.904400  1.0
  C  C155  1  0.875200  0.402000  0.904400  1.0
  C  C156  1  0.624800  0.902000  0.095600  1.0
  C  C157  1  0.529200  0.902000  0.904400  1.0
  C  C158  1  0.970800  0.402000  0.095600  1.0
  C  C159  1  0.124800  0.598000  0.095600  1.0
  C  C160  1  0.375200  0.098000  0.904400  1.0
  C  C161  1  0.488000  0.243600  0.136200  1.0
  C  C162  1  0.012000  0.743600  0.863800  1.0
  C  C163  1  0.851800  0.256400  0.863800  1.0
  C  C164  1  0.648200  0.756400  0.136200  1.0
  C  C165  1  0.512000  0.756400  0.863800  1.0
  C  C166  1  0.988000  0.256400  0.136200  1.0
  C  C167  1  0.148200  0.743600  0.136200  1.0
  C  C168  1  0.351800  0.243600  0.863800  1.0
  C  C169  1  0.530800  0.307300  0.201800  1.0
  C  C170  1  0.969200  0.807300  0.798200  1.0
  C  C171  1  0.829000  0.192700  0.798200  1.0
  C  C172  1  0.671000  0.692700  0.201800  1.0
  C  C173  1  0.469200  0.692700  0.798200  1.0
  C  C174  1  0.030800  0.192700  0.201800  1.0
  C  C175  1  0.171000  0.807300  0.201800  1.0
  C  C176  1  0.329000  0.307300  0.798200  1.0
  C  C177  1  0.512600  0.402900  0.185000  1.0
  C  C178  1  0.987400  0.902900  0.815000  1.0
  C  C179  1  0.827600  0.097100  0.815000  1.0
  C  C180  1  0.672400  0.597100  0.185000  1.0
  C  C181  1  0.487400  0.597100  0.815000  1.0
  C  C182  1  0.012600  0.097100  0.185000  1.0
  C  C183  1  0.172400  0.902900  0.185000  1.0
  C  C184  1  0.327600  0.402900  0.815000  1.0
  H  H185  1  0.364000  0.067200  0.954200  1
  H  H186  1  0.136000  0.567200  0.045800  1
  H  H187  1  0.909800  0.432800  0.045800  1
  H  H188  1  0.590200  0.932800  0.954200  1
  H  H189  1  0.636000  0.932800  0.045800  1
  H  H190  1  0.864000  0.432800  0.954200  1
  H  H191  1  0.090200  0.567200  0.954200  1
  H  H192  1  0.409800  0.067200  0.045800  1
  H  H193  1  0.338900  0.377200  0.950400  1
  H  H194  1  0.161100  0.877200  0.049600  1
  H  H195  1  0.888500  0.122800  0.049600  1
  H  H196  1  0.611500  0.622800  0.950400  1
  H  H197  1  0.661100  0.622800  0.049600  1
  H  H198  1  0.838900  0.122800  0.950400  1
  H  H199  1  0.111500  0.877200  0.950400  1
  H  H200  1  0.388500  0.377200  0.049600  1
  H  H201  1  0.321000  0.218800  0.905000  1
  H  H202  1  0.179000  0.718800  0.095000  1
  H  H203  1  0.916000  0.281200  0.095000  1
  H  H204  1  0.584000  0.781200  0.905000  1
  H  H205  1  0.679000  0.781200  0.095000  1
  H  H206  1  0.821000  0.281200  0.905000  1
  H  H207  1  0.084000  0.718800  0.905000  1
  H  H208  1  0.416000  0.218800  0.095000  1
  H  H209  1  0.347700  0.897000  0.000000  1.0
  H  H210  1  0.152300  0.397000  0.000000  1.0
  H  H211  1  0.847700  0.603000  1.000000  1.0
  H  H212  1  0.652300  0.103000  0.000000  1.0
  H  H213  1  0.910100  0.984900  0.255800  1.0
  H  H214  1  0.589900  0.484900  0.744200  1.0
  H  H215  1  0.154300  0.515100  0.744200  1.0
  H  H216  1  0.345700  0.015100  0.255800  1.0
  H  H217  1  0.089900  0.015100  0.744200  1.0
  H  H218  1  0.410100  0.515100  0.255800  1.0
  H  H219  1  0.845700  0.484900  0.255800  1.0
  H  H220  1  0.654300  0.984900  0.744200  1.0
  H  H221  1  0.796500  0.927400  0.308400  1.0
  H  H222  1  0.703500  0.427400  0.691600  1.0
  H  H223  1  0.988100  0.572600  0.691600  1.0
  H  H224  1  0.511900  0.072600  0.308400  1.0
  H  H225  1  0.203500  0.072600  0.691600  1.0
  H  H226  1  0.296500  0.572600  0.308400  1.0
  H  H227  1  0.011900  0.427400  0.308400  1.0
  H  H228  1  0.488100  0.927400  0.691600  1.0
  H  H229  1  0.864900  0.857900  0.464400  1.0
  H  H230  1  0.635100  0.357900  0.535600  1.0
  H  H231  1  0.900500  0.642100  0.535600  1.0
  H  H232  1  0.599500  0.142100  0.464400  1.0
  H  H233  1  0.135100  0.142100  0.535600  1.0
  H  H234  1  0.364900  0.642100  0.464400  1.0
  H  H235  1  0.099500  0.357900  0.464400  1.0
  H  H236  1  0.400500  0.857900  0.535600  1.0
  H  H237  1  0.027400  0.817200  0.623200  1.0
  H  H238  1  0.472600  0.317200  0.376800  1.0
  H  H239  1  0.904200  0.682800  0.376800  1.0
  H  H240  1  0.595800  0.182800  0.623200  1.0
  H  H241  1  0.972600  0.182800  0.376800  1.0
  H  H242  1  0.527400  0.682800  0.623200  1.0
  H  H243  1  0.095800  0.317200  0.623200  1.0
  H  H244  1  0.404200  0.817200  0.376800  1.0
  H  H245  1  0.310500  0.856100  0.646400  1.0
  H  H246  1  0.189500  0.356100  0.353600  1.0
  H  H247  1  0.164100  0.643900  0.353600  1.0
  H  H248  1  0.335900  0.143900  0.646400  1.0
  H  H249  1  0.689500  0.143900  0.353600  1.0
  H  H250  1  0.810500  0.643900  0.646400  1.0
  H  H251  1  0.835900  0.356100  0.646400  1.0
  H  H252  1  0.664100  0.856100  0.353600  1.0
  H  H253  1  0.229100  0.909900  0.482200  1.0
  H  H254  1  0.270900  0.409900  0.517800  1.0
  H  H255  1  0.246900  0.590100  0.517800  1.0
  H  H256  1  0.253100  0.090100  0.482200  1.0
  H  H257  1  0.770900  0.090100  0.517800  1.0
  H  H258  1  0.729100  0.590100  0.482200  1.0
  H  H259  1  0.753100  0.409900  0.482200  1.0
  H  H260  1  0.746900  0.909900  0.517800  1.0
  H  H261  1  0.289000  0.663500  0.848200  1.0
  H  H262  1  0.211000  0.163500  0.151800  1.0
  H  H263  1  0.940800  0.836500  0.151800  1.0
  H  H264  1  0.559200  0.336500  0.848200  1.0
  H  H265  1  0.711000  0.336500  0.151800  1.0
  H  H266  1  0.789000  0.836500  0.848200  1.0
  H  H267  1  0.059200  0.163500  0.848200  1.0
  H  H268  1  0.440800  0.663500  0.151800  1.0
  H  H269  1  0.491700  0.038700  0.115200  1.0
  H  H270  1  0.008300  0.538700  0.884800  1.0
  H  H271  1  0.876500  0.461300  0.884800  1.0
  H  H272  1  0.623500  0.961300  0.115200  1.0
  H  H273  1  0.508300  0.961300  0.884800  1.0
  H  H274  1  0.991700  0.461300  0.115200  1.0
  H  H275  1  0.123500  0.538700  0.115200  1.0
  H  H276  1  0.376500  0.038700  0.884800  1.0
  H  H277  1  0.578800  0.289500  0.267400  1.0
  H  H278  1  0.921200  0.789500  0.732600  1.0
  H  H279  1  0.811400  0.210500  0.732600  1.0
  H  H280  1  0.688600  0.710500  0.267400  1.0
  H  H281  1  0.421200  0.710500  0.732600  1.0
  H  H282  1  0.078800  0.210500  0.267400  1.0
  H  H283  1  0.188600  0.789500  0.267400  1.0
  H  H284  1  0.311400  0.289500  0.732600  1.0
  H  H285  1  0.547400  0.447700  0.233200  1.0
  H  H286  1  0.952600  0.947700  0.766800  1.0
  H  H287  1  0.814200  0.052300  0.766800  1.0
  H  H288  1  0.685800  0.552300  0.233200  1.0
  H  H289  1  0.452600  0.552300  0.766800  1.0
  H  H290  1  0.047400  0.052300  0.233200  1.0
  H  H291  1  0.185800  0.947700  0.233200  1.0
  H  H292  1  0.314200  0.447700  0.766800  1.0
  Hg  Hg293  1  0.140470  1.000000  0.280940  1.0
  Hg  Hg294  1  0.359530  0.500000  0.719060  1.0
  Hg  Hg295  1  0.859530  0.000000  0.719060  1.0
  Hg  Hg296  1  0.640470  0.500000  0.280940  1.0
  N  N297  1  0.040900  0.945200  0.367200  1.0
  N  N298  1  0.459100  0.445200  0.632800  1.0
  N  N299  1  0.173700  0.554800  0.632800  1.0
  N  N300  1  0.326300  0.054800  0.367200  1.0
  N  N301  1  0.959100  0.054800  0.632800  1.0
  N  N302  1  0.540900  0.554800  0.367200  1.0
  N  N303  1  0.826300  0.445200  0.367200  1.0
  N  N304  1  0.673700  0.945200  0.632800  1.0
  N  N305  1  0.512000  0.157100  0.157600  1.0
  N  N306  1  0.988000  0.657100  0.842400  1.0
  N  N307  1  0.854400  0.342900  0.842400  1.0
  N  N308  1  0.645600  0.842900  0.157600  1.0
  N  N309  1  0.488000  0.842900  0.842400  1.0
  N  N310  1  0.012000  0.342900  0.157600  1.0
  N  N311  1  0.145600  0.657100  0.157600  1.0
  N  N312  1  0.354400  0.157100  0.842400  1.0
  O  O313  1  0.256800  0.917800  0.815200  1.0
  O  O314  1  0.243200  0.417800  0.184800  1.0
  O  O315  1  0.941600  0.582200  0.184800  1.0
  O  O316  1  0.558400  0.082200  0.815200  1.0
  O  O317  1  0.743200  0.082200  0.184800  1.0
  O  O318  1  0.756800  0.582200  0.815200  1.0
  O  O319  1  0.058400  0.417800  0.815200  1.0
  O  O320  1  0.441600  0.917800  0.184800  1.0
  O  O321  1  0.219700  0.787300  0.738000  1.0
  O  O322  1  0.280300  0.287300  0.262000  1.0
  O  O323  1  0.981700  0.712700  0.262000  1.0
  O  O324  1  0.518300  0.212700  0.738000  1.0
  O  O325  1  0.780300  0.212700  0.262000  1.0
  O  O326  1  0.719700  0.712700  0.738000  1.0
  O  O327  1  0.018300  0.287300  0.738000  1.0
  O  O328  1  0.481700  0.787300  0.262000  1.0
  O  O329  1  0.422500  0.514900  0.081000  1.0
  O  O330  1  0.077500  0.014900  0.919000  1.0
  O  O331  1  0.841500  0.985100  0.919000  1.0
  O  O332  1  0.658500  0.485100  0.081000  1.0
  O  O333  1  0.577500  0.485100  0.919000  1.0
  O  O334  1  0.922500  0.985100  0.081000  1.0
  O  O335  1  0.158500  0.014900  0.081000  1.0
  O  O336  1  0.341500  0.514900  0.919000  1.0
