# generated using pymatgen
data_Cu2H67C74N2O17
_symmetry_space_group_name_H-M   'P 1'
_cell_length_a   14.85200000
_cell_length_b   16.67300000
_cell_length_c   17.45800000
_cell_angle_alpha   110.38500000
_cell_angle_beta   103.90700000
_cell_angle_gamma   108.85000000
_symmetry_Int_Tables_number   1
_chemical_formula_structural   Cu2H67C74N2O17
_chemical_formula_sum   'Cu4 H134 C148 N4 O34'
_cell_volume   3518.50805626
_cell_formula_units_Z   2
loop_
 _symmetry_equiv_pos_site_id
 _symmetry_equiv_pos_as_xyz
  1  'x, y, z'
loop_
 _atom_site_type_symbol
 _atom_site_label
 _atom_site_symmetry_multiplicity
 _atom_site_fract_x
 _atom_site_fract_y
 _atom_site_fract_z
 _atom_site_occupancy
  Cu  Cu1  1  0.669360  0.477100  0.344820  1.0
  Cu  Cu2  1  0.330640  0.522900  0.655180  1.0
  Cu  Cu3  1  0.595870  0.305150  0.213150  1.0
  Cu  Cu4  1  0.404130  0.694850  0.786850  1.0
  H  H5  1  0.859100  0.510600  0.164200  1
  H  H6  1  0.140900  0.489400  0.835800  1
  H  H7  1  0.720800  0.167100  0.990900  1
  H  H8  1  0.279200  0.832900  0.009100  1
  H  H9  1  0.832000  0.220600  0.991200  1
  H  H10  1  0.168000  0.779400  0.008800  1
  H  H11  1  0.732500  0.222500  0.932400  1
  H  H12  1  0.267500  0.777500  0.067600  1
  H  H13  1  0.720800  0.317300  0.060600  1
  H  H14  1  0.279200  0.682700  0.939400  1
  H  H15  1  0.814000  0.310200  0.122000  1
  H  H16  1  0.186000  0.689800  0.878000  1
  H  H17  1  0.828300  0.400500  0.876100  1
  H  H18  1  0.171700  0.599500  0.123900  1
  H  H19  1  0.809300  0.465000  0.957100  1
  H  H20  1  0.190700  0.535000  0.042900  1
  H  H21  1  0.738500  0.351700  0.903900  1
  H  H22  1  0.261500  0.648300  0.096100  1
  H  H23  1  0.880800  0.326100  0.959600  1
  H  H24  1  0.119200  0.673900  0.040400  1
  H  H25  1  0.955500  0.438700  0.008700  1
  H  H26  1  0.044500  0.561300  0.991300  1
  H  H27  1  0.482200  0.545600  0.462300  1
  H  H28  1  0.517800  0.454400  0.537700  1
  H  H29  1  0.515500  0.551200  0.557100  1
  H  H30  1  0.484500  0.448800  0.442900  1
  H  H31  1  0.571000  0.518800  0.494900  1
  H  H32  1  0.429000  0.481200  0.505100  1
  H  H33  1  0.411800  0.356400  0.639100  1
  H  H34  1  0.588200  0.643600  0.360900  1
  H  H35  1  0.323900  0.081900  0.465200  1
  H  H36  1  0.676100  0.918100  0.534800  1
  H  H37  1  0.483400  0.181800  0.728700  1
  H  H38  1  0.516600  0.818200  0.271300  1
  H  H39  1  0.354400  0.298600  0.471000  1
  H  H40  1  0.645600  0.701400  0.529000  1
  H  H41  1  0.301900  0.185400  0.407300  1
  H  H42  1  0.698100  0.814600  0.592700  1
  H  H43  1  0.097300  0.351600  0.546400  1
  H  H44  1  0.902700  0.648400  0.453600  1
  H  H45  1  0.075000  0.247000  0.535900  1
  H  H46  1  0.925000  0.753000  0.464100  1
  H  H47  1  0.042900  0.261600  0.449300  1
  H  H48  1  0.957100  0.738400  0.550700  1
  H  H49  1  0.999200  0.190600  0.383300  1
  H  H50  1  0.000800  0.809400  0.616700  1
  H  H51  1  0.976300  0.138900  0.439700  1
  H  H52  1  0.023700  0.861100  0.560300  1
  H  H53  1  0.974200  0.141400  0.447400  1
  H  H54  1  0.025800  0.858600  0.552600  1
  H  H55  1  0.949400  0.226200  0.454100  1
  H  H56  1  0.050600  0.773800  0.545900  1
  H  H57  1  0.895600  0.229100  0.496800  1
  H  H58  1  0.104400  0.770900  0.503200  1
  H  H59  1  0.928600  0.291700  0.447700  1
  H  H60  1  0.071400  0.708300  0.552300  1
  H  H61  1  0.845000  0.181600  0.390500  1
  H  H62  1  0.155000  0.818400  0.609500  1
  H  H63  1  0.036300  0.160500  0.333333  1
  H  H64  1  0.963700  0.839500  0.666667  1
  H  H65  1  0.913300  0.115700  0.304200  1
  H  H66  1  0.086700  0.884300  0.695800  1
  H  H67  1  0.978200  0.226100  0.331900  1
  H  H68  1  0.021800  0.773900  0.668100  1
  H  H69  1  0.281000  0.242600  0.110600  1.0
  H  H70  1  0.719000  0.757400  0.889400  1.0
  H  H71  1  0.087500  0.366800  0.122200  1.0
  H  H72  1  0.912500  0.633200  0.877800  1.0
  H  H73  1  0.222400  0.506600  0.244800  1.0
  H  H74  1  0.777600  0.493400  0.755200  1.0
  H  H75  1  0.386600  0.514400  0.300300  1.0
  H  H76  1  0.613400  0.485600  0.699700  1.0
  H  H77  1  0.819200  0.062400  0.910700  1.0
  H  H78  1  0.180800  0.937600  0.089300  1.0
  H  H79  1  0.736700  0.789800  0.735400  1.0
  H  H80  1  0.263300  0.210200  0.264600  1.0
  H  H81  1  0.040400  0.975400  0.885200  1.0
  H  H82  1  0.959600  0.024600  0.114800  1.0
  H  H83  1  0.116900  0.721500  0.754800  1.0
  H  H84  1  0.883100  0.278500  0.245200  1.0
  H  H85  1  0.008500  0.447900  0.567500  1.0
  H  H86  1  0.991500  0.552100  0.432500  1.0
  H  H87  1  0.839200  0.432200  0.529000  1.0
  H  H88  1  0.160800  0.567800  0.471000  1.0
  H  H89  1  0.808900  0.561100  0.603400  1.0
  H  H90  1  0.191100  0.438900  0.396600  1.0
  H  H91  1  0.609900  0.849900  0.729700  1.0
  H  H92  1  0.390100  0.150100  0.270300  1.0
  H  H93  1  0.622000  0.870000  0.829100  1.0
  H  H94  1  0.378000  0.130000  0.170900  1.0
  H  H95  1  0.635200  0.123100  0.724800  1.0
  H  H96  1  0.364800  0.876900  0.275200  1.0
  H  H97  1  0.675600  0.150000  0.828200  1.0
  H  H98  1  0.324400  0.850000  0.171800  1.0
  H  H99  1  0.554900  0.085000  0.765400  1.0
  H  H100  1  0.445100  0.915000  0.234600  1.0
  H  H101  1  0.727100  0.642700  0.201300  1.0
  H  H102  1  0.272900  0.357300  0.798700  1.0
  H  H103  1  0.723100  0.703300  0.098700  1.0
  H  H104  1  0.276900  0.296700  0.901300  1.0
  H  H105  1  0.642700  0.598500  0.945800  1.0
  H  H106  1  0.357300  0.401500  0.054200  1.0
  H  H107  1  0.570300  0.372500  0.998000  1.0
  H  H108  1  0.429700  0.627500  0.002000  1.0
  H  H109  1  0.599400  0.150300  0.361100  1.0
  H  H110  1  0.400600  0.849700  0.638900  1.0
  H  H111  1  0.647800  0.399100  0.556900  1.0
  H  H112  1  0.352200  0.600900  0.443100  1.0
  H  H113  1  0.659900  0.335600  0.657100  1.0
  H  H114  1  0.340100  0.664400  0.342900  1.0
  H  H115  1  0.641800  0.179400  0.609200  1.0
  H  H116  1  0.358200  0.820600  0.390800  1.0
  H  H117  1  0.444300  0.368400  0.641300  1.0
  H  H118  1  0.555700  0.631600  0.358700  1.0
  H  H119  1  0.358100  0.099700  0.455100  1.0
  H  H120  1  0.641900  0.900300  0.544900  1.0
  H  H121  1  0.450900  0.165400  0.716400  1.0
  H  H122  1  0.549100  0.834600  0.283600  1.0
  H  H123  1  0.384700  0.222500  0.411700  1.0
  H  H124  1  0.615300  0.777500  0.588300  1.0
  H  H125  1  0.303200  0.255400  0.442200  1.0
  H  H126  1  0.696800  0.744600  0.557800  1.0
  H  H127  1  0.851500  0.671100  0.556500  1.0
  H  H128  1  0.148500  0.328900  0.443500  1.0
  H  H129  1  0.955500  0.728600  0.388800  1.0
  H  H130  1  0.044500  0.271400  0.611200  1.0
  H  H131  1  0.837900  0.651200  0.355200  1.0
  H  H132  1  0.162100  0.348800  0.644800  1.0
  H  H133  1  0.838000  0.775900  0.320100  1.0
  H  H134  1  0.162000  0.224100  0.679900  1.0
  H  H135  1  0.904400  0.852700  0.422800  1.0
  H  H136  1  0.095600  0.147300  0.577200  1.0
  H  H137  1  0.787500  0.776600  0.391500  1.0
  H  H138  1  0.212500  0.223400  0.608500  1.0
  C  C139  1  0.902700  0.482700  0.148300  1
  C  C140  1  0.097300  0.517300  0.851700  1
  C  C141  1  0.766200  0.222900  0.988300  1
  C  C142  1  0.233800  0.777100  0.011700  1
  C  C143  1  0.786800  0.313100  0.065900  1
  C  C144  1  0.213200  0.686900  0.934100  1
  C  C145  1  0.808400  0.402900  0.926200  1
  C  C146  1  0.191600  0.597100  0.073800  1
  C  C147  1  0.884200  0.390000  0.990200  1
  C  C148  1  0.115800  0.610000  0.009800  1
  C  C149  1  0.506200  0.516800  0.496500  1
  C  C150  1  0.493800  0.483200  0.503500  1
  C  C151  1  0.455400  0.280800  0.697600  1
  C  C152  1  0.544600  0.719200  0.302400  1
  C  C153  1  0.409600  0.295600  0.627700  1
  C  C154  1  0.590400  0.704400  0.372300  1
  C  C155  1  0.360600  0.221500  0.541100  1
  C  C156  1  0.639400  0.778500  0.458900  1
  C  C157  1  0.357400  0.132500  0.524400  1
  C  C158  1  0.642600  0.867500  0.475600  1
  C  C159  1  0.403100  0.117800  0.594300  1
  C  C160  1  0.596900  0.882200  0.405700  1
  C  C161  1  0.452100  0.191900  0.680900  1
  C  C162  1  0.547900  0.808100  0.319100  1
  C  C163  1  0.310200  0.235300  0.463700  1
  C  C164  1  0.689800  0.764700  0.536300  1
  C  C165  1  0.198600  0.305700  0.507800  1
  C  C166  1  0.801400  0.694300  0.492200  1
  C  C167  1  0.094500  0.290100  0.510000  1
  C  C168  1  0.905500  0.709900  0.490000  1
  C  C169  1  0.908400  0.227900  0.444000  1
  C  C170  1  0.091600  0.772100  0.556000  1
  C  C171  1  0.979000  0.173000  0.343800  1
  C  C172  1  0.021000  0.827000  0.656200  1
  C  C173  1  0.453400  0.383600  0.242800  1.0
  C  C174  1  0.546600  0.616400  0.757200  1.0
  C  C175  1  0.349200  0.379200  0.210700  1.0
  C  C176  1  0.650800  0.620800  0.789300  1.0
  C  C177  1  0.269100  0.296180  0.137800  1.0
  C  C178  1  0.730900  0.703820  0.862200  1.0
  C  C179  1  0.171500  0.291500  0.104900  1.0
  C  C180  1  0.828500  0.708500  0.895100  1.0
  C  C181  1  0.154100  0.370000  0.144800  1.0
  C  C182  1  0.845900  0.630000  0.855200  1.0
  C  C183  1  0.234300  0.453000  0.217600  1.0
  C  C184  1  0.765700  0.547000  0.782400  1.0
  C  C185  1  0.331800  0.457660  0.250500  1.0
  C  C186  1  0.668200  0.542340  0.749500  1.0
  C  C187  1  0.087700  0.202500  0.032400  1.0
  C  C188  1  0.912300  0.797500  0.967600  1.0
  C  C189  1  0.021000  0.126500  0.974400  1.0
  C  C190  1  0.979000  0.873500  0.025600  1.0
  C  C191  1  0.941900  0.033220  0.908100  1.0
  C  C192  1  0.058100  0.966780  0.091900  1.0
  C  C193  1  0.838000  0.013700  0.883500  1.0
  C  C194  1  0.162000  0.986300  0.116500  1.0
  C  C195  1  0.761500  0.923000  0.819100  1.0
  C  C196  1  0.238500  0.077000  0.180900  1.0
  C  C197  1  0.789000  0.851830  0.779400  1.0
  C  C198  1  0.211000  0.148170  0.220600  1.0
  C  C199  1  0.892900  0.871300  0.804000  1.0
  C  C200  1  0.107100  0.128700  0.196000  1.0
  C  C201  1  0.969400  0.962000  0.868400  1.0
  C  C202  1  0.030600  0.038000  0.131600  1.0
  C  C203  1  0.921400  0.797700  0.764600  1.0
  C  C204  1  0.078600  0.202300  0.235400  1.0
  C  C205  1  0.941300  0.732600  0.730200  1.0
  C  C206  1  0.058700  0.267400  0.269800  1.0
  C  C207  1  0.960000  0.653400  0.686100  1.0
  C  C208  1  0.040000  0.346600  0.313900  1.0
  C  C209  1  0.060500  0.662800  0.709000  1.0
  C  C210  1  0.939500  0.337200  0.291000  1.0
  C  C211  1  0.078600  0.586200  0.664800  1.0
  C  C212  1  0.921400  0.413800  0.335200  1.0
  C  C213  1  0.996100  0.500200  0.597700  1.0
  C  C214  1  0.003900  0.499800  0.402300  1.0
  C  C215  1  0.895600  0.490900  0.574800  1.0
  C  C216  1  0.104400  0.509100  0.425200  1.0
  C  C217  1  0.877600  0.567500  0.619000  1.0
  C  C218  1  0.122400  0.432500  0.381000  1.0
  C  C219  1  0.812800  0.404400  0.312500  1.0
  C  C220  1  0.187200  0.595600  0.687500  1.0
  C  C221  1  0.648600  0.898400  0.793100  1.0
  C  C222  1  0.351400  0.101600  0.206900  1.0
  C  C223  1  0.641600  0.013100  0.747300  1.0
  C  C224  1  0.358400  0.986900  0.252700  1.0
  C  C225  1  0.625400  0.100100  0.768200  1.0
  C  C226  1  0.374600  0.899900  0.231800  1.0
  C  C227  1  0.648300  0.462600  0.174100  1.0
  C  C228  1  0.351700  0.537400  0.825900  1.0
  C  C229  1  0.649100  0.501900  0.109300  1.0
  C  C230  1  0.350900  0.498100  0.890700  1.0
  C  C231  1  0.694400  0.600200  0.139180  1.0
  C  C232  1  0.305600  0.399800  0.860820  1.0
  C  C233  1  0.692100  0.636160  0.078300  1.0
  C  C234  1  0.307900  0.363840  0.921700  1.0
  C  C235  1  0.644300  0.573900  0.987400  1.0
  C  C236  1  0.355700  0.426100  0.012600  1.0
  C  C237  1  0.598900  0.475600  0.957520  1.0
  C  C238  1  0.401100  0.524400  0.042480  1.0
  C  C239  1  0.601300  0.439650  0.018400  1.0
  C  C240  1  0.398700  0.560350  0.981600  1.0
  C  C241  1  0.546800  0.409000  0.863700  1.0
  C  C242  1  0.453200  0.591000  0.136300  1.0
  C  C243  1  0.502900  0.352500  0.787000  1.0
  C  C244  1  0.497100  0.647500  0.213000  1.0
  C  C245  1  0.606500  0.978500  0.433600  1.0
  C  C246  1  0.393500  0.021500  0.566400  1.0
  C  C247  1  0.609900  0.054100  0.452100  1.0
  C  C248  1  0.390100  0.945900  0.547900  1.0
  C  C249  1  0.618900  0.150150  0.480700  1.0
  C  C250  1  0.381100  0.849850  0.519300  1.0
  C  C251  1  0.611700  0.187900  0.421190  1.0
  C  C252  1  0.388300  0.812100  0.578810  1.0
  C  C253  1  0.622500  0.280700  0.449600  1.0
  C  C254  1  0.377500  0.719300  0.550400  1.0
  C  C255  1  0.640500  0.335720  0.537500  1.0
  C  C256  1  0.359500  0.664280  0.462500  1.0
  C  C257  1  0.647700  0.298000  0.597000  1.0
  C  C258  1  0.352300  0.702000  0.403000  1.0
  C  C259  1  0.636900  0.205200  0.568600  1.0
  C  C260  1  0.363100  0.794800  0.431400  1.0
  C  C261  1  0.619600  0.321300  0.385400  1.0
  C  C262  1  0.380400  0.678700  0.614600  1.0
  C  C263  1  0.453200  0.277400  0.692900  1.0
  C  C264  1  0.546800  0.722600  0.307100  1.0
  C  C265  1  0.433500  0.304600  0.626300  1.0
  C  C266  1  0.566500  0.695400  0.373700  1.0
  C  C267  1  0.398100  0.238400  0.537700  1.0
  C  C268  1  0.601900  0.761600  0.462300  1.0
  C  C269  1  0.382300  0.145000  0.515700  1.0
  C  C270  1  0.617700  0.855000  0.484300  1.0
  C  C271  1  0.598000  0.882200  0.417700  1.0
  C  C272  1  0.402000  0.117800  0.582300  1.0
  C  C273  1  0.437400  0.184000  0.670900  1.0
  C  C274  1  0.562600  0.816000  0.329100  1.0
  C  C275  1  0.375400  0.263900  0.462600  1.0
  C  C276  1  0.624600  0.736100  0.537400  1.0
  C  C277  1  0.427700  0.415100  0.458100  1.0
  C  C278  1  0.572300  0.584900  0.541900  1.0
  C  C279  1  0.832900  0.675800  0.502800  1.0
  C  C280  1  0.167100  0.324200  0.497200  1.0
  C  C281  1  0.889900  0.718100  0.397300  1.0
  C  C282  1  0.110100  0.281900  0.602700  1.0
  C  C283  1  0.851600  0.786800  0.381500  1.0
  C  C284  1  0.148400  0.213200  0.618500  1.0
  C  C285  1  0.005700  0.800600  0.560500  1.0
  C  C286  1  0.994300  0.199400  0.439500  1.0
  N  N287  1  0.861700  0.399300  0.069800  1
  N  N288  1  0.138300  0.600700  0.930200  1
  N  N289  1  0.907600  0.738000  0.495700  1.0
  N  N290  1  0.092400  0.262000  0.504300  1.0
  O  O291  1  0.997100  0.522200  0.199000  1
  O  O292  1  0.002900  0.477800  0.801000  1
  O  O293  1  0.210200  0.229000  0.460800  1
  O  O294  1  0.789800  0.771000  0.539200  1
  O  O295  1  0.274200  0.382000  0.544900  1
  O  O296  1  0.725800  0.618000  0.455100  1
  O  O297  1  0.526700  0.460100  0.306800  1.0
  O  O298  1  0.473300  0.539900  0.693200  1.0
  O  O299  1  0.462400  0.309300  0.202600  1.0
  O  O300  1  0.537600  0.690700  0.797400  1.0
  O  O301  1  0.801000  0.472400  0.362700  1.0
  O  O302  1  0.199000  0.527600  0.637300  1.0
  O  O303  1  0.741400  0.329300  0.244300  1.0
  O  O304  1  0.258600  0.670700  0.755700  1.0
  O  O305  1  0.630200  0.980600  0.806000  1.0
  O  O306  1  0.369800  0.019400  0.194000  1.0
  O  O307  1  0.665500  0.976400  0.688900  1.0
  O  O308  1  0.334500  0.023600  0.311100  1.0
  O  O309  1  0.683000  0.520300  0.255500  1.0
  O  O310  1  0.317000  0.479700  0.744500  1.0
  O  O311  1  0.609700  0.372100  0.141400  1.0
  O  O312  1  0.390300  0.627900  0.858600  1.0
  O  O313  1  0.645400  0.410300  0.416800  1.0
  O  O314  1  0.354600  0.589700  0.583200  1.0
  O  O315  1  0.594300  0.264800  0.305500  1.0
  O  O316  1  0.405700  0.735200  0.694500  1.0
  O  O317  1  0.447600  0.362600  0.497400  1.0
  O  O318  1  0.552400  0.637400  0.502600  1.0
  O  O319  1  0.346900  0.375500  0.394100  1.0
  O  O320  1  0.653100  0.624500  0.605900  1.0
  O  O321  1  0.741700  0.622400  0.449100  1.0
  O  O322  1  0.258300  0.377600  0.550900  1.0
  O  O323  1  0.529200  0.162000  0.109300  1.0
  O  O324  1  0.470800  0.838000  0.890700  1.0
