# generated using pymatgen
data_CuH21C26SO6
_symmetry_space_group_name_H-M   'P 1'
_cell_length_a   21.95380534
_cell_length_b   21.95380534
_cell_length_c   21.95380534
_cell_angle_alpha   108.26509751
_cell_angle_beta   110.07762762
_cell_angle_gamma   110.07762762
_symmetry_Int_Tables_number   1
_chemical_formula_structural   CuH21C26SO6
_chemical_formula_sum   'Cu8 H168 C208 S8 O48'
_cell_volume   8142.60829280
_cell_formula_units_Z   8
loop_
 _symmetry_equiv_pos_site_id
 _symmetry_equiv_pos_as_xyz
  1  'x, y, z'
loop_
 _atom_site_type_symbol
 _atom_site_label
 _atom_site_symmetry_multiplicity
 _atom_site_fract_x
 _atom_site_fract_y
 _atom_site_fract_z
 _atom_site_occupancy
  C  C1  1  0.310700  0.614600  0.696100  1.0
  C  C2  1  0.918500  0.303900  0.614600  1.0
  C  C3  1  0.689300  0.385400  0.303900  1.0
  C  C4  1  0.081500  0.696100  0.385400  1.0
  C  C5  1  0.158400  0.538800  0.619600  1.0
  C  C6  1  0.919200  0.380400  0.538800  1.0
  C  C7  1  0.841600  0.461200  0.380400  1.0
  C  C8  1  0.080800  0.619600  0.461200  1.0
  C  C9  1  0.434000  0.852800  0.719600  1.0
  C  C10  1  0.133200  0.418800  0.852800  1.0
  C  C11  1  0.566000  0.285600  0.418800  1.0
  C  C12  1  0.866800  0.719600  0.285600  1.0
  C  C13  1  0.566000  0.147200  0.280400  1.0
  C  C14  1  0.866800  0.581200  0.147200  1.0
  C  C15  1  0.434000  0.714400  0.581200  1.0
  C  C16  1  0.133200  0.280400  0.714400  1.0
  C  C17  1  0.482920  0.902570  0.798950  1.0
  C  C18  1  0.103620  0.419650  0.902570  1.0
  C  C19  1  0.517080  0.316030  0.419650  1.0
  C  C20  1  0.896380  0.798950  0.316030  1.0
  C  C21  1  0.517080  0.097430  0.201050  1.0
  C  C22  1  0.896380  0.580350  0.097430  1.0
  C  C23  1  0.482920  0.683970  0.580350  1.0
  C  C24  1  0.103620  0.201050  0.683970  1.0
  C  C25  1  0.475900  0.883310  0.851790  1.0
  C  C26  1  0.031520  0.407410  0.883310  1.0
  C  C27  1  0.524100  0.375890  0.407410  1.0
  C  C28  1  0.968480  0.851790  0.375890  1.0
  C  C29  1  0.524100  0.116690  0.148210  1.0
  C  C30  1  0.968480  0.592590  0.116690  1.0
  C  C31  1  0.475900  0.624110  0.592590  1.0
  C  C32  1  0.031520  0.148210  0.624110  1.0
  C  C33  1  0.527500  0.934900  0.928800  1.0
  C  C34  1  0.006100  0.407400  0.934900  1.0
  C  C35  1  0.472500  0.401300  0.407400  1.0
  C  C36  1  0.993900  0.928800  0.401300  1.0
  C  C37  1  0.472500  0.065100  0.071200  1.0
  C  C38  1  0.993900  0.592600  0.065100  1.0
  C  C39  1  0.527500  0.598700  0.592600  1.0
  C  C40  1  0.006100  0.071200  0.598700  1.0
  C  C41  1  0.581790  0.003490  0.952900  1.0
  C  C42  1  0.050590  0.421700  0.003490  1.0
  C  C43  1  0.418210  0.371110  0.421700  1.0
  C  C44  1  0.949410  0.952900  0.371110  1.0
  C  C45  1  0.418210  0.996510  0.047100  1.0
  C  C46  1  0.949410  0.578300  0.996510  1.0
  C  C47  1  0.581790  0.628890  0.578300  1.0
  C  C48  1  0.050590  0.047100  0.628890  1.0
  C  C49  1  0.590790  0.024690  0.900700  1.0
  C  C50  1  0.123990  0.433900  0.024690  1.0
  C  C51  1  0.409210  0.309910  0.433900  1.0
  C  C52  1  0.876010  0.900700  0.309910  1.0
  C  C53  1  0.409210  0.975310  0.099300  1.0
  C  C54  1  0.876010  0.566100  0.975310  1.0
  C  C55  1  0.590790  0.690090  0.566100  1.0
  C  C56  1  0.123990  0.099300  0.690090  1.0
  C  C57  1  0.539970  0.975090  0.824680  1.0
  C  C58  1  0.150410  0.435120  0.975090  1.0
  C  C59  1  0.460030  0.284710  0.435120  1.0
  C  C60  1  0.849590  0.824680  0.284710  1.0
  C  C61  1  0.460030  0.024910  0.175320  1.0
  C  C62  1  0.849590  0.564880  0.024910  1.0
  C  C63  1  0.539970  0.715290  0.564880  1.0
  C  C64  1  0.150410  0.175320  0.715290  1.0
  C  C65  1  0.645600  0.100000  0.923800  1.0
  C  C66  1  0.176200  0.454400  0.100000  1.0
  C  C67  1  0.354400  0.278200  0.454400  1.0
  C  C68  1  0.823800  0.923800  0.278200  1.0
  C  C69  1  0.354400  0.900000  0.076200  1.0
  C  C70  1  0.823800  0.545600  0.900000  1.0
  C  C71  1  0.645600  0.721800  0.545600  1.0
  C  C72  1  0.176200  0.076200  0.721800  1.0
  C  C73  1  0.690100  0.158300  0.935600  1.0
  C  C74  1  0.222700  0.468200  0.158300  1.0
  C  C75  1  0.309900  0.245500  0.468200  1.0
  C  C76  1  0.777300  0.935600  0.245500  1.0
  C  C77  1  0.309900  0.841700  0.064400  1.0
  C  C78  1  0.777300  0.531800  0.841700  1.0
  C  C79  1  0.690100  0.754500  0.531800  1.0
  C  C80  1  0.222700  0.064400  0.754500  1.0
  C  C81  1  0.742550  0.230750  0.955000  1.0
  C  C82  1  0.275750  0.488200  0.230750  1.0
  C  C83  1  0.257450  0.212450  0.488200  1.0
  C  C84  1  0.724250  0.955000  0.212450  1.0
  C  C85  1  0.257450  0.769250  0.045000  1.0
  C  C86  1  0.724250  0.511800  0.769250  1.0
  C  C87  1  0.742550  0.787550  0.511800  1.0
  C  C88  1  0.275750  0.045000  0.787550  1.0
  C  C89  1  0.795400  0.283000  0.027600  1.0
  C  C90  1  0.255400  0.487600  0.283000  1.0
  C  C91  1  0.204600  0.232200  0.487600  1.0
  C  C92  1  0.744600  0.027600  0.232200  1.0
  C  C93  1  0.204600  0.717000  0.972400  1.0
  C  C94  1  0.744600  0.512400  0.717000  1.0
  C  C95  1  0.795400  0.767800  0.512400  1.0
  C  C96  1  0.255400  0.972400  0.767800  1.0
  C  C97  1  0.847130  0.352630  0.046700  1.0
  C  C98  1  0.305930  0.505500  0.352630  1.0
  C  C99  1  0.152870  0.199570  0.505500  1.0
  C  C100  1  0.694070  0.046700  0.199570  1.0
  C  C101  1  0.152870  0.647370  0.953300  1.0
  C  C102  1  0.694070  0.494500  0.647370  1.0
  C  C103  1  0.847130  0.800430  0.494500  1.0
  C  C104  1  0.305930  0.953300  0.800430  1.0
  C  C105  1  0.845730  0.369730  0.990000  1.0
  C  C106  1  0.379730  0.524000  0.369730  1.0
  C  C107  1  0.154270  0.144270  0.524000  1.0
  C  C108  1  0.620270  0.990000  0.144270  1.0
  C  C109  1  0.154270  0.630270  0.010000  1.0
  C  C110  1  0.620270  0.476000  0.630270  1.0
  C  C111  1  0.845730  0.855730  0.476000  1.0
  C  C112  1  0.379730  0.010000  0.855730  1.0
  C  C113  1  0.796890  0.319590  0.918500  1.0
  C  C114  1  0.401090  0.522700  0.319590  1.0
  C  C115  1  0.203110  0.121610  0.522700  1.0
  C  C116  1  0.598910  0.918500  0.121610  1.0
  C  C117  1  0.203110  0.680410  0.081500  1.0
  C  C118  1  0.598910  0.477300  0.680410  1.0
  C  C119  1  0.796890  0.878390  0.477300  1.0
  C  C120  1  0.401090  0.081500  0.878390  1.0
  C  C121  1  0.743400  0.248500  0.898700  1.0
  C  C122  1  0.349800  0.505100  0.248500  1.0
  C  C123  1  0.256600  0.155300  0.505100  1.0
  C  C124  1  0.650200  0.898700  0.155300  1.0
  C  C125  1  0.256600  0.751500  0.101300  1.0
  C  C126  1  0.650200  0.494900  0.751500  1.0
  C  C127  1  0.743400  0.844700  0.494900  1.0
  C  C128  1  0.349800  0.101300  0.844700  1.0
  C  C129  1  0.902240  0.410040  0.127400  1.0
  C  C130  1  0.282640  0.507800  0.410040  1.0
  C  C131  1  0.097760  0.225160  0.507800  1.0
  C  C132  1  0.717360  0.127400  0.225160  1.0
  C  C133  1  0.097760  0.589960  0.872600  1.0
  C  C134  1  0.717360  0.492200  0.589960  1.0
  C  C135  1  0.902240  0.774840  0.492200  1.0
  C  C136  1  0.282640  0.872600  0.774840  1.0
  C  C137  1  0.800000  0.336200  0.860400  1.0
  C  C138  1  0.475800  0.536200  0.336200  1.0
  C  C139  1  0.200000  0.060400  0.536200  1.0
  C  C140  1  0.524200  0.860400  0.060400  1.0
  C  C141  1  0.200000  0.663800  0.139600  1.0
  C  C142  1  0.524200  0.463800  0.663800  1.0
  C  C143  1  0.800000  0.939600  0.463800  1.0
  C  C144  1  0.475800  0.139600  0.939600  1.0
  C  C145  1  0.804600  0.353900  0.816300  1.0
  C  C146  1  0.537600  0.549300  0.353900  1.0
  C  C147  1  0.195400  0.011700  0.549300  1.0
  C  C148  1  0.462400  0.816300  0.011700  1.0
  C  C149  1  0.195400  0.646100  0.183700  1.0
  C  C150  1  0.462400  0.450700  0.646100  1.0
  C  C151  1  0.804600  0.988300  0.450700  1.0
  C  C152  1  0.537600  0.183700  0.988300  1.0
  C  C153  1  0.818230  0.378850  0.763980  1.0
  C  C154  1  0.614870  0.560620  0.378850  1.0
  C  C155  1  0.181770  0.945750  0.560620  1.0
  C  C156  1  0.385130  0.763980  0.945750  1.0
  C  C157  1  0.181770  0.621150  0.236020  1.0
  C  C158  1  0.385130  0.439380  0.621150  1.0
  C  C159  1  0.818230  0.054250  0.439380  1.0
  C  C160  1  0.614870  0.236020  0.054250  1.0
  C  C161  1  0.880570  0.448300  0.792070  1.0
  C  C162  1  0.656230  0.567730  0.448300  1.0
  C  C163  1  0.119430  0.911500  0.567730  1.0
  C  C164  1  0.343770  0.792070  0.911500  1.0
  C  C165  1  0.119430  0.551700  0.207930  1.0
  C  C166  1  0.343770  0.432270  0.551700  1.0
  C  C167  1  0.880570  0.088500  0.432270  1.0
  C  C168  1  0.656230  0.207930  0.088500  1.0
  C  C169  1  0.890600  0.470600  0.744200  1.0
  C  C170  1  0.726400  0.580000  0.470600  1.0
  C  C171  1  0.109400  0.853600  0.580000  1.0
  C  C172  1  0.273600  0.744200  0.853600  1.0
  C  C173  1  0.109400  0.529400  0.255800  1.0
  C  C174  1  0.273600  0.420000  0.529400  1.0
  C  C175  1  0.890600  0.146400  0.420000  1.0
  C  C176  1  0.726400  0.255800  0.146400  1.0
  C  C177  1  0.842850  0.427620  0.669430  1.0
  C  C178  1  0.758190  0.584770  0.427620  1.0
  C  C179  1  0.157150  0.826580  0.584770  1.0
  C  C180  1  0.241810  0.669430  0.826580  1.0
  C  C181  1  0.157150  0.572380  0.330570  1.0
  C  C182  1  0.241810  0.415230  0.572380  1.0
  C  C183  1  0.842850  0.173420  0.415230  1.0
  C  C184  1  0.758190  0.330570  0.173420  1.0
  C  C185  1  0.781020  0.358230  0.640990  1.0
  C  C186  1  0.717240  0.577210  0.358230  1.0
  C  C187  1  0.218980  0.859970  0.577210  1.0
  C  C188  1  0.282760  0.640990  0.859970  1.0
  C  C189  1  0.218980  0.641770  0.359010  1.0
  C  C190  1  0.282760  0.422790  0.641770  1.0
  C  C191  1  0.781020  0.140030  0.422790  1.0
  C  C192  1  0.717240  0.359010  0.140030  1.0
  C  C193  1  0.767830  0.333560  0.688070  1.0
  C  C194  1  0.645490  0.565730  0.333560  1.0
  C  C195  1  0.232170  0.920240  0.565730  1.0
  C  C196  1  0.354510  0.688070  0.920240  1.0
  C  C197  1  0.232170  0.666440  0.311930  1.0
  C  C198  1  0.354510  0.434270  0.666440  1.0
  C  C199  1  0.767830  0.079760  0.434270  1.0
  C  C200  1  0.645490  0.311930  0.079760  1.0
  C  C201  1  0.271780  0.830600  0.580180  1.0
  C  C202  1  0.250420  0.558820  0.830600  1.0
  C  C203  1  0.728220  0.308400  0.558820  1.0
  C  C204  1  0.749580  0.580180  0.308400  1.0
  C  C205  1  0.728220  0.169400  0.419820  1.0
  C  C206  1  0.749580  0.441180  0.169400  1.0
  C  C207  1  0.271780  0.691600  0.441180  1.0
  C  C208  1  0.250420  0.419820  0.691600  1.0
  Cu  Cu209  1  0.312820  0.721850  0.590970  1.0
  Cu  Cu210  1  0.130880  0.409030  0.721850  1.0
  Cu  Cu211  1  0.687180  0.278150  0.409030  1.0
  Cu  Cu212  1  0.869120  0.590970  0.278150  1.0
  Cu  Cu213  1  0.393220  0.824010  0.569210  1.0
  Cu  Cu214  1  0.254800  0.430790  0.824010  1.0
  Cu  Cu215  1  0.606780  0.175990  0.430790  1.0
  Cu  Cu216  1  0.745200  0.569210  0.175990  1.0
  H  H217  1  0.359500  0.657800  0.720700  1
  H  H218  1  0.937100  0.298300  0.657800  1
  H  H219  1  0.640500  0.361200  0.298300  1
  H  H220  1  0.062900  0.720700  0.361200  1
  H  H221  1  0.640500  0.342200  0.279300  1
  H  H222  1  0.062900  0.701700  0.342200  1
  H  H223  1  0.359500  0.638800  0.701700  1
  H  H224  1  0.937100  0.279300  0.638800  1
  H  H225  1  0.305200  0.598800  0.731000  1
  H  H226  1  0.867800  0.293600  0.598800  1
  H  H227  1  0.694800  0.425800  0.293600  1
  H  H228  1  0.132200  0.731000  0.425800  1
  H  H229  1  0.694800  0.401200  0.269000  1
  H  H230  1  0.132200  0.706400  0.401200  1
  H  H231  1  0.305200  0.574200  0.706400  1
  H  H232  1  0.867800  0.269000  0.574200  1
  H  H233  1  0.305600  0.649600  0.730200  1
  H  H234  1  0.919400  0.344000  0.649600  1
  H  H235  1  0.694400  0.424600  0.344000  1
  H  H236  1  0.080600  0.730200  0.424600  1
  H  H237  1  0.694400  0.350400  0.269800  1
  H  H238  1  0.080600  0.656000  0.350400  1
  H  H239  1  0.305600  0.575400  0.656000  1
  H  H240  1  0.919400  0.269800  0.575400  1
  H  H241  1  0.110600  0.535000  0.595400  1
  H  H242  1  0.939600  0.424400  0.535000  1
  H  H243  1  0.889400  0.484800  0.424400  1
  H  H244  1  0.060400  0.595400  0.484800  1
  H  H245  1  0.889400  0.465000  0.404600  1
  H  H246  1  0.060400  0.575600  0.465000  1
  H  H247  1  0.110600  0.515200  0.575600  1
  H  H248  1  0.939600  0.404600  0.515200  1
  H  H249  1  0.162900  0.578700  0.658600  1
  H  H250  1  0.920100  0.415800  0.578700  1
  H  H251  1  0.837100  0.495700  0.415800  1
  H  H252  1  0.079900  0.658600  0.495700  1
  H  H253  1  0.837100  0.421300  0.341400  1
  H  H254  1  0.079900  0.584200  0.421300  1
  H  H255  1  0.162900  0.504300  0.584200  1
  H  H256  1  0.920100  0.341400  0.504300  1
  H  H257  1  0.162500  0.527700  0.659200  1
  H  H258  1  0.868500  0.365200  0.527700  1
  H  H259  1  0.837500  0.496700  0.365200  1
  H  H260  1  0.131500  0.659200  0.496700  1
  H  H261  1  0.837500  0.472300  0.340800  1
  H  H262  1  0.131500  0.634800  0.472300  1
  H  H263  1  0.162500  0.503300  0.634800  1
  H  H264  1  0.868500  0.340800  0.503300  1
  H  H265  1  0.955800  0.410600  0.214800  1.0
  H  H266  1  0.195800  0.454800  0.410600  1.0
  H  H267  1  0.044200  0.259000  0.454800  1.0
  H  H268  1  0.804200  0.214800  0.259000  1.0
  H  H269  1  0.044200  0.589400  0.785200  1.0
  H  H270  1  0.804200  0.545200  0.589400  1.0
  H  H271  1  0.955800  0.741000  0.545200  1.0
  H  H272  1  0.195800  0.785200  0.741000  1.0
  H  H273  1  0.466100  0.891300  0.519600  1.0
  H  H274  1  0.371700  0.425200  0.891300  1.0
  H  H275  1  0.533900  0.053500  0.425200  1.0
  H  H276  1  0.628300  0.519600  0.053500  1.0
  H  H277  1  0.533900  0.108700  0.480400  1.0
  H  H278  1  0.628300  0.574800  0.108700  1.0
  H  H279  1  0.466100  0.946500  0.574800  1.0
  H  H280  1  0.371700  0.480400  0.946500  1.0
  H  H281  1  0.436900  0.835900  0.836600  1.0
  H  H282  1  0.999300  0.399000  0.835900  1.0
  H  H283  1  0.563100  0.399700  0.399000  1.0
  H  H284  1  0.000700  0.836600  0.399700  1.0
  H  H285  1  0.563100  0.164100  0.163400  1.0
  H  H286  1  0.000700  0.601000  0.164100  1.0
  H  H287  1  0.436900  0.600300  0.601000  1.0
  H  H288  1  0.999300  0.163400  0.600300  1.0
  H  H289  1  0.523300  0.920400  0.964300  1.0
  H  H290  1  0.956100  0.397100  0.920400  1.0
  H  H291  1  0.476700  0.441000  0.397100  1.0
  H  H292  1  0.043900  0.964300  0.441000  1.0
  H  H293  1  0.476700  0.079600  0.035700  1.0
  H  H294  1  0.043900  0.602900  0.079600  1.0
  H  H295  1  0.523300  0.559000  0.602900  1.0
  H  H296  1  0.956100  0.035700  0.559000  1.0
  H  H297  1  0.614000  0.037500  0.004700  1.0
  H  H298  1  0.032800  0.423500  0.037500  1.0
  H  H299  1  0.386000  0.390700  0.423500  1.0
  H  H300  1  0.967200  0.004700  0.390700  1.0
  H  H301  1  0.386000  0.962500  0.995300  1.0
  H  H302  1  0.967200  0.576500  0.962500  1.0
  H  H303  1  0.614000  0.609300  0.576500  1.0
  H  H304  1  0.032800  0.995300  0.609300  1.0
  H  H305  1  0.543900  0.990600  0.789700  1.0
  H  H306  1  0.200900  0.446700  0.990600  1.0
  H  H307  1  0.456100  0.245800  0.446700  1.0
  H  H308  1  0.799100  0.789700  0.245800  1.0
  H  H309  1  0.456100  0.009400  0.210300  1.0
  H  H310  1  0.799100  0.553300  0.009400  1.0
  H  H311  1  0.543900  0.754200  0.553300  1.0
  H  H312  1  0.200900  0.210300  0.754200  1.0
  H  H313  1  0.796300  0.270700  0.065600  1.0
  H  H314  1  0.205100  0.474400  0.270700  1.0
  H  H315  1  0.203700  0.269300  0.474400  1.0
  H  H316  1  0.794900  0.065600  0.269300  1.0
  H  H317  1  0.203700  0.729300  0.934400  1.0
  H  H318  1  0.794900  0.525600  0.729300  1.0
  H  H319  1  0.796300  0.730700  0.525600  1.0
  H  H320  1  0.205100  0.934400  0.730700  1.0
  H  H321  1  0.880500  0.418300  0.003000  1.0
  H  H322  1  0.415300  0.537800  0.418300  1.0
  H  H323  1  0.119500  0.122500  0.537800  1.0
  H  H324  1  0.584700  0.003000  0.122500  1.0
  H  H325  1  0.119500  0.581700  0.997000  1.0
  H  H326  1  0.584700  0.462200  0.581700  1.0
  H  H327  1  0.880500  0.877500  0.462200  1.0
  H  H328  1  0.415300  0.997000  0.877500  1.0
  H  H329  1  0.708200  0.212700  0.847900  1.0
  H  H330  1  0.364800  0.504500  0.212700  1.0
  H  H331  1  0.291800  0.139700  0.504500  1.0
  H  H332  1  0.635200  0.847900  0.139700  1.0
  H  H333  1  0.291800  0.787300  0.152100  1.0
  H  H334  1  0.635200  0.495500  0.787300  1.0
  H  H335  1  0.708200  0.860300  0.495500  1.0
  H  H336  1  0.364800  0.152100  0.860300  1.0
  H  H337  1  0.877000  0.432400  0.148400  1.0
  H  H338  1  0.284000  0.555400  0.432400  1.0
  H  H339  1  0.123000  0.271400  0.555400  1.0
  H  H340  1  0.716000  0.148400  0.271400  1.0
  H  H341  1  0.123000  0.567600  0.851600  1.0
  H  H342  1  0.716000  0.444600  0.567600  1.0
  H  H343  1  0.877000  0.728600  0.444600  1.0
  H  H344  1  0.284000  0.851600  0.728600  1.0
  H  H345  1  0.944500  0.450100  0.131200  1.0
  H  H346  1  0.318900  0.505600  0.450100  1.0
  H  H347  1  0.055500  0.186700  0.505600  1.0
  H  H348  1  0.681100  0.131200  0.186700  1.0
  H  H349  1  0.055500  0.549900  0.868800  1.0
  H  H350  1  0.681100  0.494400  0.549900  1.0
  H  H351  1  0.944500  0.813300  0.494400  1.0
  H  H352  1  0.318900  0.868800  0.813300  1.0
  H  H353  1  0.915000  0.479000  0.844000  1.0
  H  H354  1  0.635000  0.564000  0.479000  1.0
  H  H355  1  0.085000  0.929000  0.564000  1.0
  H  H356  1  0.365000  0.844000  0.929000  1.0
  H  H357  1  0.085000  0.521000  0.156000  1.0
  H  H358  1  0.365000  0.436000  0.521000  1.0
  H  H359  1  0.915000  0.071000  0.436000  1.0
  H  H360  1  0.635000  0.156000  0.071000  1.0
  H  H361  1  0.932300  0.517700  0.763000  1.0
  H  H362  1  0.754700  0.585400  0.517700  1.0
  H  H363  1  0.067700  0.830700  0.585400  1.0
  H  H364  1  0.245300  0.763000  0.830700  1.0
  H  H365  1  0.067700  0.482300  0.237000  1.0
  H  H366  1  0.245300  0.414600  0.482300  1.0
  H  H367  1  0.932300  0.169300  0.414600  1.0
  H  H368  1  0.754700  0.237000  0.169300  1.0
  H  H369  1  0.851500  0.444800  0.636900  1.0
  H  H370  1  0.807900  0.593300  0.444800  1.0
  H  H371  1  0.148500  0.785400  0.593300  1.0
  H  H372  1  0.192100  0.636900  0.785400  1.0
  H  H373  1  0.148500  0.555200  0.363100  1.0
  H  H374  1  0.192100  0.406700  0.555200  1.0
  H  H375  1  0.851500  0.214600  0.406700  1.0
  H  H376  1  0.807900  0.363100  0.214600  1.0
  H  H377  1  0.725500  0.286800  0.669100  1.0
  H  H378  1  0.617700  0.561300  0.286800  1.0
  H  H379  1  0.274500  0.943600  0.561300  1.0
  H  H380  1  0.382300  0.669100  0.943600  1.0
  H  H381  1  0.274500  0.713200  0.330900  1.0
  H  H382  1  0.382300  0.438700  0.713200  1.0
  H  H383  1  0.725500  0.056400  0.438700  1.0
  H  H384  1  0.617700  0.330900  0.056400  1.0
  O  O385  1  0.469430  0.907530  0.561900  1.0
  O  O386  1  0.345630  0.438100  0.907530  1.0
  O  O387  1  0.530570  0.092470  0.438100  1.0
  O  O388  1  0.654370  0.561900  0.092470  1.0
  O  O389  1  0.235290  0.638670  0.596620  1.0
  O  O390  1  0.042050  0.403380  0.638670  1.0
  O  O391  1  0.764710  0.361330  0.403380  1.0
  O  O392  1  0.957950  0.596620  0.361330  1.0
  O  O393  1  0.381410  0.789990  0.697740  1.0
  O  O394  1  0.092250  0.408580  0.789990  1.0
  O  O395  1  0.618590  0.316330  0.408580  1.0
  O  O396  1  0.907750  0.697740  0.316330  1.0
  O  O397  1  0.618590  0.210010  0.302260  1.0
  O  O398  1  0.907750  0.591420  0.210010  1.0
  O  O399  1  0.381410  0.683670  0.591420  1.0
  O  O400  1  0.092250  0.302260  0.683670  1.0
  O  O401  1  0.446580  0.876030  0.676630  1.0
  O  O402  1  0.199400  0.429450  0.876030  1.0
  O  O403  1  0.553420  0.230050  0.429450  1.0
  O  O404  1  0.800600  0.676630  0.230050  1.0
  O  O405  1  0.553420  0.123970  0.323370  1.0
  O  O406  1  0.800600  0.570550  0.123970  1.0
  O  O407  1  0.446580  0.769950  0.570550  1.0
  O  O408  1  0.199400  0.323370  0.769950  1.0
  O  O409  1  0.930930  0.378940  0.169410  1.0
  O  O410  1  0.209530  0.448010  0.378940  1.0
  O  O411  1  0.069070  0.238480  0.448010  1.0
  O  O412  1  0.790470  0.169410  0.238480  1.0
  O  O413  1  0.069070  0.621060  0.830590  1.0
  O  O414  1  0.790470  0.551990  0.621060  1.0
  O  O415  1  0.930930  0.761520  0.551990  1.0
  O  O416  1  0.209530  0.830590  0.761520  1.0
  O  O417  1  0.323670  0.859670  0.568560  1.0
  O  O418  1  0.291110  0.536000  0.859670  1.0
  O  O419  1  0.676330  0.244890  0.536000  1.0
  O  O420  1  0.708890  0.568560  0.244890  1.0
  O  O421  1  0.676330  0.140330  0.431440  1.0
  O  O422  1  0.708890  0.464000  0.140330  1.0
  O  O423  1  0.323670  0.755110  0.464000  1.0
  O  O424  1  0.291110  0.431440  0.755110  1.0
  O  O425  1  0.257830  0.775780  0.589650  1.0
  O  O426  1  0.186130  0.517950  0.775780  1.0
  O  O427  1  0.742170  0.331820  0.517950  1.0
  O  O428  1  0.813870  0.589650  0.331820  1.0
  O  O429  1  0.742170  0.224220  0.410350  1.0
  O  O430  1  0.813870  0.482050  0.224220  1.0
  O  O431  1  0.257830  0.668180  0.482050  1.0
  O  O432  1  0.186130  0.410350  0.668180  1.0
  S  S433  1  0.235960  0.635090  0.658390  1.0
  S  S434  1  0.976700  0.399130  0.635090  1.0
  S  S435  1  0.764040  0.422430  0.399130  1.0
  S  S436  1  0.023300  0.658390  0.422430  1.0
  S  S437  1  0.764040  0.364910  0.341610  1.0
  S  S438  1  0.023300  0.600870  0.364910  1.0
  S  S439  1  0.235960  0.577570  0.600870  1.0
  S  S440  1  0.976700  0.341610  0.577570  1.0
