# generated using pymatgen
data_Cu2BP2H65C67N7(OF)8
_symmetry_space_group_name_H-M   'P 1'
_cell_length_a   11.58300000
_cell_length_b   16.84300000
_cell_length_c   19.66100000
_cell_angle_alpha   66.03000000
_cell_angle_beta   78.91000000
_cell_angle_gamma   88.69000000
_symmetry_Int_Tables_number   1
_chemical_formula_structural   Cu2BP2H65C67N7(OF)8
_chemical_formula_sum   'Cu4 B2 P4 H130 C134 N14 O16 F16'
_cell_volume   3432.92203720
_cell_formula_units_Z   2
loop_
 _symmetry_equiv_pos_site_id
 _symmetry_equiv_pos_as_xyz
  1  'x, y, z'
loop_
 _atom_site_type_symbol
 _atom_site_label
 _atom_site_symmetry_multiplicity
 _atom_site_fract_x
 _atom_site_fract_y
 _atom_site_fract_z
 _atom_site_occupancy
  Cu  Cu1  1  0.239350  0.678020  0.652760  1.0
  Cu  Cu2  1  0.760650  0.321980  0.347240  1.0
  Cu  Cu3  1  0.090150  0.790710  0.554830  1.0
  Cu  Cu4  1  0.909850  0.209290  0.445170  1.0
  B  B5  1  0.494700  0.011500  0.234900  1
  B  B6  1  0.505300  0.988500  0.765100  1
  P  P7  1  0.087840  0.658410  0.743680  1.0
  P  P8  1  0.912160  0.341590  0.256320  1.0
  P  P9  1  0.921480  0.320560  0.473680  1.0
  P  P10  1  0.078520  0.679440  0.526320  1.0
  H  H11  1  0.394300  0.230000  0.058900  1
  H  H12  1  0.605700  0.770000  0.941100  1
  H  H13  1  0.507000  0.176000  0.080900  1
  H  H14  1  0.493000  0.824000  0.919100  1
  H  H15  1  0.428600  0.153500  0.031600  1
  H  H16  1  0.571400  0.846500  0.968400  1
  H  H17  1  0.723000  0.815500  0.428100  1
  H  H18  1  0.277000  0.184500  0.571900  1
  H  H19  1  0.632500  0.809700  0.502700  1
  H  H20  1  0.367500  0.190300  0.497300  1
  H  H21  1  0.609800  0.872400  0.420500  1
  H  H22  1  0.390200  0.127600  0.579500  1
  H  H23  1  0.420600  0.693200  0.233900  1
  H  H24  1  0.579400  0.306800  0.766100  1
  H  H25  1  0.464000  0.778800  0.240700  1
  H  H26  1  0.536000  0.221200  0.759300  1
  H  H27  1  0.451300  0.686600  0.312000  1
  H  H28  1  0.548700  0.313400  0.688000  1
  H  H29  1  0.106800  0.983900  0.149100  1
  H  H30  1  0.893200  0.016100  0.850900  1
  H  H31  1  0.186300  0.061400  0.147800  1
  H  H32  1  0.813700  0.938600  0.852200  1
  H  H33  1  0.097300  0.063300  0.034700  1
  H  H34  1  0.902700  0.936700  0.965300  1
  H  H35  1  0.013200  0.122200  0.066200  1
  H  H36  1  0.986800  0.877800  0.933800  1
  H  H37  1  0.039300  0.244500  0.975600  1
  H  H38  1  0.960700  0.755500  0.024400  1
  H  H39  1  0.040100  0.237400  0.058900  1
  H  H40  1  0.959900  0.762600  0.941100  1
  H  H41  1  0.214000  0.785000  0.764300  1.0
  H  H42  1  0.786000  0.215000  0.235700  1.0
  H  H43  1  0.271400  0.801400  0.865400  1.0
  H  H44  1  0.728600  0.198600  0.134600  1.0
  H  H45  1  0.232200  0.690700  0.985000  1.0
  H  H46  1  0.767800  0.309300  0.015000  1.0
  H  H47  1  0.121300  0.568500  0.008500  1.0
  H  H48  1  0.878700  0.431500  0.991500  1.0
  H  H49  1  0.050300  0.553200  0.910600  1.0
  H  H50  1  0.949700  0.446800  0.089400  1.0
  H  H51  1  0.165400  0.494000  0.768400  1.0
  H  H52  1  0.834600  0.506000  0.231600  1.0
  H  H53  1  0.084800  0.351500  0.815400  1.0
  H  H54  1  0.915200  0.648500  0.184600  1.0
  H  H55  1  0.883200  0.321700  0.860200  1.0
  H  H56  1  0.116800  0.678300  0.139800  1.0
  H  H57  1  0.762000  0.436100  0.852500  1.0
  H  H58  1  0.238000  0.563900  0.147500  1.0
  H  H59  1  0.840600  0.579000  0.802700  1.0
  H  H60  1  0.159400  0.421000  0.197300  1.0
  H  H61  1  0.738900  0.890300  0.677100  1.0
  H  H62  1  0.261100  0.109700  0.322900  1.0
  H  H63  1  0.741900  0.804500  0.806500  1.0
  H  H64  1  0.258100  0.195500  0.193500  1.0
  H  H65  1  0.887800  0.704100  0.835700  1.0
  H  H66  1  0.112200  0.295900  0.164300  1.0
  H  H67  1  0.838600  0.942700  0.539000  1.0
  H  H68  1  0.161400  0.057300  0.461000  1.0
  H  H69  1  0.147800  0.897000  0.402700  1.0
  H  H70  1  0.852200  0.103000  0.597300  1.0
  H  H71  1  0.178900  0.963400  0.271500  1.0
  H  H72  1  0.821100  0.036600  0.728500  1.0
  H  H73  1  0.860500  0.061700  0.286300  1.0
  H  H74  1  0.139500  0.938300  0.713700  1.0
  H  H75  1  0.825000  0.993700  0.421800  1.0
  H  H76  1  0.175000  0.006300  0.578200  1.0
  H  H77  1  0.224500  0.057000  0.154700  1.0
  H  H78  1  0.775500  0.943000  0.845300  1.0
  H  H79  1  0.151700  0.972800  0.162400  1.0
  H  H80  1  0.848300  0.027200  0.837600  1.0
  H  H81  1  0.071300  0.070100  0.052100  1.0
  H  H82  1  0.928700  0.929900  0.947900  1.0
  H  H83  1  0.210300  0.057100  0.032000  1.0
  H  H84  1  0.789700  0.942900  0.968000  1.0
  H  H85  1  0.208500  0.322200  0.935700  1.0
  H  H86  1  0.791500  0.677800  0.064300  1.0
  H  H87  1  0.091100  0.364700  0.961200  1.0
  H  H88  1  0.908900  0.635300  0.038800  1.0
  H  H89  1  0.261300  0.461600  0.949400  1.0
  H  H90  1  0.738700  0.538400  0.050600  1.0
  H  H91  1  0.361100  0.392700  0.959800  1.0
  H  H92  1  0.638900  0.607300  0.040200  1.0
  H  H93  1  0.396900  0.493500  0.009700  1.0
  H  H94  1  0.603100  0.506500  0.990300  1.0
  H  H95  1  0.272200  0.462600  0.068100  1.0
  H  H96  1  0.727800  0.537400  0.931900  1.0
  H  H97  1  0.430100  0.515800  0.109500  1.0
  H  H98  1  0.569900  0.484200  0.890500  1.0
  H  H99  1  0.531300  0.528500  0.197500  1.0
  H  H100  1  0.468700  0.471500  0.802500  1.0
  H  H101  1  0.570400  0.269200  0.281200  1.0
  H  H102  1  0.429600  0.730800  0.718800  1.0
  H  H103  1  0.473600  0.257200  0.193300  1.0
  H  H104  1  0.526400  0.742800  0.806700  1.0
  H  H105  1  0.532000  0.493100  0.322500  1.0
  H  H106  1  0.468000  0.506900  0.677500  1.0
  H  H107  1  0.827900  0.450300  0.533600  1.0
  H  H108  1  0.172100  0.549700  0.466400  1.0
  H  H109  1  0.680800  0.548700  0.506400  1.0
  H  H110  1  0.319200  0.451300  0.493600  1.0
  H  H111  1  0.575100  0.553700  0.414000  1.0
  H  H112  1  0.424900  0.446300  0.586000  1.0
  H  H113  1  0.985600  0.511000  0.388400  1.0
  H  H114  1  0.014400  0.489000  0.611600  1.0
  H  H115  1  0.160600  0.591100  0.315400  1.0
  H  H116  1  0.839400  0.408900  0.684600  1.0
  H  H117  1  0.330400  0.522000  0.297900  1.0
  H  H118  1  0.669600  0.478000  0.702100  1.0
  H  H119  1  0.331500  0.369000  0.356800  1.0
  H  H120  1  0.668500  0.631000  0.643200  1.0
  H  H121  1  0.153100  0.288200  0.425200  1.0
  H  H122  1  0.846900  0.711800  0.574800  1.0
  H  H123  1  0.106600  0.338300  0.552100  1.0
  H  H124  1  0.893400  0.661700  0.447900  1.0
  H  H125  1  0.108800  0.297200  0.683700  1.0
  H  H126  1  0.891200  0.702800  0.316300  1.0
  H  H127  1  0.950200  0.223500  0.775600  1.0
  H  H128  1  0.049800  0.776500  0.224400  1.0
  H  H129  1  0.777800  0.205000  0.744100  1.0
  H  H130  1  0.222200  0.795000  0.255900  1.0
  H  H131  1  0.762500  0.247800  0.615300  1.0
  H  H132  1  0.237500  0.752200  0.384700  1.0
  H  H133  1  0.477800  0.891900  0.622800  1.0
  H  H134  1  0.522200  0.108100  0.377200  1.0
  H  H135  1  0.371500  0.998400  0.422400  1.0
  H  H136  1  0.628500  0.001600  0.577600  1.0
  H  H137  1  0.043900  0.216500  0.087400  1.0
  H  H138  1  0.956100  0.783500  0.912600  1.0
  H  H139  1  0.033200  0.200500  0.012900  1.0
  H  H140  1  0.966800  0.799500  0.987100  1.0
  C  C141  1  0.535500  0.264400  0.970200  1
  C  C142  1  0.464500  0.735600  0.029800  1
  C  C143  1  0.459800  0.200400  0.041600  1
  C  C144  1  0.540200  0.799600  0.958400  1
  C  C145  1  0.574800  0.748700  0.448600  1
  C  C146  1  0.425200  0.251300  0.551400  1
  C  C147  1  0.640000  0.817000  0.450000  1
  C  C148  1  0.360000  0.183000  0.550000  1
  C  C149  1  0.600000  0.700000  0.230000  1
  C  C150  1  0.400000  0.300000  0.770000  1
  C  C151  1  0.473000  0.716000  0.256000  1
  C  C152  1  0.527000  0.284000  0.744000  1
  C  C153  1  0.109000  0.046000  0.140600  1
  C  C154  1  0.891000  0.954000  0.859400  1
  C  C155  1  0.093000  0.100700  0.062900  1
  C  C156  1  0.907000  0.899300  0.937100  1
  C  C157  1  0.091000  0.244400  0.010000  1
  C  C158  1  0.909000  0.755600  0.990000  1
  C  C159  1  0.128000  0.666100  0.826200  1.0
  C  C160  1  0.872000  0.333900  0.173800  1.0
  C  C161  1  0.193400  0.740200  0.814100  1.0
  C  C162  1  0.806600  0.259800  0.185900  1.0
  C  C163  1  0.229100  0.749400  0.874100  1.0
  C  C164  1  0.770900  0.250600  0.125900  1.0
  C  C165  1  0.204000  0.685000  0.944800  1.0
  C  C166  1  0.796000  0.315000  0.055200  1.0
  C  C167  1  0.139400  0.613100  0.958500  1.0
  C  C168  1  0.860600  0.386900  0.041500  1.0
  C  C169  1  0.098600  0.603300  0.899800  1.0
  C  C170  1  0.901400  0.396700  0.100200  1.0
  C  C171  1  0.011500  0.550400  0.781900  1.0
  C  C172  1  0.988500  0.449600  0.218100  1.0
  C  C173  1  0.082600  0.482500  0.785600  1.0
  C  C174  1  0.917400  0.517500  0.214400  1.0
  C  C175  1  0.034700  0.397400  0.813900  1.0
  C  C176  1  0.965300  0.602600  0.186100  1.0
  C  C177  1  0.916200  0.379800  0.839600  1.0
  C  C178  1  0.083800  0.620200  0.160400  1.0
  C  C179  1  0.844700  0.447900  0.835200  1.0
  C  C180  1  0.155300  0.552100  0.164800  1.0
  C  C181  1  0.891200  0.532900  0.806100  1.0
  C  C182  1  0.108800  0.467100  0.193900  1.0
  C  C183  1  0.970900  0.736000  0.725100  1.0
  C  C184  1  0.029100  0.264000  0.274900  1.0
  C  C185  1  0.887700  0.844700  0.635600  1.0
  C  C186  1  0.112300  0.155300  0.364400  1.0
  C  C187  1  0.799300  0.851200  0.690800  1.0
  C  C188  1  0.200700  0.148800  0.309200  1.0
  C  C189  1  0.799700  0.799400  0.767300  1.0
  C  C190  1  0.200300  0.200600  0.232700  1.0
  C  C191  1  0.886000  0.740800  0.784400  1.0
  C  C192  1  0.114000  0.259200  0.215600  1.0
  C  C193  1  0.893700  0.899600  0.554600  1.0
  C  C194  1  0.106300  0.100400  0.445400  1.0
  C  C195  1  0.982100  0.936400  0.426400  1.0
  C  C196  1  0.017900  0.063600  0.573600  1.0
  C  C197  1  0.087700  0.930100  0.379400  1.0
  C  C198  1  0.912300  0.069900  0.620600  1.0
  C  C199  1  0.107100  0.970000  0.300900  1.0
  C  C200  1  0.892900  0.030000  0.699100  1.0
  C  C201  1  0.023800  0.018700  0.265900  1.0
  C  C202  1  0.976200  0.981300  0.734100  1.0
  C  C203  1  0.918900  0.027500  0.310700  1.0
  C  C204  1  0.081100  0.972500  0.689300  1.0
  C  C205  1  0.896400  0.986500  0.392300  1.0
  C  C206  1  0.103600  0.013500  0.607700  1.0
  C  C207  1  0.152000  0.036800  0.145200  1.0
  C  C208  1  0.848000  0.963200  0.854800  1.0
  C  C209  1  0.150000  0.079300  0.061700  1.0
  C  C210  1  0.850000  0.920700  0.938300  1.0
  C  C211  1  0.151200  0.323000  0.979800  1.0
  C  C212  1  0.848800  0.677000  0.020200  1.0
  C  C213  1  0.294500  0.412800  0.987400  1.0
  C  C214  1  0.705500  0.587200  0.012600  1.0
  C  C215  1  0.338300  0.443600  0.039200  1.0
  C  C216  1  0.661700  0.556400  0.960800  1.0
  C  C217  1  0.443700  0.386500  0.142700  1.0
  C  C218  1  0.556300  0.613500  0.857300  1.0
  C  C219  1  0.459300  0.465700  0.144400  1.0
  C  C220  1  0.540700  0.534300  0.855600  1.0
  C  C221  1  0.518000  0.473100  0.197500  1.0
  C  C222  1  0.482000  0.526900  0.802500  1.0
  C  C223  1  0.557300  0.398600  0.250800  1.0
  C  C224  1  0.442700  0.601400  0.749200  1.0
  C  C225  1  0.541300  0.319700  0.246700  1.0
  C  C226  1  0.458700  0.680300  0.753300  1.0
  C  C227  1  0.484800  0.312400  0.194500  1.0
  C  C228  1  0.515200  0.687600  0.805500  1.0
  C  C229  1  0.592600  0.454300  0.336400  1.0
  C  C230  1  0.407400  0.545700  0.663600  1.0
  C  C231  1  0.657600  0.456600  0.392700  1.0
  C  C232  1  0.342400  0.543400  0.607300  1.0
  C  C233  1  0.803700  0.397100  0.460100  1.0
  C  C234  1  0.196300  0.602900  0.539900  1.0
  C  C235  1  0.782700  0.452700  0.497300  1.0
  C  C236  1  0.217300  0.547300  0.502700  1.0
  C  C237  1  0.696900  0.510900  0.481200  1.0
  C  C238  1  0.303100  0.489100  0.518800  1.0
  C  C239  1  0.634000  0.513200  0.427100  1.0
  C  C240  1  0.366000  0.486800  0.572900  1.0
  C  C241  1  0.052700  0.390200  0.416400  1.0
  C  C242  1  0.947300  0.609800  0.583600  1.0
  C  C243  1  0.055300  0.481900  0.381900  1.0
  C  C244  1  0.944700  0.518100  0.618100  1.0
  C  C245  1  0.159300  0.529300  0.338400  1.0
  C  C246  1  0.840700  0.470700  0.661600  1.0
  C  C247  1  0.259900  0.488400  0.328300  1.0
  C  C248  1  0.740100  0.511600  0.671700  1.0
  C  C249  1  0.260800  0.397500  0.362300  1.0
  C  C250  1  0.739200  0.602500  0.637700  1.0
  C  C251  1  0.154900  0.350000  0.404300  1.0
  C  C252  1  0.845100  0.650000  0.595700  1.0
  C  C253  1  0.934900  0.296200  0.571400  1.0
  C  C254  1  0.065100  0.703800  0.428600  1.0
  C  C255  1  0.038500  0.311400  0.590200  1.0
  C  C256  1  0.961500  0.688600  0.409800  1.0
  C  C257  1  0.039600  0.285100  0.669500  1.0
  C  C258  1  0.960400  0.714900  0.330500  1.0
  C  C259  1  0.945300  0.243900  0.723600  1.0
  C  C260  1  0.054700  0.756100  0.276400  1.0
  C  C261  1  0.844800  0.231600  0.704900  1.0
  C  C262  1  0.155200  0.768400  0.295100  1.0
  C  C263  1  0.834700  0.257100  0.627900  1.0
  C  C264  1  0.165300  0.742900  0.372100  1.0
  C  C265  1  0.318100  0.860800  0.554700  1.0
  C  C266  1  0.681900  0.139200  0.445300  1.0
  C  C267  1  0.412000  0.933400  0.526500  1.0
  C  C268  1  0.588000  0.066600  0.473500  1.0
  C  C269  1  0.487000  0.935700  0.572600  1.0
  C  C270  1  0.513000  0.064300  0.427400  1.0
  C  C271  1  0.424000  0.998600  0.454000  1.0
  C  C272  1  0.576000  0.001400  0.546000  1.0
  C  C273  1  0.087000  0.220500  0.037300  1.0
  C  C274  1  0.913000  0.779500  0.962700  1.0
  N  N275  1  0.583900  0.312000  0.919000  1
  N  N276  1  0.416100  0.688000  0.081000  1
  N  N277  1  0.531000  0.704000  0.450700  1
  N  N278  1  0.469000  0.296000  0.549300  1
  N  N279  1  0.672000  0.657100  0.227400  1
  N  N280  1  0.328000  0.342900  0.772600  1
  N  N281  1  0.971900  0.787300  0.652400  1.0
  N  N282  1  0.028100  0.212700  0.347600  1.0
  N  N283  1  0.973900  0.888500  0.505600  1.0
  N  N284  1  0.026100  0.111500  0.494400  1.0
  N  N285  1  0.616900  0.400700  0.306300  1.0
  N  N286  1  0.383100  0.599300  0.693700  1.0
  N  N287  1  0.741000  0.398300  0.408600  1.0
  N  N288  1  0.259000  0.601700  0.591400  1.0
  O  O289  1  0.018900  0.059000  0.192300  1
  O  O290  1  0.981100  0.941000  0.807700  1
  O  O291  1  0.165900  0.165400  0.024400  1
  O  O292  1  0.834100  0.834600  0.975600  1
  O  O293  1  0.044000  0.061000  0.189000  1.0
  O  O294  1  0.956000  0.939000  0.811000  1.0
  O  O295  1  0.179100  0.181100  0.041600  1.0
  O  O296  1  0.820900  0.818900  0.958400  1.0
  O  O297  1  0.208200  0.344800  0.027500  1.0
  O  O298  1  0.791800  0.655200  0.972500  1.0
  O  O299  1  0.391400  0.372300  0.089800  1.0
  O  O300  1  0.608600  0.627700  0.910200  1.0
  O  O301  1  0.337800  0.790500  0.605400  1.0
  O  O302  1  0.662200  0.209500  0.394600  1.0
  O  O303  1  0.229500  0.875300  0.525100  1.0
  O  O304  1  0.770500  0.124700  0.474900  1.0
  F  F305  1  0.517000  0.001200  0.168100  1
  F  F306  1  0.483000  0.998800  0.831900  1
  F  F307  1  0.441200  0.088200  0.226800  1
  F  F308  1  0.558800  0.911800  0.773200  1
  F  F309  1  0.600200  0.013300  0.258700  1
  F  F310  1  0.399800  0.986700  0.741300  1
  F  F311  1  0.421000  0.942600  0.291300  1
  F  F312  1  0.579000  0.057400  0.708700  1
  F  F313  1  0.457200  0.075600  0.258700  1
  F  F314  1  0.542800  0.924400  0.741300  1
  F  F315  1  0.405400  0.987600  0.206900  1
  F  F316  1  0.594600  0.012400  0.793100  1
  F  F317  1  0.592400  0.043900  0.175500  1
  F  F318  1  0.407600  0.956100  0.824500  1
  F  F319  1  0.524000  0.939800  0.292900  1
  F  F320  1  0.476000  0.060200  0.707100  1
