# generated using pymatgen
data_Si2AgH20C16SN2O5F3
_symmetry_space_group_name_H-M   'P 1'
_cell_length_a   8.62140000
_cell_length_b   9.90350000
_cell_length_c   27.42100000
_cell_angle_alpha   90.00000000
_cell_angle_beta   90.00000000
_cell_angle_gamma   92.44600000
_symmetry_Int_Tables_number   1
_chemical_formula_structural   Si2AgH20C16SN2O5F3
_chemical_formula_sum   'Si8 Ag4 H80 C64 S4 N8 O20 F12'
_cell_volume   2339.12762860
_cell_formula_units_Z   4
loop_
 _symmetry_equiv_pos_site_id
 _symmetry_equiv_pos_as_xyz
  1  'x, y, z'
loop_
 _atom_site_type_symbol
 _atom_site_label
 _atom_site_symmetry_multiplicity
 _atom_site_fract_x
 _atom_site_fract_y
 _atom_site_fract_z
 _atom_site_occupancy
  Si  Si1  1  0.764680  0.895190  0.311800  1.0
  Si  Si2  1  0.235320  0.604810  0.811800  1.0
  Si  Si3  1  0.235320  0.104810  0.688200  1.0
  Si  Si4  1  0.764680  0.395190  0.188200  1.0
  Si  Si5  1  0.458530  0.717720  0.322220  1.0
  Si  Si6  1  0.541470  0.782280  0.822220  1.0
  Si  Si7  1  0.541470  0.282280  0.677780  1.0
  Si  Si8  1  0.458530  0.217720  0.177780  1.0
  Ag  Ag9  1  0.180530  0.617230  0.496418  1.0
  Ag  Ag10  1  0.819470  0.882770  0.996418  1.0
  Ag  Ag11  1  0.819470  0.382770  0.503582  1.0
  Ag  Ag12  1  0.180530  0.117230  0.003582  1.0
  H  H13  1  0.024600  0.885300  0.470900  1.0
  H  H14  1  0.975400  0.614700  0.970900  1.0
  H  H15  1  0.975400  0.114700  0.529100  1.0
  H  H16  1  0.024600  0.385300  0.029100  1.0
  H  H17  1  0.882500  0.982800  0.410100  1.0
  H  H18  1  0.117500  0.517200  0.910100  1.0
  H  H19  1  0.117500  0.017200  0.589900  1.0
  H  H20  1  0.882500  0.482800  0.089900  1.0
  H  H21  1  0.898300  0.633700  0.333700  1.0
  H  H22  1  0.101700  0.866300  0.833700  1.0
  H  H23  1  0.101700  0.366300  0.666300  1.0
  H  H24  1  0.898300  0.133700  0.166300  1.0
  H  H25  1  0.037000  0.542200  0.397300  1.0
  H  H26  1  0.963000  0.957800  0.897300  1.0
  H  H27  1  0.963000  0.457800  0.602700  1.0
  H  H28  1  0.037000  0.042200  0.102700  1.0
  H  H29  1  0.374100  0.367300  0.510800  1.0
  H  H30  1  0.625900  0.132700  0.010800  1.0
  H  H31  1  0.625900  0.632700  0.489200  1.0
  H  H32  1  0.374100  0.867300  0.989200  1.0
  H  H33  1  0.497400  0.249500  0.571500  1.0
  H  H34  1  0.502600  0.250500  0.071500  1.0
  H  H35  1  0.502600  0.750500  0.428500  1.0
  H  H36  1  0.497400  0.749500  0.928500  1.0
  H  H37  1  0.569600  0.437400  0.336300  1.0
  H  H38  1  0.430400  0.062600  0.836300  1.0
  H  H39  1  0.430400  0.562600  0.663700  1.0
  H  H40  1  0.569600  0.937400  0.163700  1.0
  H  H41  1  0.314500  0.674100  0.600200  1.0
  H  H42  1  0.685500  0.825900  0.100200  1.0
  H  H43  1  0.685500  0.325900  0.399800  1.0
  H  H44  1  0.314500  0.174100  0.899800  1.0
  H  H45  1  0.921100  0.812100  0.249300  1.0
  H  H46  1  0.078900  0.687900  0.749300  1.0
  H  H47  1  0.078900  0.187900  0.750700  1.0
  H  H48  1  0.921100  0.312100  0.250700  1.0
  H  H49  1  0.981300  0.958400  0.263600  1.0
  H  H50  1  0.018700  0.541600  0.763600  1.0
  H  H51  1  0.018700  0.041600  0.736400  1.0
  H  H52  1  0.981300  0.458400  0.236400  1.0
  H  H53  1  0.834600  0.937800  0.230200  1.0
  H  H54  1  0.165400  0.562200  0.730200  1.0
  H  H55  1  0.165400  0.062200  0.769800  1.0
  H  H56  1  0.834600  0.437800  0.269800  1.0
  H  H57  1  0.638300  0.060000  0.357600  1.0
  H  H58  1  0.361700  0.440000  0.857600  1.0
  H  H59  1  0.361700  0.940000  0.642400  1.0
  H  H60  1  0.638300  0.560000  0.142400  1.0
  H  H61  1  0.645100  0.104000  0.302700  1.0
  H  H62  1  0.354900  0.396000  0.802700  1.0
  H  H63  1  0.354900  0.896000  0.697300  1.0
  H  H64  1  0.645100  0.604000  0.197300  1.0
  H  H65  1  0.792500  0.124100  0.335800  1.0
  H  H66  1  0.207500  0.375900  0.835800  1.0
  H  H67  1  0.207500  0.875900  0.664200  1.0
  H  H68  1  0.792500  0.624100  0.164200  1.0
  H  H69  1  0.440200  0.542200  0.264400  1.0
  H  H70  1  0.559800  0.957800  0.764400  1.0
  H  H71  1  0.559800  0.457800  0.735600  1.0
  H  H72  1  0.440200  0.042200  0.235600  1.0
  H  H73  1  0.339000  0.661300  0.247400  1.0
  H  H74  1  0.661000  0.838700  0.747400  1.0
  H  H75  1  0.661000  0.338700  0.752600  1.0
  H  H76  1  0.339000  0.161300  0.252600  1.0
  H  H77  1  0.276800  0.561200  0.287800  1.0
  H  H78  1  0.723200  0.938800  0.787800  1.0
  H  H79  1  0.723200  0.438800  0.712200  1.0
  H  H80  1  0.276800  0.061200  0.212200  1.0
  H  H81  1  0.294500  0.901700  0.317800  1.0
  H  H82  1  0.705500  0.598300  0.817800  1.0
  H  H83  1  0.705500  0.098300  0.682200  1.0
  H  H84  1  0.294500  0.401700  0.182200  1.0
  H  H85  1  0.382600  0.905400  0.367900  1.0
  H  H86  1  0.617400  0.594600  0.867900  1.0
  H  H87  1  0.617400  0.094600  0.632100  1.0
  H  H88  1  0.382600  0.405400  0.132100  1.0
  H  H89  1  0.239100  0.805100  0.360300  1.0
  H  H90  1  0.760900  0.694900  0.860300  1.0
  H  H91  1  0.760900  0.194900  0.639700  1.0
  H  H92  1  0.239100  0.305100  0.139700  1.0
  C  C93  1  0.818100  0.760500  0.639200  1
  C  C94  1  0.181900  0.739500  0.139200  1
  C  C95  1  0.181900  0.239500  0.360800  1
  C  C96  1  0.818100  0.260500  0.860800  1
  C  C97  1  0.657800  0.094100  0.513500  1
  C  C98  1  0.342200  0.405900  0.013500  1
  C  C99  1  0.342200  0.905900  0.486500  1
  C  C100  1  0.657800  0.594100  0.986500  1
  C  C101  1  0.997100  0.832400  0.442560  1.0
  C  C102  1  0.002900  0.667600  0.942560  1.0
  C  C103  1  0.002900  0.167600  0.557440  1.0
  C  C104  1  0.997100  0.332400  0.057440  1.0
  C  C105  1  0.914200  0.891700  0.406130  1.0
  C  C106  1  0.085800  0.608300  0.906130  1.0
  C  C107  1  0.085800  0.108300  0.593870  1.0
  C  C108  1  0.914200  0.391700  0.093870  1.0
  C  C109  1  0.875900  0.821800  0.363910  1.0
  C  C110  1  0.124100  0.678200  0.863910  1.0
  C  C111  1  0.124100  0.178200  0.636090  1.0
  C  C112  1  0.875900  0.321800  0.136090  1.0
  C  C113  1  0.923200  0.688100  0.361900  1.0
  C  C114  1  0.076800  0.811900  0.861900  1.0
  C  C115  1  0.076800  0.311900  0.638100  1.0
  C  C116  1  0.923200  0.188100  0.138100  1.0
  C  C117  1  0.005100  0.633600  0.399900  1.0
  C  C118  1  0.994900  0.866400  0.899900  1.0
  C  C119  1  0.994900  0.366400  0.600100  1.0
  C  C120  1  0.005100  0.133600  0.100100  1.0
  C  C121  1  0.384100  0.407100  0.542670  1.0
  C  C122  1  0.615900  0.092900  0.042670  1.0
  C  C123  1  0.615900  0.592900  0.457330  1.0
  C  C124  1  0.384100  0.907100  0.957330  1.0
  C  C125  1  0.457400  0.336200  0.578820  1.0
  C  C126  1  0.542600  0.163800  0.078820  1.0
  C  C127  1  0.542600  0.663800  0.421180  1.0
  C  C128  1  0.457400  0.836200  0.921180  1.0
  C  C129  1  0.526000  0.611300  0.374460  1.0
  C  C130  1  0.474000  0.888700  0.874460  1.0
  C  C131  1  0.474000  0.388700  0.625540  1.0
  C  C132  1  0.526000  0.111300  0.125540  1.0
  C  C133  1  0.581000  0.480800  0.367500  1.0
  C  C134  1  0.419000  0.019200  0.867500  1.0
  C  C135  1  0.419000  0.519200  0.632500  1.0
  C  C136  1  0.581000  0.980800  0.132500  1.0
  C  C137  1  0.349000  0.584500  0.594700  1.0
  C  C138  1  0.651000  0.915500  0.094700  1.0
  C  C139  1  0.651000  0.415500  0.405300  1.0
  C  C140  1  0.349000  0.084500  0.905300  1.0
  C  C141  1  0.890600  0.901700  0.257100  1.0
  C  C142  1  0.109400  0.598300  0.757100  1.0
  C  C143  1  0.109400  0.098300  0.742900  1.0
  C  C144  1  0.890600  0.401700  0.242900  1.0
  C  C145  1  0.702600  0.066600  0.329100  1.0
  C  C146  1  0.297400  0.433400  0.829100  1.0
  C  C147  1  0.297400  0.933400  0.670900  1.0
  C  C148  1  0.702600  0.566600  0.170900  1.0
  C  C149  1  0.367700  0.607300  0.274700  1.0
  C  C150  1  0.632300  0.892700  0.774700  1.0
  C  C151  1  0.632300  0.392700  0.725300  1.0
  C  C152  1  0.367700  0.107300  0.225300  1.0
  C  C153  1  0.327900  0.848200  0.344800  1.0
  C  C154  1  0.672100  0.651800  0.844800  1.0
  C  C155  1  0.672100  0.151800  0.655200  1.0
  C  C156  1  0.327900  0.348200  0.155200  1.0
  S  S157  1  0.868210  0.748730  0.575030  1
  S  S158  1  0.131790  0.751270  0.075030  1
  S  S159  1  0.131790  0.251270  0.424970  1
  S  S160  1  0.868210  0.248730  0.924970  1
  N  N161  1  0.041700  0.704000  0.440560  1.0
  N  N162  1  0.958300  0.796000  0.940560  1.0
  N  N163  1  0.958300  0.296000  0.559440  1.0
  N  N164  1  0.041700  0.204000  0.059440  1.0
  N  N165  1  0.326400  0.528700  0.550070  1.0
  N  N166  1  0.673600  0.971300  0.050070  1.0
  N  N167  1  0.673600  0.471300  0.449930  1.0
  N  N168  1  0.326400  0.028700  0.949930  1.0
  O  O169  1  0.806800  0.866000  0.554400  1
  O  O170  1  0.193200  0.634000  0.054400  1
  O  O171  1  0.193200  0.134000  0.445600  1
  O  O172  1  0.806800  0.366000  0.945600  1
  O  O173  1  0.794100  0.623200  0.561320  1
  O  O174  1  0.205900  0.876800  0.061320  1
  O  O175  1  0.205900  0.376800  0.438680  1
  O  O176  1  0.794100  0.123200  0.938680  1
  O  O177  1  0.032100  0.750300  0.576000  1
  O  O178  1  0.967900  0.749700  0.076000  1
  O  O179  1  0.967900  0.249700  0.424000  1
  O  O180  1  0.032100  0.250300  0.924000  1
  O  O181  1  0.553300  0.044600  0.481400  1
  O  O182  1  0.446700  0.455400  0.981400  1
  O  O183  1  0.446700  0.955400  0.518600  1
  O  O184  1  0.553300  0.544600  0.018600  1
  O  O185  1  0.615900  0.791400  0.299500  1.0
  O  O186  1  0.384100  0.708600  0.799500  1.0
  O  O187  1  0.384100  0.208600  0.700500  1.0
  O  O188  1  0.615900  0.291400  0.200500  1.0
  F  F189  1  0.856500  0.655900  0.663200  1
  F  F190  1  0.143500  0.844100  0.163200  1
  F  F191  1  0.143500  0.344100  0.336800  1
  F  F192  1  0.856500  0.155900  0.836800  1
  F  F193  1  0.666600  0.774300  0.645640  1
  F  F194  1  0.333400  0.725700  0.145640  1
  F  F195  1  0.333400  0.225700  0.354360  1
  F  F196  1  0.666600  0.274300  0.854360  1
  F  F197  1  0.886100  0.867700  0.659850  1
  F  F198  1  0.113900  0.632300  0.159850  1
  F  F199  1  0.113900  0.132300  0.340150  1
  F  F200  1  0.886100  0.367700  0.840150  1
