# generated using pymatgen
data_Si2AgH20C14N2ClO5
_symmetry_space_group_name_H-M   'P 1'
_cell_length_a   10.56180000
_cell_length_b   14.23850000
_cell_length_c   14.55390000
_cell_angle_alpha   71.59300000
_cell_angle_beta   84.04200000
_cell_angle_gamma   81.30400000
_symmetry_Int_Tables_number   1
_chemical_formula_structural   Si2AgH20C14N2ClO5
_chemical_formula_sum   'Si8 Ag4 H80 C56 N8 Cl4 O20'
_cell_volume   2049.15550125
_cell_formula_units_Z   4
loop_
 _symmetry_equiv_pos_site_id
 _symmetry_equiv_pos_as_xyz
  1  'x, y, z'
loop_
 _atom_site_type_symbol
 _atom_site_label
 _atom_site_symmetry_multiplicity
 _atom_site_fract_x
 _atom_site_fract_y
 _atom_site_fract_z
 _atom_site_occupancy
  Si  Si1  1  0.135210  0.109740  0.567860  1.0
  Si  Si2  1  0.864790  0.890260  0.432140  1.0
  Si  Si3  1  0.303200  0.107100  0.378690  1.0
  Si  Si4  1  0.696800  0.892900  0.621310  1.0
  Si  Si5  1  0.502750  0.247720  0.964630  1.0
  Si  Si6  1  0.497250  0.752280  0.035370  1.0
  Si  Si7  1  0.742700  0.086990  0.959690  1.0
  Si  Si8  1  0.257300  0.913010  0.040310  1.0
  Ag  Ag9  1  0.364140  0.517030  0.615420  1.0
  Ag  Ag10  1  0.635860  0.482970  0.384580  1.0
  Ag  Ag11  1  0.864980  0.582050  0.020870  1.0
  Ag  Ag12  1  0.135020  0.417950  0.979130  1.0
  H  H13  1  0.445200  0.298400  0.628800  1.0
  H  H14  1  0.554800  0.701600  0.371200  1.0
  H  H15  1  0.368400  0.158400  0.621300  1.0
  H  H16  1  0.631600  0.841600  0.378700  1.0
  H  H17  1  0.026700  0.321900  0.556200  1.0
  H  H18  1  0.973300  0.678100  0.443800  1.0
  H  H19  1  0.108800  0.456700  0.572000  1.0
  H  H20  1  0.891200  0.543300  0.428000  1.0
  H  H21  1  0.318500  0.738300  0.604400  1.0
  H  H22  1  0.681500  0.261700  0.395600  1.0
  H  H23  1  0.424300  0.867700  0.607100  1.0
  H  H24  1  0.575700  0.132300  0.392900  1.0
  H  H25  1  0.253600  0.327900  0.333000  1.0
  H  H26  1  0.746400  0.672100  0.667000  1.0
  H  H27  1  0.629500  0.549200  0.664500  1.0
  H  H28  1  0.370500  0.450800  0.335500  1.0
  H  H29  1  0.236000  0.993000  0.702900  1.0
  H  H30  1  0.764000  0.007000  0.297100  1.0
  H  H31  1  0.128200  0.945500  0.673300  1.0
  H  H32  1  0.871800  0.054500  0.326700  1.0
  H  H33  1  0.091800  0.021300  0.732700  1.0
  H  H34  1  0.908200  0.978700  0.267300  1.0
  H  H35  1  0.946800  0.077000  0.518400  1.0
  H  H36  1  0.053200  0.923000  0.481600  1.0
  H  H37  1  0.967900  0.188400  0.465600  1.0
  H  H38  1  0.032100  0.811600  0.534400  1.0
  H  H39  1  0.912900  0.156700  0.573700  1.0
  H  H40  1  0.087100  0.843300  0.426300  1.0
  H  H41  1  0.477200  0.979500  0.407200  1.0
  H  H42  1  0.522800  0.020500  0.592800  1.0
  H  H43  1  0.449700  0.014900  0.296900  1.0
  H  H44  1  0.550300  0.985100  0.703100  1.0
  H  H45  1  0.362900  0.943300  0.372500  1.0
  H  H46  1  0.637100  0.056700  0.627500  1.0
  H  H47  1  0.120100  0.203500  0.304300  1.0
  H  H48  1  0.879900  0.796500  0.695700  1.0
  H  H49  1  0.124100  0.093100  0.303700  1.0
  H  H50  1  0.875900  0.906900  0.696300  1.0
  H  H51  1  0.210900  0.164800  0.228200  1.0
  H  H52  1  0.789100  0.835200  0.771800  1.0
  H  H53  1  0.784900  0.507300  0.862000  1.0
  H  H54  1  0.215100  0.492700  0.138000  1.0
  H  H55  1  0.667400  0.392800  0.840700  1.0
  H  H56  1  0.332600  0.607200  0.159300  1.0
  H  H57  1  0.543400  0.330200  0.122800  1.0
  H  H58  1  0.456600  0.669800  0.877200  1.0
  H  H59  1  0.667400  0.443000  0.139200  1.0
  H  H60  1  0.332600  0.557000  0.860800  1.0
  H  H61  1  0.946700  0.674000  0.169100  1.0
  H  H62  1  0.053300  0.326000  0.830900  1.0
  H  H63  1  0.074200  0.787700  0.178900  1.0
  H  H64  1  0.925800  0.212300  0.821100  1.0
  H  H65  1  0.848500  0.143800  0.110300  1.0
  H  H66  1  0.151500  0.856200  0.889700  1.0
  H  H67  1  0.018900  0.742500  0.886100  1.0
  H  H68  1  0.981100  0.257500  0.113900  1.0
  H  H69  1  0.350500  0.152800  0.065100  1.0
  H  H70  1  0.649500  0.847200  0.934900  1.0
  H  H71  1  0.336100  0.257700  0.081600  1.0
  H  H72  1  0.663900  0.742300  0.918400  1.0
  H  H73  1  0.446300  0.174900  0.128900  1.0
  H  H74  1  0.553700  0.825100  0.871100  1.0
  H  H75  1  0.365800  0.247900  0.847700  1.0
  H  H76  1  0.634200  0.752100  0.152300  1.0
  H  H77  1  0.468700  0.320100  0.799100  1.0
  H  H78  1  0.531300  0.679900  0.200900  1.0
  H  H79  1  0.350500  0.354300  0.860600  1.0
  H  H80  1  0.649500  0.645700  0.139400  1.0
  H  H81  1  0.777100  0.102500  0.795100  1.0
  H  H82  1  0.222900  0.897500  0.204900  1.0
  H  H83  1  0.708100  0.008100  0.848100  1.0
  H  H84  1  0.291900  0.991900  0.151900  1.0
  H  H85  1  0.855900  0.004000  0.855900  1.0
  H  H86  1  0.144100  0.996000  0.144100  1.0
  H  H87  1  0.718500  0.002100  0.124600  1.0
  H  H88  1  0.281500  0.997900  0.875400  1.0
  H  H89  1  0.819300  0.938700  0.074000  1.0
  H  H90  1  0.180700  0.061300  0.926000  1.0
  H  H91  1  0.672200  0.941100  0.064400  1.0
  H  H92  1  0.327800  0.058900  0.935600  1.0
  C  C93  1  0.357000  0.303600  0.615000  1.0
  C  C94  1  0.643000  0.696400  0.385000  1.0
  C  C95  1  0.312200  0.220200  0.608700  1.0
  C  C96  1  0.687800  0.779800  0.391300  1.0
  C  C97  1  0.187900  0.223300  0.584700  1.0
  C  C98  1  0.812100  0.776700  0.415300  1.0
  C  C99  1  0.114500  0.314200  0.572000  1.0
  C  C100  1  0.885500  0.685800  0.428000  1.0
  C  C101  1  0.163900  0.394700  0.581400  1.0
  C  C102  1  0.836100  0.605300  0.418600  1.0
  C  C103  1  0.407600  0.724300  0.618100  1.0
  C  C104  1  0.592400  0.275700  0.381900  1.0
  C  C105  1  0.470800  0.802100  0.618600  1.0
  C  C106  1  0.529200  0.197900  0.381400  1.0
  C  C107  1  0.399800  0.212800  0.364600  1.0
  C  C108  1  0.600200  0.787200  0.635400  1.0
  C  C109  1  0.342700  0.311100  0.346500  1.0
  C  C110  1  0.657300  0.688900  0.653500  1.0
  C  C111  1  0.586800  0.616000  0.652300  1.0
  C  C112  1  0.413200  0.384000  0.347700  1.0
  C  C113  1  0.149500  0.004600  0.683200  1.0
  C  C114  1  0.850500  0.995400  0.316800  1.0
  C  C115  1  0.971100  0.136100  0.526500  1.0
  C  C116  1  0.028900  0.863900  0.473500  1.0
  C  C117  1  0.411200  0.998100  0.361800  1.0
  C  C118  1  0.588800  0.001900  0.638200  1.0
  C  C119  1  0.174100  0.146900  0.293500  1.0
  C  C120  1  0.825900  0.853100  0.706500  1.0
  C  C121  1  0.735600  0.469500  0.916700  1.0
  C  C122  1  0.264400  0.530500  0.083300  1.0
  C  C123  1  0.665500  0.401800  0.903400  1.0
  C  C124  1  0.334500  0.598200  0.096600  1.0
  C  C125  1  0.591700  0.346200  0.980100  1.0
  C  C126  1  0.408300  0.653800  0.019900  1.0
  C  C127  1  0.594200  0.365300  0.067600  1.0
  C  C128  1  0.405800  0.634700  0.932400  1.0
  C  C129  1  0.666900  0.432600  0.077200  1.0
  C  C130  1  0.333100  0.567400  0.922800  1.0
  C  C131  1  0.989200  0.711900  0.110700  1.0
  C  C132  1  0.010800  0.288100  0.889300  1.0
  C  C133  1  0.066100  0.778600  0.117300  1.0
  C  C134  1  0.933900  0.221400  0.882700  1.0
  C  C135  1  0.867000  0.166500  0.965900  1.0
  C  C136  1  0.133000  0.833500  0.034100  1.0
  C  C137  1  0.889200  0.181300  0.050700  1.0
  C  C138  1  0.110800  0.818700  0.949300  1.0
  C  C139  1  0.031200  0.751100  0.947300  1.0
  C  C140  1  0.968800  0.248900  0.052700  1.0
  C  C141  1  0.396200  0.202900  0.073000  1.0
  C  C142  1  0.603800  0.797100  0.927000  1.0
  C  C143  1  0.411000  0.298600  0.854800  1.0
  C  C144  1  0.589000  0.701400  0.145200  1.0
  C  C145  1  0.774800  0.045500  0.851900  1.0
  C  C146  1  0.225200  0.954500  0.148100  1.0
  C  C147  1  0.737600  0.979500  0.068600  1.0
  C  C148  1  0.262400  0.020500  0.931400  1.0
  N  N149  1  0.285000  0.390300  0.603100  1.0
  N  N150  1  0.715000  0.609700  0.396900  1.0
  N  N151  1  0.462900  0.632200  0.635100  1.0
  N  N152  1  0.537100  0.367800  0.364900  1.0
  N  N153  1  0.738700  0.485300  0.000900  1.0
  N  N154  1  0.261300  0.514700  0.999100  1.0
  N  N155  1  0.970200  0.696800  0.027700  1.0
  N  N156  1  0.029800  0.303200  0.972300  1.0
  Cl  Cl157  1  0.061910  0.590550  0.751080  1
  Cl  Cl158  1  0.938090  0.409450  0.248920  1
  Cl  Cl159  1  0.275270  0.661540  0.375590  1
  Cl  Cl160  1  0.724730  0.338460  0.624410  1
  O  O161  1  0.985900  0.593600  0.678400  1
  O  O162  1  0.014100  0.406400  0.321600  1
  O  O163  1  0.985800  0.587600  0.836800  1
  O  O164  1  0.014200  0.412400  0.163200  1
  O  O165  1  0.157700  0.504900  0.769100  1
  O  O166  1  0.842300  0.495100  0.230900  1
  O  O167  1  0.124500  0.678000  0.727200  1
  O  O168  1  0.875500  0.322000  0.272800  1
  O  O169  1  0.308200  0.757100  0.351400  1
  O  O170  1  0.691800  0.242900  0.648600  1
  O  O171  1  0.193800  0.648300  0.321000  1
  O  O172  1  0.806200  0.351700  0.679000  1
  O  O173  1  0.215000  0.641900  0.468300  1
  O  O174  1  0.785000  0.358100  0.531700  1
  O  O175  1  0.387900  0.599000  0.374700  1
  O  O176  1  0.612100  0.401000  0.625300  1
  O  O177  1  0.240500  0.076600  0.490100  1.0
  O  O178  1  0.759500  0.923400  0.509900  1.0
  O  O179  1  0.605700  0.156000  0.951800  1.0
  O  O180  1  0.394300  0.844000  0.048200  1.0
