# generated using pymatgen
data_Si2AgH20C14N3O4
_symmetry_space_group_name_H-M   'P 1'
_cell_length_a   13.05450872
_cell_length_b   13.05450872
_cell_length_c   14.25355637
_cell_angle_alpha   102.25508358
_cell_angle_beta   109.35554092
_cell_angle_gamma   113.97692022
_symmetry_Int_Tables_number   1
_chemical_formula_structural   Si2AgH20C14N3O4
_chemical_formula_sum   'Si8 Ag4 H80 C56 N12 O16'
_cell_volume   1916.96383266
_cell_formula_units_Z   4
loop_
 _symmetry_equiv_pos_site_id
 _symmetry_equiv_pos_as_xyz
  1  'x, y, z'
loop_
 _atom_site_type_symbol
 _atom_site_label
 _atom_site_symmetry_multiplicity
 _atom_site_fract_x
 _atom_site_fract_y
 _atom_site_fract_z
 _atom_site_occupancy
  Ag  Ag1  1  0.596840  0.625560  0.501720  1.0
  Ag  Ag2  1  0.623840  0.095120  0.998280  1.0
  Ag  Ag3  1  0.403160  0.374440  0.498280  1.0
  Ag  Ag4  1  0.376160  0.904880  0.001720  1.0
  C  C5  1  0.375100  0.592600  0.305700  1.0
  C  C6  1  0.786900  0.069400  0.194300  1.0
  C  C7  1  0.624900  0.407400  0.694300  1.0
  C  C8  1  0.213100  0.930600  0.805700  1.0
  C  C9  1  0.293100  0.558700  0.200000  1.0
  C  C10  1  0.858700  0.093100  0.300000  1.0
  C  C11  1  0.706900  0.441300  0.800000  1.0
  C  C12  1  0.141300  0.906900  0.700000  1.0
  C  C13  1  0.318100  0.518500  0.116400  1.0
  C  C14  1  0.902100  0.201700  0.383600  1.0
  C  C15  1  0.681900  0.481500  0.883600  1.0
  C  C16  1  0.097900  0.798300  0.616400  1.0
  C  C17  1  0.431000  0.519200  0.148000  1.0
  C  C18  1  0.871200  0.283000  0.352000  1.0
  C  C19  1  0.569000  0.480800  0.852000  1.0
  C  C20  1  0.128800  0.717000  0.648000  1.0
  C  C21  1  0.508700  0.552500  0.255600  1.0
  C  C22  1  0.796900  0.253100  0.244400  1.0
  C  C23  1  0.491300  0.447500  0.744400  1.0
  C  C24  1  0.203100  0.746900  0.755600  1.0
  C  C25  1  0.836300  0.698100  0.707400  1.0
  C  C26  1  0.490700  0.128900  0.792600  1.0
  C  C27  1  0.163700  0.301900  0.292600  1.0
  C  C28  1  0.509300  0.871100  0.207400  1.0
  C  C29  1  0.913800  0.733300  0.815500  1.0
  C  C30  1  0.417800  0.098300  0.684500  1.0
  C  C31  1  0.086200  0.266700  0.184500  1.0
  C  C32  1  0.582200  0.901700  0.315500  1.0
  C  C33  1  0.118600  0.229200  0.105400  1.0
  C  C34  1  0.623800  0.013200  0.394600  1.0
  C  C35  1  0.881400  0.770800  0.894600  1.0
  C  C36  1  0.376200  0.986800  0.605400  1.0
  C  C37  1  0.231600  0.229800  0.143200  1.0
  C  C38  1  0.586600  0.088400  0.356800  1.0
  C  C39  1  0.768400  0.770200  0.856800  1.0
  C  C40  1  0.413400  0.911600  0.643200  1.0
  C  C41  1  0.694700  0.732500  0.747800  1.0
  C  C42  1  0.484700  0.946900  0.752200  1.0
  C  C43  1  0.305300  0.267500  0.252200  1.0
  C  C44  1  0.515300  0.053100  0.247800  1.0
  C  C45  1  0.142900  0.559100  0.944600  1.0
  C  C46  1  0.114500  0.198300  0.555400  1.0
  C  C47  1  0.857100  0.440900  0.055400  1.0
  C  C48  1  0.885500  0.801700  0.444600  1.0
  C  C49  1  0.267500  0.419300  0.883200  1.0
  C  C50  1  0.036100  0.384300  0.616800  1.0
  C  C51  1  0.732500  0.580700  0.116800  1.0
  C  C52  1  0.963900  0.615700  0.383200  1.0
  C  C53  1  0.855300  0.128500  0.921800  1.0
  C  C54  1  0.706700  0.933500  0.578200  1.0
  C  C55  1  0.144700  0.871500  0.078200  1.0
  C  C56  1  0.293300  0.066500  0.421800  1.0
  C  C57  1  0.055000  0.099500  0.870700  1.0
  C  C58  1  0.728800  0.184300  0.629300  1.0
  C  C59  1  0.945000  0.900500  0.129300  1.0
  C  C60  1  0.271200  0.815700  0.370700  1.0
  H  H61  1  0.355300  0.620300  0.361600  1.0
  H  H62  1  0.758700  0.993700  0.138400  1.0
  H  H63  1  0.644700  0.379700  0.638400  1.0
  H  H64  1  0.241300  0.006300  0.861600  1.0
  H  H65  1  0.217700  0.562800  0.183500  1.0
  H  H66  1  0.879300  0.034200  0.316500  1.0
  H  H67  1  0.782300  0.437200  0.816500  1.0
  H  H68  1  0.120700  0.965800  0.683500  1.0
  H  H69  1  0.455400  0.496000  0.094200  1.0
  H  H70  1  0.901800  0.361200  0.405800  1.0
  H  H71  1  0.544600  0.504000  0.905800  1.0
  H  H72  1  0.098200  0.638800  0.594200  1.0
  H  H73  1  0.585000  0.549500  0.274700  1.0
  H  H74  1  0.774800  0.310300  0.225300  1.0
  H  H75  1  0.415000  0.450500  0.725300  1.0
  H  H76  1  0.225200  0.689700  0.774700  1.0
  H  H77  1  0.861500  0.673400  0.654900  1.0
  H  H78  1  0.518500  0.206600  0.845100  1.0
  H  H79  1  0.138500  0.326600  0.345100  1.0
  H  H80  1  0.481500  0.793400  0.154900  1.0
  H  H81  1  0.990900  0.731800  0.836500  1.0
  H  H82  1  0.395300  0.154400  0.663500  1.0
  H  H83  1  0.009100  0.268200  0.163500  1.0
  H  H84  1  0.604700  0.845600  0.336500  1.0
  H  H85  1  0.258500  0.203500  0.092600  1.0
  H  H86  1  0.610900  0.165900  0.407400  1.0
  H  H87  1  0.741500  0.796500  0.907400  1.0
  H  H88  1  0.389100  0.834100  0.592600  1.0
  H  H89  1  0.616200  0.731500  0.724300  1.0
  H  H90  1  0.507200  0.891900  0.775700  1.0
  H  H91  1  0.383800  0.268500  0.275700  1.0
  H  H92  1  0.492800  0.108100  0.224300  1.0
  H  H93  1  0.104100  0.571000  0.989300  1.0
  H  H94  1  0.081700  0.114800  0.510700  1.0
  H  H95  1  0.895900  0.429000  0.010700  1.0
  H  H96  1  0.918300  0.885200  0.489300  1.0
  H  H97  1  0.082200  0.525300  0.869500  1.0
  H  H98  1  0.155800  0.212700  0.630500  1.0
  H  H99  1  0.917800  0.474700  0.130500  1.0
  H  H100  1  0.844200  0.787300  0.369500  1.0
  H  H101  1  0.214100  0.636400  0.961900  1.0
  H  H102  1  0.174500  0.252200  0.538100  1.0
  H  H103  1  0.785900  0.363600  0.038100  1.0
  H  H104  1  0.825500  0.747800  0.461900  1.0
  H  H105  1  0.206500  0.385600  0.808100  1.0
  H  H106  1  0.077500  0.398400  0.691900  1.0
  H  H107  1  0.793500  0.614400  0.191900  1.0
  H  H108  1  0.922500  0.601600  0.308100  1.0
  H  H109  1  0.291000  0.361300  0.897300  1.0
  H  H110  1  0.964000  0.393700  0.602700  1.0
  H  H111  1  0.709000  0.638700  0.102700  1.0
  H  H112  1  0.036000  0.606300  0.397300  1.0
  H  H113  1  0.341300  0.493500  0.899000  1.0
  H  H114  1  0.094500  0.442300  0.601000  1.0
  H  H115  1  0.658700  0.506500  0.101000  1.0
  H  H116  1  0.905500  0.557700  0.399000  1.0
  H  H117  1  0.844300  0.184300  0.967600  1.0
  H  H118  1  0.716700  0.876700  0.532400  1.0
  H  H119  1  0.155700  0.815700  0.032400  1.0
  H  H120  1  0.283300  0.123300  0.467600  1.0
  H  H121  1  0.825400  0.053200  0.931400  1.0
  H  H122  1  0.621800  0.894000  0.568600  1.0
  H  H123  1  0.174600  0.946800  0.068600  1.0
  H  H124  1  0.378200  0.106000  0.431400  1.0
  H  H125  1  0.807900  0.112800  0.847300  1.0
  H  H126  1  0.765500  0.960600  0.652700  1.0
  H  H127  1  0.192100  0.887200  0.152700  1.0
  H  H128  1  0.234500  0.039400  0.347300  1.0
  H  H129  1  0.144200  0.138500  0.893300  1.0
  H  H130  1  0.745200  0.250900  0.606700  1.0
  H  H131  1  0.855800  0.861500  0.106700  1.0
  H  H132  1  0.254800  0.749100  0.393300  1.0
  H  H133  1  0.010700  0.087500  0.796800  1.0
  H  H134  1  0.790700  0.213900  0.703200  1.0
  H  H135  1  0.989300  0.912500  0.203200  1.0
  H  H136  1  0.209300  0.786100  0.296800  1.0
  H  H137  1  0.025600  0.021600  0.876000  1.0
  H  H138  1  0.645600  0.149600  0.624000  1.0
  H  H139  1  0.974400  0.978400  0.124000  1.0
  H  H140  1  0.354400  0.850400  0.376000  1.0
  N  N141  1  0.307100  0.568400  0.535500  1
  N  N142  1  0.532900  0.771600  0.964500  1
  N  N143  1  0.692900  0.431600  0.464500  1
  N  N144  1  0.467100  0.228400  0.035500  1
  N  N145  1  0.481600  0.589000  0.334400  1.0
  N  N146  1  0.754600  0.147200  0.165600  1.0
  N  N147  1  0.518400  0.411000  0.665600  1.0
  N  N148  1  0.245400  0.852800  0.834400  1.0
  N  N149  1  0.727300  0.697000  0.672700  1.0
  N  N150  1  0.524300  0.054600  0.827300  1.0
  N  N151  1  0.272700  0.303000  0.327300  1.0
  N  N152  1  0.475700  0.945400  0.172700  1.0
  O  O153  1  0.415400  0.640700  0.556100  1
  O  O154  1  0.584600  0.859300  0.943900  1
  O  O155  1  0.584600  0.359300  0.443900  1
  O  O156  1  0.415400  0.140700  0.056100  1
  O  O157  1  0.281500  0.478000  0.555700  1
  O  O158  1  0.422300  0.725800  0.944300  1
  O  O159  1  0.718500  0.522000  0.444300  1
  O  O160  1  0.577700  0.274200  0.055700  1
  O  O161  1  0.224800  0.584300  0.485700  1
  O  O162  1  0.598600  0.739100  0.014300  1
  O  O163  1  0.775200  0.415700  0.514300  1
  O  O164  1  0.401400  0.260900  0.985700  1
  O  O165  1  0.073500  0.329200  0.949700  1.0
  O  O166  1  0.879500  0.123800  0.550300  1.0
  O  O167  1  0.926500  0.670800  0.050300  1.0
  O  O168  1  0.120500  0.876200  0.449700  1.0
  Si  Si169  1  0.197200  0.453270  0.969690  1.0
  Si  Si170  1  0.983580  0.227510  0.530310  1.0
  Si  Si171  1  0.802800  0.546730  0.030310  1.0
  Si  Si172  1  0.016420  0.772490  0.469690  1.0
  Si  Si173  1  0.025120  0.196810  0.958670  1.0
  Si  Si174  1  0.738140  0.066450  0.541330  1.0
  Si  Si175  1  0.974880  0.803190  0.041330  1.0
  Si  Si176  1  0.261860  0.933550  0.458670  1.0
