# generated using pymatgen
data_Si2AgPH20C14N2OF6
_symmetry_space_group_name_H-M   'P 1'
_cell_length_a   8.93300000
_cell_length_b   10.79123600
_cell_length_c   24.83628934
_cell_angle_alpha   80.68532795
_cell_angle_beta   79.63969627
_cell_angle_gamma   65.54989341
_symmetry_Int_Tables_number   1
_chemical_formula_structural   Si2AgPH20C14N2OF6
_chemical_formula_sum   'Si8 Ag4 P4 H80 C56 N8 O4 F24'
_cell_volume   2133.69255054
_cell_formula_units_Z   4
loop_
 _symmetry_equiv_pos_site_id
 _symmetry_equiv_pos_as_xyz
  1  'x, y, z'
loop_
 _atom_site_type_symbol
 _atom_site_label
 _atom_site_symmetry_multiplicity
 _atom_site_fract_x
 _atom_site_fract_y
 _atom_site_fract_z
 _atom_site_occupancy
  Ag  Ag1  1  0.875810  0.445900  0.965020  1.0
  Ag  Ag2  1  0.286730  0.054100  0.534980  1.0
  Ag  Ag3  1  0.124190  0.554100  0.034980  1.0
  Ag  Ag4  1  0.713270  0.945900  0.465020  1.0
  C  C5  1  0.758500  0.730100  0.903300  1.0
  C  C6  1  0.391900  0.769900  0.596700  1.0
  C  C7  1  0.241500  0.269900  0.096700  1.0
  C  C8  1  0.608100  0.230100  0.403300  1.0
  C  C9  1  0.758400  0.838200  0.864600  1.0
  C  C10  1  0.461200  0.661800  0.635400  1.0
  C  C11  1  0.241600  0.161800  0.135400  1.0
  C  C12  1  0.538800  0.338200  0.364600  1.0
  C  C13  1  0.897900  0.817200  0.824400  1.0
  C  C14  1  0.539500  0.682800  0.675600  1.0
  C  C15  1  0.102100  0.182800  0.175600  1.0
  C  C16  1  0.460500  0.317200  0.324400  1.0
  C  C17  1  0.019600  0.692400  0.828000  1.0
  C  C18  1  0.540000  0.807600  0.672000  1.0
  C  C19  1  0.980400  0.307600  0.172000  1.0
  C  C20  1  0.460000  0.192400  0.328000  1.0
  C  C21  1  0.010200  0.589900  0.867500  1.0
  C  C22  1  0.467600  0.910100  0.632500  1.0
  C  C23  1  0.989800  0.410100  0.132500  1.0
  C  C24  1  0.532400  0.089900  0.367500  1.0
  C  C25  1  0.039600  0.888100  0.708700  1.0
  C  C26  1  0.636400  0.611900  0.791300  1.0
  C  C27  1  0.960400  0.111900  0.291300  1.0
  C  C28  1  0.363600  0.388100  0.208700  1.0
  C  C29  1  0.698900  0.069700  0.752500  1.0
  C  C30  1  0.521100  0.430300  0.747500  1.0
  C  C31  1  0.301100  0.930300  0.247500  1.0
  C  C32  1  0.478900  0.569700  0.252500  1.0
  C  C33  1  0.018000  0.164600  0.025400  1.0
  C  C34  1  0.208000  0.335400  0.474600  1.0
  C  C35  1  0.982000  0.835400  0.974600  1.0
  C  C36  1  0.792000  0.664600  0.525400  1.0
  C  C37  1  0.030600  0.053700  0.065100  1.0
  C  C38  1  0.149400  0.446300  0.434900  1.0
  C  C39  1  0.969400  0.946300  0.934900  1.0
  C  C40  1  0.850600  0.553700  0.565100  1.0
  C  C41  1  0.105500  0.939100  0.897100  1.0
  C  C42  1  0.941700  0.560900  0.602900  1.0
  C  C43  1  0.894500  0.060900  0.102900  1.0
  C  C44  1  0.058300  0.439100  0.397100  1.0
  C  C45  1  0.250900  0.825500  0.904700  1.0
  C  C46  1  0.981100  0.674500  0.595300  1.0
  C  C47  1  0.749100  0.174500  0.095300  1.0
  C  C48  1  0.018900  0.325500  0.404700  1.0
  C  C49  1  0.749800  0.275500  0.054900  1.0
  C  C50  1  0.080200  0.224500  0.445100  1.0
  C  C51  1  0.250200  0.724500  0.945100  1.0
  C  C52  1  0.919800  0.775500  0.554900  1.0
  C  C53  1  0.979000  0.245500  0.856500  1.0
  C  C54  1  0.081000  0.254500  0.643500  1.0
  C  C55  1  0.021000  0.754500  0.143500  1.0
  C  C56  1  0.919000  0.745500  0.356500  1.0
  C  C57  1  0.292900  0.048400  0.799800  1.0
  C  C58  1  0.141100  0.451600  0.700200  1.0
  C  C59  1  0.707100  0.951600  0.200200  1.0
  C  C60  1  0.858900  0.548400  0.299800  1.0
  F  F61  1  0.583100  0.594300  0.109500  1
  F  F62  1  0.286900  0.905700  0.390500  1
  F  F63  1  0.416900  0.405700  0.890500  1
  F  F64  1  0.713100  0.094300  0.609500  1
  F  F65  1  0.401700  0.804900  0.107700  1
  F  F66  1  0.314300  0.695100  0.392300  1
  F  F67  1  0.598300  0.195100  0.892300  1
  F  F68  1  0.685700  0.304900  0.607700  1
  F  F69  1  0.738500  0.661900  0.046100  1
  F  F70  1  0.446500  0.838100  0.453900  1
  F  F71  1  0.261500  0.338100  0.953900  1
  F  F72  1  0.553500  0.161900  0.546100  1
  F  F73  1  0.624200  0.774400  0.111200  1
  F  F74  1  0.509800  0.725600  0.388800  1
  F  F75  1  0.375800  0.225600  0.888800  1
  F  F76  1  0.490200  0.274400  0.611200  1
  F  F77  1  0.507500  0.653200  0.039800  1
  F  F78  1  0.200500  0.846800  0.460200  1
  F  F79  1  0.492500  0.346800  0.960200  1
  F  F80  1  0.799500  0.153200  0.539800  1
  F  F81  1  0.513000  0.832300  0.027700  1
  F  F82  1  0.373000  0.667700  0.472300  1
  F  F83  1  0.487000  0.167700  0.972300  1
  F  F84  1  0.627000  0.332300  0.527700  1
  H  H85  1  0.666100  0.744700  0.929700  1.0
  H  H86  1  0.340500  0.755300  0.570300  1.0
  H  H87  1  0.333900  0.255300  0.070300  1.0
  H  H88  1  0.659500  0.244700  0.429700  1.0
  H  H89  1  0.668700  0.922400  0.865000  1.0
  H  H90  1  0.456100  0.577600  0.635000  1.0
  H  H91  1  0.331300  0.077600  0.135000  1.0
  H  H92  1  0.543900  0.422400  0.365000  1.0
  H  H93  1  0.114700  0.674300  0.802700  1.0
  H  H94  1  0.591700  0.825700  0.697300  1.0
  H  H95  1  0.885300  0.325700  0.197300  1.0
  H  H96  1  0.408300  0.174300  0.302700  1.0
  H  H97  1  0.098000  0.504600  0.867600  1.0
  H  H98  1  0.470200  0.995400  0.632400  1.0
  H  H99  1  0.902000  0.495400  0.132400  1.0
  H  H100  1  0.529800  0.004600  0.367600  1.0
  H  H101  1  0.044900  0.960900  0.681500  1.0
  H  H102  1  0.687300  0.539100  0.818500  1.0
  H  H103  1  0.955100  0.039100  0.318500  1.0
  H  H104  1  0.312700  0.460900  0.181500  1.0
  H  H105  1  0.994200  0.835400  0.694600  1.0
  H  H106  1  0.524200  0.664600  0.805400  1.0
  H  H107  1  0.005800  0.164600  0.305400  1.0
  H  H108  1  0.475800  0.335400  0.194600  1.0
  H  H109  1  0.149600  0.830200  0.717400  1.0
  H  H110  1  0.697200  0.669800  0.782600  1.0
  H  H111  1  0.850400  0.169800  0.282600  1.0
  H  H112  1  0.302800  0.330200  0.217400  1.0
  H  H113  1  0.628000  0.108900  0.784700  1.0
  H  H114  1  0.521600  0.391100  0.715300  1.0
  H  H115  1  0.372000  0.891100  0.215300  1.0
  H  H116  1  0.478400  0.608900  0.284700  1.0
  H  H117  1  0.654300  0.015600  0.738600  1.0
  H  H118  1  0.408500  0.484400  0.761400  1.0
  H  H119  1  0.345700  0.984400  0.261400  1.0
  H  H120  1  0.591500  0.515600  0.238600  1.0
  H  H121  1  0.704300  0.141500  0.724900  1.0
  H  H122  1  0.570700  0.358500  0.775100  1.0
  H  H123  1  0.295700  0.858500  0.275100  1.0
  H  H124  1  0.429300  0.641500  0.224900  1.0
  H  H125  1  0.113000  0.160200  0.001400  1.0
  H  H126  1  0.274600  0.339800  0.498600  1.0
  H  H127  1  0.887000  0.839800  0.998600  1.0
  H  H128  1  0.725400  0.660200  0.501400  1.0
  H  H129  1  0.128500  0.976400  0.065800  1.0
  H  H130  1  0.170700  0.523600  0.434200  1.0
  H  H131  1  0.871500  0.023600  0.934200  1.0
  H  H132  1  0.829300  0.476400  0.565800  1.0
  H  H133  1  0.348300  0.818500  0.882100  1.0
  H  H134  1  0.048900  0.681500  0.617900  1.0
  H  H135  1  0.651700  0.181500  0.117900  1.0
  H  H136  1  0.951100  0.318500  0.382100  1.0
  H  H137  1  0.651300  0.351300  0.051300  1.0
  H  H138  1  0.053900  0.148700  0.448700  1.0
  H  H139  1  0.348700  0.648700  0.948700  1.0
  H  H140  1  0.946100  0.851300  0.551300  1.0
  H  H141  1  0.872000  0.255700  0.876100  1.0
  H  H142  1  0.003800  0.244300  0.623900  1.0
  H  H143  1  0.128000  0.744300  0.123900  1.0
  H  H144  1  0.996200  0.755700  0.376100  1.0
  H  H145  1  0.042000  0.261900  0.879900  1.0
  H  H146  1  0.183800  0.238100  0.620100  1.0
  H  H147  1  0.958000  0.738100  0.120100  1.0
  H  H148  1  0.816200  0.761900  0.379900  1.0
  H  H149  1  0.965100  0.310000  0.824400  1.0
  H  H150  1  0.099500  0.190000  0.675600  1.0
  H  H151  1  0.034900  0.690000  0.175600  1.0
  H  H152  1  0.900500  0.810000  0.324400  1.0
  H  H153  1  0.282100  0.115900  0.768700  1.0
  H  H154  1  0.166700  0.384100  0.731300  1.0
  H  H155  1  0.717900  0.884100  0.231300  1.0
  H  H156  1  0.833300  0.615900  0.268700  1.0
  H  H157  1  0.358100  0.058600  0.824200  1.0
  H  H158  1  0.240900  0.441400  0.675800  1.0
  H  H159  1  0.641900  0.941400  0.175800  1.0
  H  H160  1  0.759100  0.558600  0.324200  1.0
  H  H161  1  0.346800  0.958700  0.787300  1.0
  H  H162  1  0.092800  0.541300  0.712700  1.0
  H  H163  1  0.653200  0.041300  0.212700  1.0
  H  H164  1  0.907200  0.458700  0.287300  1.0
  N  N165  1  0.880100  0.609000  0.905200  1.0
  N  N166  1  0.394300  0.891000  0.594800  1.0
  N  N167  1  0.119900  0.391000  0.094800  1.0
  N  N168  1  0.605700  0.109000  0.405200  1.0
  N  N169  1  0.883300  0.273100  0.020100  1.0
  N  N170  1  0.176500  0.226900  0.479900  1.0
  N  N171  1  0.116700  0.726900  0.979900  1.0
  N  N172  1  0.823500  0.773100  0.520100  1.0
  O  O173  1  0.978600  0.047500  0.796700  1.0
  O  O174  1  0.822800  0.452500  0.703300  1.0
  O  O175  1  0.021400  0.952500  0.203300  1.0
  O  O176  1  0.177200  0.547500  0.296700  1.0
  P  P177  1  0.557900  0.725900  0.073500  1
  P  P178  1  0.357300  0.774100  0.426500  1
  P  P179  1  0.442100  0.274100  0.926500  1
  P  P180  1  0.642700  0.225900  0.573500  1
  Si  Si181  1  0.909200  0.959640  0.770560  1.0
  Si  Si182  1  0.639400  0.540360  0.729440  1.0
  Si  Si183  1  0.090800  0.040360  0.229440  1.0
  Si  Si184  1  0.360600  0.459640  0.270560  1.0
  Si  Si185  1  0.088500  0.071000  0.835800  1.0
  Si  Si186  1  0.995300  0.429000  0.664200  1.0
  Si  Si187  1  0.911500  0.929000  0.164200  1.0
  Si  Si188  1  0.004700  0.571000  0.335800  1.0
