# generated using pymatgen
data_Si2AgH20C14N2ClO5
_symmetry_space_group_name_H-M   'P 1'
_cell_length_a   13.43588040
_cell_length_b   13.43588040
_cell_length_c   14.73258302
_cell_angle_alpha   96.99997836
_cell_angle_beta   114.05428267
_cell_angle_gamma   114.79858093
_symmetry_Int_Tables_number   1
_chemical_formula_structural   Si2AgH20C14N2ClO5
_chemical_formula_sum   'Si8 Ag4 H80 C56 N8 Cl4 O20'
_cell_volume   2062.52549642
_cell_formula_units_Z   4
loop_
 _symmetry_equiv_pos_site_id
 _symmetry_equiv_pos_as_xyz
  1  'x, y, z'
loop_
 _atom_site_type_symbol
 _atom_site_label
 _atom_site_symmetry_multiplicity
 _atom_site_fract_x
 _atom_site_fract_y
 _atom_site_fract_z
 _atom_site_occupancy
  Ag  Ag1  1  0.591270  0.634660  0.500410  1.0
  Ag  Ag2  1  0.634250  0.090860  0.999590  1.0
  Ag  Ag3  1  0.408730  0.365340  0.499590  1.0
  Ag  Ag4  1  0.365750  0.909140  0.000410  1.0
  C  C5  1  0.364400  0.594100  0.293900  1.0
  C  C6  1  0.800200  0.070500  0.206100  1.0
  C  C7  1  0.635600  0.405900  0.706100  1.0
  C  C8  1  0.199800  0.929500  0.793900  1.0
  C  C9  1  0.280700  0.557600  0.186900  1.0
  C  C10  1  0.870700  0.093800  0.313100  1.0
  C  C11  1  0.719300  0.442400  0.813100  1.0
  C  C12  1  0.129300  0.906200  0.686900  1.0
  C  C13  1  0.308300  0.519200  0.112700  1.0
  C  C14  1  0.906500  0.195600  0.387300  1.0
  C  C15  1  0.691700  0.480800  0.887300  1.0
  C  C16  1  0.093500  0.804400  0.612700  1.0
  C  C17  1  0.422700  0.526000  0.153100  1.0
  C  C18  1  0.872900  0.269600  0.346900  1.0
  C  C19  1  0.577300  0.474000  0.846900  1.0
  C  C20  1  0.127100  0.730400  0.653100  1.0
  C  C21  1  0.503200  0.564700  0.263700  1.0
  C  C22  1  0.801000  0.239500  0.236300  1.0
  C  C23  1  0.496800  0.435300  0.736300  1.0
  C  C24  1  0.199000  0.760500  0.763700  1.0
  C  C25  1  0.832800  0.709100  0.712300  1.0
  C  C26  1  0.496800  0.120500  0.787700  1.0
  C  C27  1  0.167200  0.290900  0.287700  1.0
  C  C28  1  0.503200  0.879500  0.212300  1.0
  C  C29  1  0.910900  0.742900  0.820000  1.0
  C  C30  1  0.422900  0.090900  0.680000  1.0
  C  C31  1  0.089100  0.257100  0.180000  1.0
  C  C32  1  0.577100  0.909100  0.320000  1.0
  C  C33  1  0.123000  0.229600  0.108000  1.0
  C  C34  1  0.621600  0.015000  0.392000  1.0
  C  C35  1  0.877000  0.770400  0.892000  1.0
  C  C36  1  0.378400  0.985000  0.608000  1.0
  C  C37  1  0.236000  0.234600  0.154800  1.0
  C  C38  1  0.579800  0.081200  0.345200  1.0
  C  C39  1  0.764000  0.765400  0.845200  1.0
  C  C40  1  0.420200  0.918800  0.654800  1.0
  C  C41  1  0.688700  0.731700  0.738200  1.0
  C  C42  1  0.493500  0.950500  0.761800  1.0
  C  C43  1  0.311300  0.268300  0.261800  1.0
  C  C44  1  0.506500  0.049500  0.238200  1.0
  C  C45  1  0.118900  0.545600  0.924900  1.0
  C  C46  1  0.120700  0.194000  0.575100  1.0
  C  C47  1  0.881100  0.454400  0.075100  1.0
  C  C48  1  0.879300  0.806000  0.424900  1.0
  C  C49  1  0.256500  0.419100  0.889800  1.0
  C  C50  1  0.029300  0.366700  0.610200  1.0
  C  C51  1  0.743500  0.580900  0.110200  1.0
  C  C52  1  0.970700  0.633300  0.389800  1.0
  C  C53  1  0.856600  0.129300  0.920500  1.0
  C  C54  1  0.708800  0.936100  0.579500  1.0
  C  C55  1  0.143400  0.870700  0.079500  1.0
  C  C56  1  0.291200  0.063900  0.420500  1.0
  C  C57  1  0.051000  0.107000  0.883600  1.0
  C  C58  1  0.723400  0.167400  0.616400  1.0
  C  C59  1  0.949000  0.893000  0.116400  1.0
  C  C60  1  0.276600  0.832600  0.383600  1.0
  Cl  Cl61  1  0.290840  0.566360  0.530800  1
  Cl  Cl62  1  0.535560  0.760040  0.969200  1
  Cl  Cl63  1  0.709160  0.433640  0.469200  1
  Cl  Cl64  1  0.464440  0.239960  0.030800  1
  H  H65  1  0.342400  0.619100  0.342900  1.0
  H  H66  1  0.776200  0.999500  0.157100  1.0
  H  H67  1  0.657600  0.380900  0.657100  1.0
  H  H68  1  0.223800  0.000500  0.842900  1.0
  H  H69  1  0.203200  0.558400  0.163200  1.0
  H  H70  1  0.895200  0.040000  0.336800  1.0
  H  H71  1  0.796800  0.441600  0.836800  1.0
  H  H72  1  0.104800  0.960000  0.663200  1.0
  H  H73  1  0.448800  0.504300  0.106100  1.0
  H  H74  1  0.898200  0.342700  0.393900  1.0
  H  H75  1  0.551200  0.495700  0.893900  1.0
  H  H76  1  0.101800  0.657300  0.606100  1.0
  H  H77  1  0.583100  0.568000  0.289900  1.0
  H  H78  1  0.778100  0.293200  0.210100  1.0
  H  H79  1  0.416900  0.432000  0.710100  1.0
  H  H80  1  0.221900  0.706800  0.789900  1.0
  H  H81  1  0.860900  0.692000  0.665300  1.0
  H  H82  1  0.526700  0.195600  0.834700  1.0
  H  H83  1  0.139100  0.308000  0.334700  1.0
  H  H84  1  0.473300  0.804400  0.165300  1.0
  H  H85  1  0.991400  0.747400  0.846000  1.0
  H  H86  1  0.401400  0.145400  0.654000  1.0
  H  H87  1  0.008600  0.252600  0.154000  1.0
  H  H88  1  0.598600  0.854600  0.346000  1.0
  H  H89  1  0.264600  0.213200  0.110000  1.0
  H  H90  1  0.603200  0.154600  0.390000  1.0
  H  H91  1  0.735400  0.786800  0.890000  1.0
  H  H92  1  0.396800  0.845400  0.610000  1.0
  H  H93  1  0.610500  0.731600  0.711100  1.0
  H  H94  1  0.520500  0.899400  0.788900  1.0
  H  H95  1  0.389500  0.268400  0.288900  1.0
  H  H96  1  0.479500  0.100600  0.211100  1.0
  H  H97  1  0.083300  0.556100  0.967600  1.0
  H  H98  1  0.088500  0.115700  0.532400  1.0
  H  H99  1  0.916700  0.443900  0.032400  1.0
  H  H100  1  0.911500  0.884300  0.467600  1.0
  H  H101  1  0.053200  0.508000  0.851400  1.0
  H  H102  1  0.156600  0.201800  0.648600  1.0
  H  H103  1  0.946800  0.492000  0.148600  1.0
  H  H104  1  0.843400  0.798200  0.351400  1.0
  H  H105  1  0.184400  0.620600  0.935400  1.0
  H  H106  1  0.185200  0.249000  0.564600  1.0
  H  H107  1  0.815600  0.379400  0.064600  1.0
  H  H108  1  0.814800  0.751000  0.435400  1.0
  H  H109  1  0.194400  0.385500  0.815300  1.0
  H  H110  1  0.070200  0.379100  0.684700  1.0
  H  H111  1  0.805600  0.614500  0.184700  1.0
  H  H112  1  0.929800  0.620900  0.315300  1.0
  H  H113  1  0.281300  0.364600  0.910900  1.0
  H  H114  1  0.953700  0.370400  0.589100  1.0
  H  H115  1  0.718700  0.635400  0.089100  1.0
  H  H116  1  0.046300  0.629600  0.410900  1.0
  H  H117  1  0.329800  0.490100  0.903500  1.0
  H  H118  1  0.086600  0.426300  0.596500  1.0
  H  H119  1  0.670200  0.509900  0.096500  1.0
  H  H120  1  0.913400  0.573700  0.403500  1.0
  H  H121  1  0.843600  0.178800  0.961400  1.0
  H  H122  1  0.717400  0.882200  0.538600  1.0
  H  H123  1  0.156400  0.821200  0.038600  1.0
  H  H124  1  0.282600  0.117800  0.461400  1.0
  H  H125  1  0.830100  0.056000  0.931900  1.0
  H  H126  1  0.624100  0.898200  0.568100  1.0
  H  H127  1  0.169900  0.944000  0.068100  1.0
  H  H128  1  0.375900  0.101800  0.431900  1.0
  H  H129  1  0.807300  0.115500  0.846400  1.0
  H  H130  1  0.769100  0.960900  0.653600  1.0
  H  H131  1  0.192700  0.884500  0.153600  1.0
  H  H132  1  0.230900  0.039100  0.346400  1.0
  H  H133  1  0.139600  0.144700  0.905300  1.0
  H  H134  1  0.739400  0.234300  0.594700  1.0
  H  H135  1  0.860400  0.855300  0.094700  1.0
  H  H136  1  0.260600  0.765700  0.405300  1.0
  H  H137  1  0.001800  0.093500  0.809700  1.0
  H  H138  1  0.783800  0.192100  0.690300  1.0
  H  H139  1  0.998200  0.906500  0.190300  1.0
  H  H140  1  0.216200  0.807900  0.309700  1.0
  H  H141  1  0.024600  0.033500  0.894900  1.0
  H  H142  1  0.638600  0.129700  0.605100  1.0
  H  H143  1  0.975400  0.966500  0.105100  1.0
  H  H144  1  0.361400  0.870300  0.394900  1.0
  N  N145  1  0.474200  0.596500  0.333100  1.0
  N  N146  1  0.763400  0.141100  0.166900  1.0
  N  N147  1  0.525800  0.403500  0.666900  1.0
  N  N148  1  0.236600  0.858900  0.833100  1.0
  N  N149  1  0.719100  0.699500  0.671400  1.0
  N  N150  1  0.528100  0.047700  0.828600  1.0
  N  N151  1  0.280900  0.300500  0.328600  1.0
  N  N152  1  0.471900  0.952300  0.171400  1.0
  O  O153  1  0.404800  0.640800  0.533000  1
  O  O154  1  0.607800  0.871800  0.967000  1
  O  O155  1  0.595200  0.359200  0.467000  1
  O  O156  1  0.392200  0.128200  0.033000  1
  O  O157  1  0.195800  0.549000  0.431200  1
  O  O158  1  0.617800  0.764600  0.068800  1
  O  O159  1  0.804200  0.451000  0.568800  1
  O  O160  1  0.382200  0.235400  0.931200  1
  O  O161  1  0.276300  0.458700  0.535200  1
  O  O162  1  0.423500  0.741100  0.964800  1
  O  O163  1  0.723700  0.541300  0.464800  1
  O  O164  1  0.576500  0.258900  0.035200  1
  O  O165  1  0.298200  0.630300  0.616100  1
  O  O166  1  0.514200  0.682100  0.883900  1
  O  O167  1  0.701800  0.369700  0.383900  1
  O  O168  1  0.485800  0.317900  0.116100  1
  O  O169  1  0.070500  0.328500  0.948800  1.0
  O  O170  1  0.879700  0.121700  0.551200  1.0
  O  O171  1  0.929500  0.671500  0.051200  1.0
  O  O172  1  0.120300  0.878300  0.448800  1.0
  Si  Si173  1  0.188350  0.452010  0.964760  1.0
  Si  Si174  1  0.987250  0.223590  0.535240  1.0
  Si  Si175  1  0.811650  0.547990  0.035240  1.0
  Si  Si176  1  0.012750  0.776410  0.464760  1.0
  Si  Si177  1  0.026330  0.201330  0.962100  1.0
  Si  Si178  1  0.739230  0.064230  0.537900  1.0
  Si  Si179  1  0.973670  0.798670  0.037900  1.0
  Si  Si180  1  0.260770  0.935770  0.462100  1.0
