# generated using pymatgen
data_H25PdC25S(NO3)4
_symmetry_space_group_name_H-M   'P 1'
_cell_length_a   16.32241376
_cell_length_b   16.32241376
_cell_length_c   16.32241376
_cell_angle_alpha   102.36665464
_cell_angle_beta   102.36665464
_cell_angle_gamma   102.36665464
_symmetry_Int_Tables_number   1
_chemical_formula_structural   H25PdC25S(NO3)4
_chemical_formula_sum   'H150 Pd6 C150 S6 N24 O72'
_cell_volume   3992.11278781
_cell_formula_units_Z   6
loop_
 _symmetry_equiv_pos_site_id
 _symmetry_equiv_pos_as_xyz
  1  'x, y, z'
loop_
 _atom_site_type_symbol
 _atom_site_label
 _atom_site_symmetry_multiplicity
 _atom_site_fract_x
 _atom_site_fract_y
 _atom_site_fract_z
 _atom_site_occupancy
  C  C1  1  0.523300  0.466300  0.646300  1
  C  C2  1  0.646300  0.523300  0.466300  1
  C  C3  1  0.466300  0.646300  0.523300  1
  C  C4  1  0.146300  0.966300  0.023300  1
  C  C5  1  0.966300  0.023300  0.146300  1
  C  C6  1  0.023300  0.146300  0.966300  1
  C  C7  1  0.629300  0.378500  0.635900  1
  C  C8  1  0.635900  0.629300  0.378500  1
  C  C9  1  0.378500  0.635900  0.629300  1
  C  C10  1  0.135900  0.878500  0.129300  1
  C  C11  1  0.878500  0.129300  0.135900  1
  C  C12  1  0.129300  0.135900  0.878500  1
  C  C13  1  0.219367  0.329533  0.109200  1
  C  C14  1  0.109200  0.219367  0.329533  1
  C  C15  1  0.329533  0.109200  0.219367  1
  C  C16  1  0.609200  0.829533  0.719367  1
  C  C17  1  0.829533  0.719367  0.609200  1
  C  C18  1  0.719367  0.609200  0.829533  1
  C  C19  1  0.220600  0.272600  0.165200  1
  C  C20  1  0.165200  0.220600  0.272600  1
  C  C21  1  0.272600  0.165200  0.220600  1
  C  C22  1  0.665200  0.772600  0.720600  1
  C  C23  1  0.772600  0.720600  0.665200  1
  C  C24  1  0.720600  0.665200  0.772600  1
  C  C25  1  0.273100  0.220300  0.164700  1
  C  C26  1  0.164700  0.273100  0.220300  1
  C  C27  1  0.220300  0.164700  0.273100  1
  C  C28  1  0.664700  0.720300  0.773100  1
  C  C29  1  0.720300  0.773100  0.664700  1
  C  C30  1  0.773100  0.664700  0.720300  1
  C  C31  1  0.634100  0.295200  0.918700  1.0
  C  C32  1  0.918700  0.634100  0.295200  1.0
  C  C33  1  0.295200  0.918700  0.634100  1.0
  C  C34  1  0.418700  0.795200  0.134100  1.0
  C  C35  1  0.795200  0.134100  0.418700  1.0
  C  C36  1  0.134100  0.418700  0.795200  1.0
  C  C37  1  0.684000  0.238200  0.923400  1.0
  C  C38  1  0.923400  0.684000  0.238200  1.0
  C  C39  1  0.238200  0.923400  0.684000  1.0
  C  C40  1  0.423400  0.738200  0.184000  1.0
  C  C41  1  0.738200  0.184000  0.423400  1.0
  C  C42  1  0.184000  0.423400  0.738200  1.0
  C  C43  1  0.692200  0.203200  0.991600  1.0
  C  C44  1  0.991600  0.692200  0.203200  1.0
  C  C45  1  0.203200  0.991600  0.692200  1.0
  C  C46  1  0.491600  0.703200  0.192200  1.0
  C  C47  1  0.703200  0.192200  0.491600  1.0
  C  C48  1  0.192200  0.491600  0.703200  1.0
  C  C49  1  0.652300  0.228500  0.054800  1.0
  C  C50  1  0.054800  0.652300  0.228500  1.0
  C  C51  1  0.228500  0.054800  0.652300  1.0
  C  C52  1  0.554800  0.728500  0.152300  1.0
  C  C53  1  0.728500  0.152300  0.554800  1.0
  C  C54  1  0.152300  0.554800  0.728500  1.0
  C  C55  1  0.600800  0.285100  0.048200  1.0
  C  C56  1  0.048200  0.600800  0.285100  1.0
  C  C57  1  0.285100  0.048200  0.600800  1.0
  C  C58  1  0.548200  0.785100  0.100800  1.0
  C  C59  1  0.785100  0.100800  0.548200  1.0
  C  C60  1  0.100800  0.548200  0.785100  1.0
  C  C61  1  0.549600  0.310000  0.112900  1.0
  C  C62  1  0.112900  0.549600  0.310000  1.0
  C  C63  1  0.310000  0.112900  0.549600  1.0
  C  C64  1  0.612900  0.810000  0.049600  1.0
  C  C65  1  0.810000  0.049600  0.612900  1.0
  C  C66  1  0.049600  0.612900  0.810000  1.0
  C  C67  1  0.568100  0.286200  0.196200  1.0
  C  C68  1  0.196200  0.568100  0.286200  1.0
  C  C69  1  0.286200  0.196200  0.568100  1.0
  C  C70  1  0.696200  0.786200  0.068100  1.0
  C  C71  1  0.786200  0.068100  0.696200  1.0
  C  C72  1  0.068100  0.696200  0.786200  1.0
  C  C73  1  0.510000  0.311900  0.318300  1.0
  C  C74  1  0.318300  0.510000  0.311900  1.0
  C  C75  1  0.311900  0.318300  0.510000  1.0
  C  C76  1  0.818300  0.811900  0.010000  1.0
  C  C77  1  0.811900  0.010000  0.818300  1.0
  C  C78  1  0.010000  0.818300  0.811900  1.0
  C  C79  1  0.447000  0.350300  0.353700  1.0
  C  C80  1  0.353700  0.447000  0.350300  1.0
  C  C81  1  0.350300  0.353700  0.447000  1.0
  C  C82  1  0.853700  0.850300  0.947000  1.0
  C  C83  1  0.850300  0.947000  0.853700  1.0
  C  C84  1  0.947000  0.853700  0.850300  1.0
  C  C85  1  0.415200  0.414600  0.320300  1.0
  C  C86  1  0.320300  0.415200  0.414600  1.0
  C  C87  1  0.414600  0.320300  0.415200  1.0
  C  C88  1  0.820300  0.914600  0.915200  1.0
  C  C89  1  0.914600  0.915200  0.820300  1.0
  C  C90  1  0.915200  0.820300  0.914600  1.0
  C  C91  1  0.481000  0.553200  0.903800  1.0
  C  C92  1  0.903800  0.481000  0.553200  1.0
  C  C93  1  0.553200  0.903800  0.481000  1.0
  C  C94  1  0.403800  0.053200  0.981000  1.0
  C  C95  1  0.053200  0.981000  0.403800  1.0
  C  C96  1  0.981000  0.403800  0.053200  1.0
  C  C97  1  0.438100  0.608500  0.882400  1.0
  C  C98  1  0.882400  0.438100  0.608500  1.0
  C  C99  1  0.608500  0.882400  0.438100  1.0
  C  C100  1  0.382400  0.108500  0.938100  1.0
  C  C101  1  0.108500  0.938100  0.382400  1.0
  C  C102  1  0.938100  0.382400  0.108500  1.0
  C  C103  1  0.371100  0.617100  0.916800  1.0
  C  C104  1  0.916800  0.371100  0.617100  1.0
  C  C105  1  0.617100  0.916800  0.371100  1.0
  C  C106  1  0.416800  0.117100  0.871100  1.0
  C  C107  1  0.117100  0.871100  0.416800  1.0
  C  C108  1  0.871100  0.416800  0.117100  1.0
  C  C109  1  0.350600  0.570800  0.974900  1.0
  C  C110  1  0.974900  0.350600  0.570800  1.0
  C  C111  1  0.570800  0.974900  0.350600  1.0
  C  C112  1  0.474900  0.070800  0.850600  1.0
  C  C113  1  0.070800  0.850600  0.474900  1.0
  C  C114  1  0.850600  0.474900  0.070800  1.0
  C  C115  1  0.398900  0.512500  0.994200  1.0
  C  C116  1  0.994200  0.398900  0.512500  1.0
  C  C117  1  0.512500  0.994200  0.398900  1.0
  C  C118  1  0.494200  0.012500  0.898900  1.0
  C  C119  1  0.012500  0.898900  0.494200  1.0
  C  C120  1  0.898900  0.494200  0.012500  1.0
  C  C121  1  0.377000  0.459600  0.056100  1.0
  C  C122  1  0.056100  0.377000  0.459600  1.0
  C  C123  1  0.459600  0.056100  0.377000  1.0
  C  C124  1  0.556100  0.959600  0.877000  1.0
  C  C125  1  0.959600  0.877000  0.556100  1.0
  C  C126  1  0.877000  0.556100  0.959600  1.0
  C  C127  1  0.284600  0.401200  0.018500  1.0
  C  C128  1  0.018500  0.284600  0.401200  1.0
  C  C129  1  0.401200  0.018500  0.284600  1.0
  C  C130  1  0.518500  0.901200  0.784600  1.0
  C  C131  1  0.901200  0.784600  0.518500  1.0
  C  C132  1  0.784600  0.518500  0.901200  1.0
  C  C133  1  0.279400  0.293400  0.091000  1.0
  C  C134  1  0.091000  0.279400  0.293400  1.0
  C  C135  1  0.293400  0.091000  0.279400  1.0
  C  C136  1  0.591000  0.793400  0.779400  1.0
  C  C137  1  0.793400  0.779400  0.591000  1.0
  C  C138  1  0.779400  0.591000  0.793400  1.0
  C  C139  1  0.255200  0.252000  0.155100  1.0
  C  C140  1  0.155100  0.255200  0.252000  1.0
  C  C141  1  0.252000  0.155100  0.255200  1.0
  C  C142  1  0.655100  0.752000  0.755200  1.0
  C  C143  1  0.752000  0.755200  0.655100  1.0
  C  C144  1  0.755200  0.655100  0.752000  1.0
  C  C145  1  0.189300  0.282700  0.190300  1.0
  C  C146  1  0.190300  0.189300  0.282700  1.0
  C  C147  1  0.282700  0.190300  0.189300  1.0
  C  C148  1  0.690300  0.782700  0.689300  1.0
  C  C149  1  0.782700  0.689300  0.690300  1.0
  C  C150  1  0.689300  0.690300  0.782700  1.0
  H  H151  1  0.494400  0.442200  0.583500  1
  H  H152  1  0.583500  0.494400  0.442200  1
  H  H153  1  0.442200  0.583500  0.494400  1
  H  H154  1  0.083500  0.942200  0.994400  1
  H  H155  1  0.942200  0.994400  0.083500  1
  H  H156  1  0.994400  0.083500  0.942200  1
  H  H157  1  0.484300  0.490800  0.675500  1
  H  H158  1  0.675500  0.484300  0.490800  1
  H  H159  1  0.490800  0.675500  0.484300  1
  H  H160  1  0.175500  0.990800  0.984300  1
  H  H161  1  0.990800  0.984300  0.175500  1
  H  H162  1  0.984300  0.175500  0.990800  1
  H  H163  1  0.576600  0.512400  0.654300  1
  H  H164  1  0.654300  0.576600  0.512400  1
  H  H165  1  0.512400  0.654300  0.576600  1
  H  H166  1  0.154300  0.012400  0.076600  1
  H  H167  1  0.012400  0.076600  0.154300  1
  H  H168  1  0.076600  0.154300  0.012400  1
  H  H169  1  0.602700  0.338200  0.577700  1
  H  H170  1  0.577700  0.602700  0.338200  1
  H  H171  1  0.338200  0.577700  0.602700  1
  H  H172  1  0.077700  0.838200  0.102700  1
  H  H173  1  0.838200  0.102700  0.077700  1
  H  H174  1  0.102700  0.077700  0.838200  1
  H  H175  1  0.652800  0.437000  0.631900  1
  H  H176  1  0.631900  0.652800  0.437000  1
  H  H177  1  0.437000  0.631900  0.652800  1
  H  H178  1  0.131900  0.937000  0.152800  1
  H  H179  1  0.937000  0.152800  0.131900  1
  H  H180  1  0.152800  0.131900  0.937000  1
  H  H181  1  0.676500  0.358200  0.667200  1
  H  H182  1  0.667200  0.676500  0.358200  1
  H  H183  1  0.358200  0.667200  0.676500  1
  H  H184  1  0.167200  0.858200  0.176500  1
  H  H185  1  0.858200  0.176500  0.167200  1
  H  H186  1  0.176500  0.167200  0.858200  1
  H  H187  1  0.310400  0.220100  0.127300  1
  H  H188  1  0.127300  0.310400  0.220100  1
  H  H189  1  0.220100  0.127300  0.310400  1
  H  H190  1  0.627300  0.720100  0.810400  1
  H  H191  1  0.720100  0.810400  0.627300  1
  H  H192  1  0.810400  0.627300  0.720100  1
  H  H193  1  0.628200  0.319200  0.870300  1.0
  H  H194  1  0.870300  0.628200  0.319200  1.0
  H  H195  1  0.319200  0.870300  0.628200  1.0
  H  H196  1  0.370300  0.819200  0.128200  1.0
  H  H197  1  0.819200  0.128200  0.370300  1.0
  H  H198  1  0.128200  0.370300  0.819200  1.0
  H  H199  1  0.712600  0.223600  0.879700  1.0
  H  H200  1  0.879700  0.712600  0.223600  1.0
  H  H201  1  0.223600  0.879700  0.712600  1.0
  H  H202  1  0.379700  0.723600  0.212600  1.0
  H  H203  1  0.723600  0.212600  0.379700  1.0
  H  H204  1  0.212600  0.379700  0.723600  1.0
  H  H205  1  0.724800  0.161900  0.995500  1.0
  H  H206  1  0.995500  0.724800  0.161900  1.0
  H  H207  1  0.161900  0.995500  0.724800  1.0
  H  H208  1  0.495500  0.661900  0.224800  1.0
  H  H209  1  0.661900  0.224800  0.495500  1.0
  H  H210  1  0.224800  0.495500  0.661900  1.0
  H  H211  1  0.660300  0.206500  0.104500  1.0
  H  H212  1  0.104500  0.660300  0.206500  1.0
  H  H213  1  0.206500  0.104500  0.660300  1.0
  H  H214  1  0.604500  0.706500  0.160300  1.0
  H  H215  1  0.706500  0.160300  0.604500  1.0
  H  H216  1  0.160300  0.604500  0.706500  1.0
  H  H217  1  0.559200  0.373900  0.127000  1.0
  H  H218  1  0.127000  0.559200  0.373900  1.0
  H  H219  1  0.373900  0.127000  0.559200  1.0
  H  H220  1  0.627000  0.873900  0.059200  1.0
  H  H221  1  0.873900  0.059200  0.627000  1.0
  H  H222  1  0.059200  0.627000  0.873900  1.0
  H  H223  1  0.486900  0.283200  0.083000  1.0
  H  H224  1  0.083000  0.486900  0.283200  1.0
  H  H225  1  0.283200  0.083000  0.486900  1.0
  H  H226  1  0.583000  0.783200  0.986900  1.0
  H  H227  1  0.783200  0.986900  0.583000  1.0
  H  H228  1  0.986900  0.583000  0.783200  1.0
  H  H229  1  0.553200  0.222200  0.186600  1.0
  H  H230  1  0.186600  0.553200  0.222200  1.0
  H  H231  1  0.222200  0.186600  0.553200  1.0
  H  H232  1  0.686600  0.722200  0.053200  1.0
  H  H233  1  0.722200  0.053200  0.686600  1.0
  H  H234  1  0.053200  0.686600  0.722200  1.0
  H  H235  1  0.630100  0.312000  0.229900  1.0
  H  H236  1  0.229900  0.630100  0.312000  1.0
  H  H237  1  0.312000  0.229900  0.630100  1.0
  H  H238  1  0.729900  0.812000  0.130100  1.0
  H  H239  1  0.812000  0.130100  0.729900  1.0
  H  H240  1  0.130100  0.729900  0.812000  1.0
  H  H241  1  0.437000  0.435100  0.276800  1.0
  H  H242  1  0.276800  0.437000  0.435100  1.0
  H  H243  1  0.435100  0.276800  0.437000  1.0
  H  H244  1  0.776800  0.935100  0.937000  1.0
  H  H245  1  0.935100  0.937000  0.776800  1.0
  H  H246  1  0.937000  0.776800  0.935100  1.0
  H  H247  1  0.529400  0.549200  0.881300  1.0
  H  H248  1  0.881300  0.529400  0.549200  1.0
  H  H249  1  0.549200  0.881300  0.529400  1.0
  H  H250  1  0.381300  0.049200  0.029400  1.0
  H  H251  1  0.049200  0.029400  0.381300  1.0
  H  H252  1  0.029400  0.381300  0.049200  1.0
  H  H253  1  0.453900  0.641300  0.844000  1.0
  H  H254  1  0.844000  0.453900  0.641300  1.0
  H  H255  1  0.641300  0.844000  0.453900  1.0
  H  H256  1  0.344000  0.141300  0.953900  1.0
  H  H257  1  0.141300  0.953900  0.344000  1.0
  H  H258  1  0.953900  0.344000  0.141300  1.0
  H  H259  1  0.337800  0.655300  0.901100  1.0
  H  H260  1  0.901100  0.337800  0.655300  1.0
  H  H261  1  0.655300  0.901100  0.337800  1.0
  H  H262  1  0.401100  0.155300  0.837800  1.0
  H  H263  1  0.155300  0.837800  0.401100  1.0
  H  H264  1  0.837800  0.401100  0.155300  1.0
  H  H265  1  0.305100  0.578200  0.001000  1.0
  H  H266  1  0.001000  0.305100  0.578200  1.0
  H  H267  1  0.578200  0.001000  0.305100  1.0
  H  H268  1  0.501000  0.078200  0.805100  1.0
  H  H269  1  0.078200  0.805100  0.501000  1.0
  H  H270  1  0.805100  0.501000  0.078200  1.0
  H  H271  1  0.382500  0.499100  0.113400  1.0
  H  H272  1  0.113400  0.382500  0.499100  1.0
  H  H273  1  0.499100  0.113400  0.382500  1.0
  H  H274  1  0.613400  0.999100  0.882500  1.0
  H  H275  1  0.999100  0.882500  0.613400  1.0
  H  H276  1  0.882500  0.613400  0.999100  1.0
  H  H277  1  0.418200  0.423600  0.064700  1.0
  H  H278  1  0.064700  0.418200  0.423600  1.0
  H  H279  1  0.423600  0.064700  0.418200  1.0
  H  H280  1  0.564700  0.923600  0.918200  1.0
  H  H281  1  0.923600  0.918200  0.564700  1.0
  H  H282  1  0.918200  0.564700  0.923600  1.0
  H  H283  1  0.242600  0.436200  0.009300  1.0
  H  H284  1  0.009300  0.242600  0.436200  1.0
  H  H285  1  0.436200  0.009300  0.242600  1.0
  H  H286  1  0.509300  0.936200  0.742600  1.0
  H  H287  1  0.936200  0.742600  0.509300  1.0
  H  H288  1  0.742600  0.509300  0.936200  1.0
  H  H289  1  0.278700  0.359600  0.962200  1.0
  H  H290  1  0.962200  0.278700  0.359600  1.0
  H  H291  1  0.359600  0.962200  0.278700  1.0
  H  H292  1  0.462200  0.859600  0.778700  1.0
  H  H293  1  0.859600  0.778700  0.462200  1.0
  H  H294  1  0.778700  0.462200  0.859600  1.0
  H  H295  1  0.168200  0.326000  0.168400  1.0
  H  H296  1  0.168400  0.168200  0.326000  1.0
  H  H297  1  0.326000  0.168400  0.168200  1.0
  H  H298  1  0.668400  0.826000  0.668200  1.0
  H  H299  1  0.826000  0.668200  0.668400  1.0
  H  H300  1  0.668200  0.668400  0.826000  1.0
  N  N301  1  0.592200  0.319100  0.979600  1.0
  N  N302  1  0.979600  0.592200  0.319100  1.0
  N  N303  1  0.319100  0.979600  0.592200  1.0
  N  N304  1  0.479600  0.819100  0.092200  1.0
  N  N305  1  0.819100  0.092200  0.479600  1.0
  N  N306  1  0.092200  0.479600  0.819100  1.0
  N  N307  1  0.461300  0.501200  0.956000  1.0
  N  N308  1  0.956000  0.461300  0.501200  1.0
  N  N309  1  0.501200  0.956000  0.461300  1.0
  N  N310  1  0.456000  0.001200  0.961300  1.0
  N  N311  1  0.001200  0.961300  0.456000  1.0
  N  N312  1  0.961300  0.456000  0.001200  1.0
  N  N313  1  0.644500  0.550100  0.113600  1.0
  N  N314  1  0.113600  0.644500  0.550100  1.0
  N  N315  1  0.550100  0.113600  0.644500  1.0
  N  N316  1  0.613600  0.050100  0.144500  1.0
  N  N317  1  0.050100  0.144500  0.613600  1.0
  N  N318  1  0.144500  0.613600  0.050100  1.0
  N  N319  1  0.386000  0.311600  0.831800  1.0
  N  N320  1  0.831800  0.386000  0.311600  1.0
  N  N321  1  0.311600  0.831800  0.386000  1.0
  N  N322  1  0.331800  0.811600  0.886000  1.0
  N  N323  1  0.811600  0.886000  0.331800  1.0
  N  N324  1  0.886000  0.331800  0.811600  1.0
  O  O325  1  0.595700  0.445100  0.788900  1
  O  O326  1  0.788900  0.595700  0.445100  1
  O  O327  1  0.445100  0.788900  0.595700  1
  O  O328  1  0.288900  0.945100  0.095700  1
  O  O329  1  0.945100  0.095700  0.288900  1
  O  O330  1  0.095700  0.288900  0.945100  1
  O  O331  1  0.184900  0.390100  0.124500  1
  O  O332  1  0.124500  0.184900  0.390100  1
  O  O333  1  0.390100  0.124500  0.184900  1
  O  O334  1  0.624500  0.890100  0.684900  1
  O  O335  1  0.890100  0.684900  0.624500  1
  O  O336  1  0.684900  0.624500  0.890100  1
  O  O337  1  0.510600  0.324400  0.239500  1.0
  O  O338  1  0.239500  0.510600  0.324400  1.0
  O  O339  1  0.324400  0.239500  0.510600  1.0
  O  O340  1  0.739500  0.824400  0.010600  1.0
  O  O341  1  0.824400  0.010600  0.739500  1.0
  O  O342  1  0.010600  0.739500  0.824400  1.0
  O  O343  1  0.551900  0.268500  0.351000  1.0
  O  O344  1  0.351000  0.551900  0.268500  1.0
  O  O345  1  0.268500  0.351000  0.551900  1.0
  O  O346  1  0.851000  0.768500  0.051900  1.0
  O  O347  1  0.768500  0.051900  0.851000  1.0
  O  O348  1  0.051900  0.851000  0.768500  1.0
  O  O349  1  0.270000  0.356100  0.081500  1.0
  O  O350  1  0.081500  0.270000  0.356100  1.0
  O  O351  1  0.356100  0.081500  0.270000  1.0
  O  O352  1  0.581500  0.856100  0.770000  1.0
  O  O353  1  0.856100  0.770000  0.581500  1.0
  O  O354  1  0.770000  0.581500  0.856100  1.0
  O  O355  1  0.637800  0.499000  0.033400  1.0
  O  O356  1  0.033400  0.637800  0.499000  1.0
  O  O357  1  0.499000  0.033400  0.637800  1.0
  O  O358  1  0.533400  0.999000  0.137800  1.0
  O  O359  1  0.999000  0.137800  0.533400  1.0
  O  O360  1  0.137800  0.533400  0.999000  1.0
  O  O361  1  0.582500  0.534400  0.141500  1.0
  O  O362  1  0.141500  0.582500  0.534400  1.0
  O  O363  1  0.534400  0.141500  0.582500  1.0
  O  O364  1  0.641500  0.034400  0.082500  1.0
  O  O365  1  0.034400  0.082500  0.641500  1.0
  O  O366  1  0.082500  0.641500  0.034400  1.0
  O  O367  1  0.712300  0.601400  0.150200  1.0
  O  O368  1  0.150200  0.712300  0.601400  1.0
  O  O369  1  0.601400  0.150200  0.712300  1.0
  O  O370  1  0.650200  0.101400  0.212300  1.0
  O  O371  1  0.101400  0.212300  0.650200  1.0
  O  O372  1  0.212300  0.650200  0.101400  1.0
  O  O373  1  0.415200  0.314000  0.905200  1.0
  O  O374  1  0.905200  0.415200  0.314000  1.0
  O  O375  1  0.314000  0.905200  0.415200  1.0
  O  O376  1  0.405200  0.814000  0.915200  1.0
  O  O377  1  0.814000  0.915200  0.405200  1.0
  O  O378  1  0.915200  0.405200  0.814000  1.0
  O  O379  1  0.418700  0.349500  0.791200  1.0
  O  O380  1  0.791200  0.418700  0.349500  1.0
  O  O381  1  0.349500  0.791200  0.418700  1.0
  O  O382  1  0.291200  0.849500  0.918700  1.0
  O  O383  1  0.849500  0.918700  0.291200  1.0
  O  O384  1  0.918700  0.291200  0.849500  1.0
  O  O385  1  0.303000  0.253200  0.793200  1.0
  O  O386  1  0.793200  0.303000  0.253200  1.0
  O  O387  1  0.253200  0.793200  0.303000  1.0
  O  O388  1  0.293200  0.753200  0.803000  1.0
  O  O389  1  0.753200  0.803000  0.293200  1.0
  O  O390  1  0.803000  0.293200  0.753200  1.0
  O  O391  1  0.328600  0.269600  0.056600  1.0
  O  O392  1  0.056600  0.328600  0.269600  1.0
  O  O393  1  0.269600  0.056600  0.328600  1.0
  O  O394  1  0.556600  0.769600  0.828600  1.0
  O  O395  1  0.769600  0.828600  0.556600  1.0
  O  O396  1  0.828600  0.556600  0.769600  1.0
  Pd  Pd397  1  0.525730  0.409850  0.969060  1.0
  Pd  Pd398  1  0.969060  0.525730  0.409850  1.0
  Pd  Pd399  1  0.409850  0.969060  0.525730  1.0
  Pd  Pd400  1  0.469060  0.909850  0.025730  1.0
  Pd  Pd401  1  0.909850  0.025730  0.469060  1.0
  Pd  Pd402  1  0.025730  0.469060  0.909850  1.0
  S  S403  1  0.552400  0.379100  0.692400  1
  S  S404  1  0.692400  0.552400  0.379100  1
  S  S405  1  0.379100  0.692400  0.552400  1
  S  S406  1  0.192400  0.879100  0.052400  1
  S  S407  1  0.879100  0.052400  0.192400  1
  S  S408  1  0.052400  0.192400  0.879100  1
