# generated using pymatgen
data_H18PdC20N2(ClO2)2
_symmetry_space_group_name_H-M   'P 1'
_cell_length_a   15.81958209
_cell_length_b   15.81958209
_cell_length_c   15.81958209
_cell_angle_alpha   103.96822890
_cell_angle_beta   103.96822890
_cell_angle_gamma   103.96822890
_symmetry_Int_Tables_number   1
_chemical_formula_structural   H18PdC20N2(ClO2)2
_chemical_formula_sum   'H108 Pd6 C120 N12 Cl12 O24'
_cell_volume   3534.54849412
_cell_formula_units_Z   6
loop_
 _symmetry_equiv_pos_site_id
 _symmetry_equiv_pos_as_xyz
  1  'x, y, z'
loop_
 _atom_site_type_symbol
 _atom_site_label
 _atom_site_symmetry_multiplicity
 _atom_site_fract_x
 _atom_site_fract_y
 _atom_site_fract_z
 _atom_site_occupancy
  C  C1  1  0.499800  0.164100  0.088300  1.0
  C  C2  1  0.088300  0.499800  0.164100  1.0
  C  C3  1  0.164100  0.088300  0.499800  1.0
  C  C4  1  0.588300  0.664100  0.999800  1.0
  C  C5  1  0.999800  0.588300  0.664100  1.0
  C  C6  1  0.664100  0.999800  0.588300  1.0
  C  C7  1  0.482100  0.223600  0.040200  1.0
  C  C8  1  0.040200  0.482100  0.223600  1.0
  C  C9  1  0.223600  0.040200  0.482100  1.0
  C  C10  1  0.540200  0.723600  0.982100  1.0
  C  C11  1  0.982100  0.540200  0.723600  1.0
  C  C12  1  0.723600  0.982100  0.540200  1.0
  C  C13  1  0.516700  0.225300  0.973000  1.0
  C  C14  1  0.973000  0.516700  0.225300  1.0
  C  C15  1  0.225300  0.973000  0.516700  1.0
  C  C16  1  0.473000  0.725300  0.016700  1.0
  C  C17  1  0.016700  0.473000  0.725300  1.0
  C  C18  1  0.725300  0.016700  0.473000  1.0
  C  C19  1  0.575800  0.175500  0.952900  1.0
  C  C20  1  0.952900  0.575800  0.175500  1.0
  C  C21  1  0.175500  0.952900  0.575800  1.0
  C  C22  1  0.452900  0.675500  0.075800  1.0
  C  C23  1  0.075800  0.452900  0.675500  1.0
  C  C24  1  0.675500  0.075800  0.452900  1.0
  C  C25  1  0.595600  0.120400  0.009500  1.0
  C  C26  1  0.009500  0.595600  0.120400  1.0
  C  C27  1  0.120400  0.009500  0.595600  1.0
  C  C28  1  0.509500  0.620400  0.095600  1.0
  C  C29  1  0.095600  0.509500  0.620400  1.0
  C  C30  1  0.620400  0.095600  0.509500  1.0
  C  C31  1  0.654900  0.066000  0.990500  1.0
  C  C32  1  0.990500  0.654900  0.066000  1.0
  C  C33  1  0.066000  0.990500  0.654900  1.0
  C  C34  1  0.490500  0.566000  0.154900  1.0
  C  C35  1  0.154900  0.490500  0.566000  1.0
  C  C36  1  0.566000  0.154900  0.490500  1.0
  C  C37  1  0.602800  0.972700  0.922000  1.0
  C  C38  1  0.922000  0.602800  0.972700  1.0
  C  C39  1  0.972700  0.922000  0.602800  1.0
  C  C40  1  0.422000  0.472700  0.102800  1.0
  C  C41  1  0.102800  0.422000  0.472700  1.0
  C  C42  1  0.472700  0.102800  0.422000  1.0
  C  C43  1  0.695300  0.923800  0.837600  1.0
  C  C44  1  0.837600  0.695300  0.923800  1.0
  C  C45  1  0.923800  0.837600  0.695300  1.0
  C  C46  1  0.337600  0.423800  0.195300  1.0
  C  C47  1  0.195300  0.337600  0.423800  1.0
  C  C48  1  0.423800  0.195300  0.337600  1.0
  C  C49  1  0.756200  0.868400  0.829400  1.0
  C  C50  1  0.829400  0.756200  0.868400  1.0
  C  C51  1  0.868400  0.829400  0.756200  1.0
  C  C52  1  0.329400  0.368400  0.256200  1.0
  C  C53  1  0.256200  0.329400  0.368400  1.0
  C  C54  1  0.368400  0.256200  0.329400  1.0
  C  C55  1  0.807400  0.876600  0.768500  1.0
  C  C56  1  0.768500  0.807400  0.876600  1.0
  C  C57  1  0.876600  0.768500  0.807400  1.0
  C  C58  1  0.268500  0.376600  0.307400  1.0
  C  C59  1  0.307400  0.268500  0.376600  1.0
  C  C60  1  0.376600  0.307400  0.268500  1.0
  C  C61  1  0.517000  0.905800  0.248700  1.0
  C  C62  1  0.248700  0.517000  0.905800  1.0
  C  C63  1  0.905800  0.248700  0.517000  1.0
  C  C64  1  0.748700  0.405800  0.017000  1.0
  C  C65  1  0.017000  0.748700  0.405800  1.0
  C  C66  1  0.405800  0.017000  0.748700  1.0
  C  C67  1  0.518800  0.846000  0.299200  1.0
  C  C68  1  0.299200  0.518800  0.846000  1.0
  C  C69  1  0.846000  0.299200  0.518800  1.0
  C  C70  1  0.799200  0.346000  0.018800  1.0
  C  C71  1  0.018800  0.799200  0.346000  1.0
  C  C72  1  0.346000  0.018800  0.799200  1.0
  C  C73  1  0.589900  0.809000  0.304400  1.0
  C  C74  1  0.304400  0.589900  0.809000  1.0
  C  C75  1  0.809000  0.304400  0.589900  1.0
  C  C76  1  0.804400  0.309000  0.089900  1.0
  C  C77  1  0.089900  0.804400  0.309000  1.0
  C  C78  1  0.309000  0.089900  0.804400  1.0
  C  C79  1  0.653200  0.833800  0.265200  1.0
  C  C80  1  0.265200  0.653200  0.833800  1.0
  C  C81  1  0.833800  0.265200  0.653200  1.0
  C  C82  1  0.765200  0.333800  0.153200  1.0
  C  C83  1  0.153200  0.765200  0.333800  1.0
  C  C84  1  0.333800  0.153200  0.765200  1.0
  C  C85  1  0.647800  0.895200  0.216400  1.0
  C  C86  1  0.216400  0.647800  0.895200  1.0
  C  C87  1  0.895200  0.216400  0.647800  1.0
  C  C88  1  0.716400  0.395200  0.147800  1.0
  C  C89  1  0.147800  0.716400  0.395200  1.0
  C  C90  1  0.395200  0.147800  0.716400  1.0
  C  C91  1  0.715800  0.923600  0.165600  1.0
  C  C92  1  0.165600  0.715800  0.923600  1.0
  C  C93  1  0.923600  0.165600  0.715800  1.0
  C  C94  1  0.665600  0.423600  0.215800  1.0
  C  C95  1  0.215800  0.665600  0.423600  1.0
  C  C96  1  0.423600  0.215800  0.665600  1.0
  C  C97  1  0.799500  0.895300  0.182800  1.0
  C  C98  1  0.182800  0.799500  0.895300  1.0
  C  C99  1  0.895300  0.182800  0.799500  1.0
  C  C100  1  0.682800  0.395300  0.299500  1.0
  C  C101  1  0.299500  0.682800  0.395300  1.0
  C  C102  1  0.395300  0.299500  0.682800  1.0
  C  C103  1  0.918600  0.913100  0.117000  1.0
  C  C104  1  0.117000  0.918600  0.913100  1.0
  C  C105  1  0.913100  0.117000  0.918600  1.0
  C  C106  1  0.617000  0.413100  0.418600  1.0
  C  C107  1  0.418600  0.617000  0.413100  1.0
  C  C108  1  0.413100  0.418600  0.617000  1.0
  C  C109  1  0.958300  0.954000  0.052000  1.0
  C  C110  1  0.052000  0.958300  0.954000  1.0
  C  C111  1  0.954000  0.052000  0.958300  1.0
  C  C112  1  0.552000  0.454000  0.458300  1.0
  C  C113  1  0.458300  0.552000  0.454000  1.0
  C  C114  1  0.454000  0.458300  0.552000  1.0
  C  C115  1  0.924100  0.019800  0.023100  1.0
  C  C116  1  0.023100  0.924100  0.019800  1.0
  C  C117  1  0.019800  0.023100  0.924100  1.0
  C  C118  1  0.523100  0.519800  0.424100  1.0
  C  C119  1  0.424100  0.523100  0.519800  1.0
  C  C120  1  0.519800  0.424100  0.523100  1.0
  Cl  Cl121  1  0.699800  0.138800  0.251100  1.0
  Cl  Cl122  1  0.251100  0.699800  0.138800  1.0
  Cl  Cl123  1  0.138800  0.251100  0.699800  1.0
  Cl  Cl124  1  0.751100  0.638800  0.199800  1.0
  Cl  Cl125  1  0.199800  0.751100  0.638800  1.0
  Cl  Cl126  1  0.638800  0.199800  0.751100  1.0
  Cl  Cl127  1  0.429200  0.932600  0.044500  1.0
  Cl  Cl128  1  0.044500  0.429200  0.932600  1.0
  Cl  Cl129  1  0.932600  0.044500  0.429200  1.0
  Cl  Cl130  1  0.544500  0.432600  0.929200  1.0
  Cl  Cl131  1  0.929200  0.544500  0.432600  1.0
  Cl  Cl132  1  0.432600  0.929200  0.544500  1.0
  H  H133  1  0.471000  0.157800  0.133600  1.0
  H  H134  1  0.133600  0.471000  0.157800  1.0
  H  H135  1  0.157800  0.133600  0.471000  1.0
  H  H136  1  0.633600  0.657800  0.971000  1.0
  H  H137  1  0.971000  0.633600  0.657800  1.0
  H  H138  1  0.657800  0.971000  0.633600  1.0
  H  H139  1  0.446400  0.261800  0.055400  1.0
  H  H140  1  0.055400  0.446400  0.261800  1.0
  H  H141  1  0.261800  0.055400  0.446400  1.0
  H  H142  1  0.555400  0.761800  0.946400  1.0
  H  H143  1  0.946400  0.555400  0.761800  1.0
  H  H144  1  0.761800  0.946400  0.555400  1.0
  H  H145  1  0.500900  0.261900  0.936000  1.0
  H  H146  1  0.936000  0.500900  0.261900  1.0
  H  H147  1  0.261900  0.936000  0.500900  1.0
  H  H148  1  0.436000  0.761900  0.000900  1.0
  H  H149  1  0.000900  0.436000  0.761900  1.0
  H  H150  1  0.761900  0.000900  0.436000  1.0
  H  H151  1  0.601000  0.178500  0.904600  1.0
  H  H152  1  0.904600  0.601000  0.178500  1.0
  H  H153  1  0.178500  0.904600  0.601000  1.0
  H  H154  1  0.404600  0.678500  0.101000  1.0
  H  H155  1  0.101000  0.404600  0.678500  1.0
  H  H156  1  0.678500  0.101000  0.404600  1.0
  H  H157  1  0.688700  0.059000  0.048600  1.0
  H  H158  1  0.048600  0.688700  0.059000  1.0
  H  H159  1  0.059000  0.048600  0.688700  1.0
  H  H160  1  0.548600  0.559000  0.188700  1.0
  H  H161  1  0.188700  0.548600  0.559000  1.0
  H  H162  1  0.559000  0.188700  0.548600  1.0
  H  H163  1  0.700800  0.099100  0.967000  1.0
  H  H164  1  0.967000  0.700800  0.099100  1.0
  H  H165  1  0.099100  0.967000  0.700800  1.0
  H  H166  1  0.467000  0.599100  0.200800  1.0
  H  H167  1  0.200800  0.467000  0.599100  1.0
  H  H168  1  0.599100  0.200800  0.467000  1.0
  H  H169  1  0.555300  0.940700  0.944500  1.0
  H  H170  1  0.944500  0.555300  0.940700  1.0
  H  H171  1  0.940700  0.944500  0.555300  1.0
  H  H172  1  0.444500  0.440700  0.055300  1.0
  H  H173  1  0.055300  0.444500  0.440700  1.0
  H  H174  1  0.440700  0.055300  0.444500  1.0
  H  H175  1  0.570900  0.979900  0.863300  1.0
  H  H176  1  0.863300  0.570900  0.979900  1.0
  H  H177  1  0.979900  0.863300  0.570900  1.0
  H  H178  1  0.363300  0.479900  0.070900  1.0
  H  H179  1  0.070900  0.363300  0.479900  1.0
  H  H180  1  0.479900  0.070900  0.363300  1.0
  H  H181  1  0.799300  0.917200  0.733900  1.0
  H  H182  1  0.733900  0.799300  0.917200  1.0
  H  H183  1  0.917200  0.733900  0.799300  1.0
  H  H184  1  0.233900  0.417200  0.299300  1.0
  H  H185  1  0.299300  0.233900  0.417200  1.0
  H  H186  1  0.417200  0.299300  0.233900  1.0
  H  H187  1  0.467100  0.930000  0.241700  1.0
  H  H188  1  0.241700  0.467100  0.930000  1.0
  H  H189  1  0.930000  0.241700  0.467100  1.0
  H  H190  1  0.741700  0.430000  0.967100  1.0
  H  H191  1  0.967100  0.741700  0.430000  1.0
  H  H192  1  0.430000  0.967100  0.741700  1.0
  H  H193  1  0.474100  0.831100  0.328500  1.0
  H  H194  1  0.328500  0.474100  0.831100  1.0
  H  H195  1  0.831100  0.328500  0.474100  1.0
  H  H196  1  0.828500  0.331100  0.974100  1.0
  H  H197  1  0.974100  0.828500  0.331100  1.0
  H  H198  1  0.331100  0.974100  0.828500  1.0
  H  H199  1  0.593500  0.765500  0.336200  1.0
  H  H200  1  0.336200  0.593500  0.765500  1.0
  H  H201  1  0.765500  0.336200  0.593500  1.0
  H  H202  1  0.836200  0.265500  0.093500  1.0
  H  H203  1  0.093500  0.836200  0.265500  1.0
  H  H204  1  0.265500  0.093500  0.836200  1.0
  H  H205  1  0.702600  0.809200  0.270700  1.0
  H  H206  1  0.270700  0.702600  0.809200  1.0
  H  H207  1  0.809200  0.270700  0.702600  1.0
  H  H208  1  0.770700  0.309200  0.202600  1.0
  H  H209  1  0.202600  0.770700  0.309200  1.0
  H  H210  1  0.309200  0.202600  0.770700  1.0
  H  H211  1  0.682400  0.898100  0.098800  1.0
  H  H212  1  0.098800  0.682400  0.898100  1.0
  H  H213  1  0.898100  0.098800  0.682400  1.0
  H  H214  1  0.598800  0.398100  0.182400  1.0
  H  H215  1  0.182400  0.598800  0.398100  1.0
  H  H216  1  0.398100  0.182400  0.598800  1.0
  H  H217  1  0.735500  0.991400  0.181900  1.0
  H  H218  1  0.181900  0.735500  0.991400  1.0
  H  H219  1  0.991400  0.181900  0.735500  1.0
  H  H220  1  0.681900  0.491400  0.235500  1.0
  H  H221  1  0.235500  0.681900  0.491400  1.0
  H  H222  1  0.491400  0.235500  0.681900  1.0
  H  H223  1  0.837300  0.921400  0.248500  1.0
  H  H224  1  0.248500  0.837300  0.921400  1.0
  H  H225  1  0.921400  0.248500  0.837300  1.0
  H  H226  1  0.748500  0.421400  0.337300  1.0
  H  H227  1  0.337300  0.748500  0.421400  1.0
  H  H228  1  0.421400  0.337300  0.748500  1.0
  H  H229  1  0.783900  0.827700  0.163400  1.0
  H  H230  1  0.163400  0.783900  0.827700  1.0
  H  H231  1  0.827700  0.163400  0.783900  1.0
  H  H232  1  0.663400  0.327700  0.283900  1.0
  H  H233  1  0.283900  0.663400  0.327700  1.0
  H  H234  1  0.327700  0.283900  0.663400  1.0
  H  H235  1  0.881300  0.041400  0.047600  1.0
  H  H236  1  0.047600  0.881300  0.041400  1.0
  H  H237  1  0.041400  0.047600  0.881300  1.0
  H  H238  1  0.547600  0.541400  0.381300  1.0
  H  H239  1  0.381300  0.547600  0.541400  1.0
  H  H240  1  0.541400  0.381300  0.547600  1.0
  N  N241  1  0.557000  0.114100  0.073000  1.0
  N  N242  1  0.073000  0.557000  0.114100  1.0
  N  N243  1  0.114100  0.073000  0.557000  1.0
  N  N244  1  0.573000  0.614100  0.057000  1.0
  N  N245  1  0.057000  0.573000  0.614100  1.0
  N  N246  1  0.614100  0.057000  0.573000  1.0
  N  N247  1  0.579000  0.932400  0.209300  1.0
  N  N248  1  0.209300  0.579000  0.932400  1.0
  N  N249  1  0.932400  0.209300  0.579000  1.0
  N  N250  1  0.709300  0.432400  0.079000  1.0
  N  N251  1  0.079000  0.709300  0.432400  1.0
  N  N252  1  0.432400  0.079000  0.709300  1.0
  O  O253  1  0.661000  0.915900  0.904700  1.0
  O  O254  1  0.904700  0.661000  0.915900  1.0
  O  O255  1  0.915900  0.904700  0.661000  1.0
  O  O256  1  0.404700  0.415900  0.161000  1.0
  O  O257  1  0.161000  0.404700  0.415900  1.0
  O  O258  1  0.415900  0.161000  0.404700  1.0
  O  O259  1  0.679800  0.970600  0.791300  1.0
  O  O260  1  0.791300  0.679800  0.970600  1.0
  O  O261  1  0.970600  0.791300  0.679800  1.0
  O  O262  1  0.291300  0.470600  0.179800  1.0
  O  O263  1  0.179800  0.291300  0.470600  1.0
  O  O264  1  0.470600  0.179800  0.291300  1.0
  O  O265  1  0.846300  0.934800  0.125000  1.0
  O  O266  1  0.125000  0.846300  0.934800  1.0
  O  O267  1  0.934800  0.125000  0.846300  1.0
  O  O268  1  0.625000  0.434800  0.346300  1.0
  O  O269  1  0.346300  0.625000  0.434800  1.0
  O  O270  1  0.434800  0.346300  0.625000  1.0
  O  O271  1  0.951600  0.866000  0.152700  1.0
  O  O272  1  0.152700  0.951600  0.866000  1.0
  O  O273  1  0.866000  0.152700  0.951600  1.0
  O  O274  1  0.652700  0.366000  0.451600  1.0
  O  O275  1  0.451600  0.652700  0.366000  1.0
  O  O276  1  0.366000  0.451600  0.652700  1.0
  Pd  Pd277  1  0.569080  0.027620  0.144100  1.0
  Pd  Pd278  1  0.144100  0.569080  0.027620  1.0
  Pd  Pd279  1  0.027620  0.144100  0.569080  1.0
  Pd  Pd280  1  0.644100  0.527620  0.069080  1.0
  Pd  Pd281  1  0.069080  0.644100  0.527620  1.0
  Pd  Pd282  1  0.527620  0.069080  0.644100  1.0
