# generated using pymatgen
data_H128Pd3C134I11N12(ClO)24
_symmetry_space_group_name_H-M   'P 1'
_cell_length_a   14.02900000
_cell_length_b   22.03907120
_cell_length_c   37.00400000
_cell_angle_alpha   88.62780720
_cell_angle_beta   85.68500000
_cell_angle_gamma   71.44132369
_symmetry_Int_Tables_number   1
_chemical_formula_structural   H128Pd3C134I11N12(ClO)24
_chemical_formula_sum   'H256 Pd6 C268 I22 N24 Cl48 O48'
_cell_volume   10815.42084123
_cell_formula_units_Z   2
loop_
 _symmetry_equiv_pos_site_id
 _symmetry_equiv_pos_as_xyz
  1  'x, y, z'
loop_
 _atom_site_type_symbol
 _atom_site_label
 _atom_site_symmetry_multiplicity
 _atom_site_fract_x
 _atom_site_fract_y
 _atom_site_fract_z
 _atom_site_occupancy
  C  C1  1  0.596600  0.200800  0.903300  1
  C  C2  1  0.202600  0.200800  0.596700  1
  C  C3  1  0.403400  0.799200  0.096700  1
  C  C4  1  0.797400  0.799200  0.403300  1
  C  C5  1  0.164600  0.984800  0.682100  1
  C  C6  1  0.850600  0.984800  0.817900  1
  C  C7  1  0.835400  0.015200  0.317900  1
  C  C8  1  0.149400  0.015200  0.182100  1
  C  C9  1  0.109300  0.706600  0.917500  1
  C  C10  1  0.184100  0.706600  0.582500  1
  C  C11  1  0.890700  0.293400  0.082500  1
  C  C12  1  0.815900  0.293400  0.417500  1
  C  C13  1  0.182900  0.339400  0.863100  1
  C  C14  1  0.477700  0.339400  0.636900  1
  C  C15  1  0.817100  0.660600  0.136900  1
  C  C16  1  0.522300  0.660600  0.363100  1
  C  C17  1  0.569900  0.912400  0.561700  1.0
  C  C18  1  0.517700  0.912400  0.938300  1.0
  C  C19  1  0.430100  0.087600  0.438300  1.0
  C  C20  1  0.482300  0.087600  0.061700  1.0
  C  C21  1  0.493200  0.965600  0.567600  1.0
  C  C22  1  0.541200  0.965600  0.932400  1.0
  C  C23  1  0.506800  0.034400  0.432400  1.0
  C  C24  1  0.458800  0.034400  0.067600  1.0
  C  C25  1  0.439000  0.973800  0.600900  1.0
  C  C26  1  0.587200  0.973800  0.899100  1.0
  C  C27  1  0.561000  0.026200  0.399100  1.0
  C  C28  1  0.412800  0.026200  0.100900  1.0
  C  C29  1  0.475600  0.926800  0.627500  1.0
  C  C30  1  0.597600  0.926800  0.872500  1.0
  C  C31  1  0.524400  0.073200  0.372500  1.0
  C  C32  1  0.402400  0.073200  0.127500  1.0
  C  C33  1  0.552600  0.871200  0.619400  1.0
  C  C34  1  0.576200  0.871200  0.880600  1.0
  C  C35  1  0.447400  0.128800  0.380600  1.0
  C  C36  1  0.423800  0.128800  0.119400  1.0
  C  C37  1  0.580100  0.821400  0.648400  1.0
  C  C38  1  0.598500  0.821400  0.851600  1.0
  C  C39  1  0.419900  0.178600  0.351600  1.0
  C  C40  1  0.401500  0.178600  0.148400  1.0
  C  C41  1  0.493900  0.798600  0.658000  1.0
  C  C42  1  0.707500  0.798600  0.842000  1.0
  C  C43  1  0.506100  0.201400  0.342000  1.0
  C  C44  1  0.292500  0.201400  0.158000  1.0
  C  C45  1  0.567700  0.691400  0.679400  1.0
  C  C46  1  0.740900  0.691400  0.820600  1.0
  C  C47  1  0.432300  0.308600  0.320600  1.0
  C  C48  1  0.259100  0.308600  0.179400  1.0
  C  C49  1  0.575100  0.647800  0.711400  1.0
  C  C50  1  0.777100  0.647800  0.788600  1.0
  C  C51  1  0.424900  0.352200  0.288600  1.0
  C  C52  1  0.222900  0.352200  0.211400  1.0
  C  C53  1  0.614600  0.584400  0.705800  1.0
  C  C54  1  0.801000  0.584400  0.794200  1.0
  C  C55  1  0.385400  0.415600  0.294200  1.0
  C  C56  1  0.199000  0.415600  0.205800  1.0
  C  C57  1  0.873800  0.172400  0.682900  1.0
  C  C58  1  0.953800  0.172400  0.817100  1.0
  C  C59  1  0.126200  0.827600  0.317100  1.0
  C  C60  1  0.046200  0.827600  0.182900  1.0
  C  C61  1  0.863600  0.166800  0.645800  1.0
  C  C62  1  0.969600  0.166800  0.854200  1.0
  C  C63  1  0.136400  0.833200  0.354200  1.0
  C  C64  1  0.030400  0.833200  0.145800  1.0
  C  C65  1  0.830800  0.216400  0.624200  1.0
  C  C66  1  0.952800  0.216400  0.875800  1.0
  C  C67  1  0.169200  0.783600  0.375800  1.0
  C  C68  1  0.047200  0.783600  0.124200  1.0
  C  C69  1  0.824400  0.275200  0.636600  1.0
  C  C70  1  0.900400  0.275200  0.863400  1.0
  C  C71  1  0.175600  0.724800  0.363400  1.0
  C  C72  1  0.099600  0.724800  0.136600  1.0
  C  C73  1  0.830300  0.283400  0.674500  1.0
  C  C74  1  0.886300  0.283400  0.825500  1.0
  C  C75  1  0.169700  0.716600  0.325500  1.0
  C  C76  1  0.113700  0.716600  0.174500  1.0
  C  C77  1  0.808200  0.350600  0.688200  1.0
  C  C78  1  0.841200  0.350600  0.811800  1.0
  C  C79  1  0.191800  0.649400  0.311800  1.0
  C  C80  1  0.158800  0.649400  0.188200  1.0
  C  C81  1  0.694900  0.385800  0.683900  1.0
  C  C82  1  0.919300  0.385800  0.816100  1.0
  C  C83  1  0.305100  0.614200  0.316100  1.0
  C  C84  1  0.080700  0.614200  0.183900  1.0
  C  C85  1  0.654600  0.467000  0.729200  1.0
  C  C86  1  0.878400  0.467000  0.770800  1.0
  C  C87  1  0.345400  0.533000  0.270800  1.0
  C  C88  1  0.121600  0.533000  0.229200  1.0
  C  C89  1  0.615200  0.540600  0.733800  1.0
  C  C90  1  0.844200  0.540600  0.766200  1.0
  C  C91  1  0.384800  0.459400  0.266200  1.0
  C  C92  1  0.155800  0.459400  0.233800  1.0
  C  C93  1  0.584200  0.562800  0.768500  1.0
  C  C94  1  0.853000  0.562800  0.731500  1.0
  C  C95  1  0.415800  0.437200  0.231500  1.0
  C  C96  1  0.147000  0.437200  0.268500  1.0
  C  C97  1  0.392800  0.723400  0.980300  1.0
  C  C98  1  0.883800  0.723400  0.519700  1.0
  C  C99  1  0.607200  0.276600  0.019700  1.0
  C  C100  1  0.116200  0.276600  0.480300  1.0
  C  C101  1  0.379800  0.674200  0.998200  1.0
  C  C102  1  0.946000  0.674200  0.501800  1.0
  C  C103  1  0.620200  0.325800  0.001800  1.0
  C  C104  1  0.054000  0.325800  0.498200  1.0
  C  C105  1  0.402800  0.613800  0.984600  1.0
  C  C106  1  0.983400  0.613800  0.515400  1.0
  C  C107  1  0.597200  0.386200  0.015400  1.0
  C  C108  1  0.016600  0.386200  0.484600  1.0
  C  C109  1  0.440900  0.610000  0.951500  1.0
  C  C110  1  0.949100  0.610000  0.548500  1.0
  C  C111  1  0.559100  0.390000  0.048500  1.0
  C  C112  1  0.050900  0.390000  0.451500  1.0
  C  C113  1  0.465000  0.657000  0.932500  1.0
  C  C114  1  0.878000  0.657000  0.567500  1.0
  C  C115  1  0.535000  0.343000  0.067500  1.0
  C  C116  1  0.122000  0.343000  0.432500  1.0
  C  C117  1  0.517600  0.646400  0.895100  1.0
  C  C118  1  0.836000  0.646400  0.604900  1.0
  C  C119  1  0.482400  0.353600  0.104900  1.0
  C  C120  1  0.164000  0.353600  0.395100  1.0
  C  C121  1  0.450400  0.630200  0.869800  1.0
  C  C122  1  0.919400  0.630200  0.630200  1.0
  C  C123  1  0.549600  0.369800  0.130200  1.0
  C  C124  1  0.080600  0.369800  0.369800  1.0
  C  C125  1  0.503600  0.655200  0.810000  1.0
  C  C126  1  0.841200  0.655200  0.690000  1.0
  C  C127  1  0.496400  0.344800  0.190000  1.0
  C  C128  1  0.158800  0.344800  0.310000  1.0
  C  C129  1  0.544800  0.628400  0.774600  1.0
  C  C130  1  0.826800  0.628400  0.725400  1.0
  C  C131  1  0.455200  0.371600  0.225400  1.0
  C  C132  1  0.173200  0.371600  0.274600  1.0
  C  C133  1  0.545300  0.669600  0.746000  1.0
  C  C134  1  0.785100  0.669600  0.754000  1.0
  C  C135  1  0.454700  0.330400  0.254000  1.0
  C  C136  1  0.214900  0.330400  0.246000  1.0
  C  C137  1  0.619400  0.753000  0.510600  1.0
  C  C138  1  0.627600  0.753000  0.989400  1.0
  C  C139  1  0.380600  0.247000  0.489400  1.0
  C  C140  1  0.372400  0.247000  0.010600  1.0
  C  C141  1  0.563600  0.729000  0.493700  1.0
  C  C142  1  0.707400  0.729000  0.006300  1.0
  C  C143  1  0.436400  0.271000  0.506300  1.0
  C  C144  1  0.292600  0.271000  0.993700  1.0
  C  C145  1  0.523000  0.686400  0.514000  1.0
  C  C146  1  0.790600  0.686400  0.986000  1.0
  C  C147  1  0.477000  0.313600  0.486000  1.0
  C  C148  1  0.209400  0.313600  0.014000  1.0
  C  C149  1  0.530000  0.674800  0.549700  1.0
  C  C150  1  0.795200  0.674800  0.950300  1.0
  C  C151  1  0.470000  0.325200  0.450300  1.0
  C  C152  1  0.204800  0.325200  0.049700  1.0
  C  C153  1  0.592100  0.707200  0.567500  1.0
  C  C154  1  0.700700  0.707200  0.932500  1.0
  C  C155  1  0.407900  0.292800  0.432500  1.0
  C  C156  1  0.299300  0.292800  0.067500  1.0
  C  C157  1  0.484300  0.640000  0.571300  1.0
  C  C158  1  0.875700  0.640000  0.928700  1.0
  C  C159  1  0.515700  0.360000  0.428700  1.0
  C  C160  1  0.124300  0.360000  0.071300  1.0
  C  C161  1  0.554700  0.576800  0.583200  1.0
  C  C162  1  0.868500  0.576800  0.916800  1.0
  C  C163  1  0.445300  0.423200  0.416800  1.0
  C  C164  1  0.131500  0.423200  0.083200  1.0
  C  C165  1  0.506100  0.534400  0.603100  1.0
  C  C166  1  0.959500  0.534400  0.896900  1.0
  C  C167  1  0.493900  0.465600  0.396900  1.0
  C  C168  1  0.040500  0.465600  0.103100  1.0
  C  C169  1  0.424200  0.529000  0.662400  1.0
  C  C170  1  0.046800  0.529000  0.837600  1.0
  C  C171  1  0.575800  0.471000  0.337600  1.0
  C  C172  1  0.953200  0.471000  0.162400  1.0
  C  C173  1  0.373400  0.570400  0.693700  1.0
  C  C174  1  0.056200  0.570400  0.806300  1.0
  C  C175  1  0.626600  0.429600  0.306300  1.0
  C  C176  1  0.943800  0.429600  0.193700  1.0
  C  C177  1  0.369200  0.539400  0.728100  1.0
  C  C178  1  0.091400  0.539400  0.771900  1.0
  C  C179  1  0.630800  0.460600  0.271900  1.0
  C  C180  1  0.908600  0.460600  0.228100  1.0
  C  C181  1  0.728700  0.174600  0.764600  1.0
  C  C182  1  0.096700  0.174600  0.735400  1.0
  C  C183  1  0.271300  0.825400  0.235400  1.0
  C  C184  1  0.903300  0.825400  0.264600  1.0
  C  C185  1  0.629700  0.174600  0.774500  1.0
  C  C186  1  0.195700  0.174600  0.725500  1.0
  C  C187  1  0.370300  0.825400  0.225500  1.0
  C  C188  1  0.804300  0.825400  0.274500  1.0
  C  C189  1  0.554700  0.284600  0.777600  1.0
  C  C190  1  0.160700  0.284600  0.722400  1.0
  C  C191  1  0.445300  0.715400  0.222400  1.0
  C  C192  1  0.839300  0.715400  0.277600  1.0
  C  C193  1  0.655600  0.286800  0.768700  1.0
  C  C194  1  0.057600  0.286800  0.731300  1.0
  C  C195  1  0.344400  0.713200  0.231300  1.0
  C  C196  1  0.942400  0.713200  0.268700  1.0
  C  C197  1  0.471700  0.340600  0.780300  1.0
  C  C198  1  0.187700  0.340600  0.719700  1.0
  C  C199  1  0.528300  0.659400  0.219700  1.0
  C  C200  1  0.812300  0.659400  0.280300  1.0
  C  C201  1  0.467700  0.378600  0.816200  1.0
  C  C202  1  0.153700  0.378600  0.683800  1.0
  C  C203  1  0.532300  0.621400  0.183800  1.0
  C  C204  1  0.846300  0.621400  0.316200  1.0
  C  C205  1  0.385600  0.440800  0.825700  1.0
  C  C206  1  0.173600  0.440800  0.674300  1.0
  C  C207  1  0.614400  0.559200  0.174300  1.0
  C  C208  1  0.826400  0.559200  0.325700  1.0
  C  C209  1  0.331200  0.536000  0.793400  1.0
  C  C210  1  0.132800  0.536000  0.706600  1.0
  C  C211  1  0.668800  0.464000  0.206600  1.0
  C  C212  1  0.867200  0.464000  0.293400  1.0
  C  C213  1  0.331300  0.572200  0.760600  1.0
  C  C214  1  0.096500  0.572200  0.739400  1.0
  C  C215  1  0.668700  0.427800  0.239400  1.0
  C  C216  1  0.903500  0.427800  0.260600  1.0
  C  C217  1  0.300400  0.635600  0.758200  1.0
  C  C218  1  0.064000  0.635600  0.741800  1.0
  C  C219  1  0.699600  0.364400  0.241800  1.0
  C  C220  1  0.936000  0.364400  0.258200  1.0
  C  C221  1  0.288600  0.882000  0.925800  1.0
  C  C222  1  0.829400  0.882000  0.574200  1.0
  C  C223  1  0.711400  0.118000  0.074200  1.0
  C  C224  1  0.170600  0.118000  0.425800  1.0
  C  C225  1  0.190200  0.910200  0.913300  1.0
  C  C226  1  0.899600  0.910200  0.586700  1.0
  C  C227  1  0.809800  0.089800  0.086700  1.0
  C  C228  1  0.100400  0.089800  0.413300  1.0
  C  C229  1  0.169100  0.896800  0.882700  1.0
  C  C230  1  0.934100  0.896800  0.617300  1.0
  C  C231  1  0.830900  0.103200  0.117300  1.0
  C  C232  1  0.065900  0.103200  0.382700  1.0
  C  C233  1  0.243900  0.849800  0.858600  1.0
  C  C234  1  0.906300  0.849800  0.641400  1.0
  C  C235  1  0.756100  0.150200  0.141400  1.0
  C  C236  1  0.093700  0.150200  0.358600  1.0
  C  C237  1  0.336600  0.818200  0.874500  1.0
  C  C238  1  0.845200  0.818200  0.625500  1.0
  C  C239  1  0.663400  0.181800  0.125500  1.0
  C  C240  1  0.154800  0.181800  0.374500  1.0
  C  C241  1  0.224900  0.836200  0.823000  1.0
  C  C242  1  0.938900  0.836200  0.677000  1.0
  C  C243  1  0.775100  0.163800  0.177000  1.0
  C  C244  1  0.061100  0.163800  0.323000  1.0
  C  C245  1  0.265600  0.856800  0.790500  1.0
  C  C246  1  0.877600  0.856800  0.709500  1.0
  C  C247  1  0.734400  0.143200  0.209500  1.0
  C  C248  1  0.122400  0.143200  0.290500  1.0
  C  C249  1  0.234700  0.832600  0.757500  1.0
  C  C250  1  0.932700  0.832600  0.742500  1.0
  C  C251  1  0.765300  0.167400  0.242500  1.0
  C  C252  1  0.067300  0.167400  0.257500  1.0
  C  C253  1  0.272100  0.738400  0.725100  1.0
  C  C254  1  0.989500  0.738400  0.774900  1.0
  C  C255  1  0.727900  0.261600  0.274900  1.0
  C  C256  1  0.010500  0.261600  0.225100  1.0
  C  C257  1  0.303500  0.670400  0.726900  1.0
  C  C258  1  0.026100  0.670400  0.773100  1.0
  C  C259  1  0.696500  0.329600  0.273100  1.0
  C  C260  1  0.973900  0.329600  0.226900  1.0
  C  C261  1  0.338800  0.638800  0.693000  1.0
  C  C262  1  0.022400  0.638800  0.807000  1.0
  C  C263  1  0.661200  0.361200  0.307000  1.0
  C  C264  1  0.977600  0.361200  0.193000  1.0
  C  C265  1  0.537600  0.230800  0.778000  1.0
  C  C266  1  0.231600  0.230800  0.722000  1.0
  C  C267  1  0.462400  0.769200  0.222000  1.0
  C  C268  1  0.768400  0.769200  0.278000  1.0
  Cl  Cl269  1  0.528800  0.176000  0.872900  1
  Cl  Cl270  1  0.295200  0.176000  0.627100  1
  Cl  Cl271  1  0.471200  0.824000  0.127100  1
  Cl  Cl272  1  0.704800  0.824000  0.372900  1
  Cl  Cl273  1  0.529200  0.278000  0.917500  1
  Cl  Cl274  1  0.192800  0.278000  0.582500  1
  Cl  Cl275  1  0.470800  0.722000  0.082500  1
  Cl  Cl276  1  0.807200  0.722000  0.417500  1
  Cl  Cl277  1  0.675800  0.228000  0.873500  1
  Cl  Cl278  1  0.096200  0.228000  0.626500  1
  Cl  Cl279  1  0.324200  0.772000  0.126500  1
  Cl  Cl280  1  0.903800  0.772000  0.373500  1
  Cl  Cl281  1  0.267900  0.982600  0.706400  1
  Cl  Cl282  1  0.749500  0.982600  0.793600  1
  Cl  Cl283  1  0.732100  0.017400  0.293600  1
  Cl  Cl284  1  0.250500  0.017400  0.206400  1
  Cl  Cl285  1  0.194300  0.912200  0.660700  1
  Cl  Cl286  1  0.893500  0.912200  0.839300  1
  Cl  Cl287  1  0.805700  0.087800  0.339300  1
  Cl  Cl288  1  0.106500  0.087800  0.160700  1
  Cl  Cl289  1  0.175600  0.044200  0.652400  1
  Cl  Cl290  1  0.780200  0.044200  0.847600  1
  Cl  Cl291  1  0.824400  0.955800  0.347600  1
  Cl  Cl292  1  0.219800  0.955800  0.152400  1
  Cl  Cl293  1  0.200200  0.735800  0.931300  1
  Cl  Cl294  1  0.064000  0.735800  0.568700  1
  Cl  Cl295  1  0.799800  0.264200  0.068700  1
  Cl  Cl296  1  0.936000  0.264200  0.431300  1
  Cl  Cl297  1  0.010000  0.762800  0.899400  1
  Cl  Cl298  1  0.227200  0.762800  0.600600  1
  Cl  Cl299  1  0.990000  0.237200  0.100600  1
  Cl  Cl300  1  0.772800  0.237200  0.399400  1
  Cl  Cl301  1  0.166100  0.662000  0.878900  1
  Cl  Cl302  1  0.171900  0.662000  0.621100  1
  Cl  Cl303  1  0.833900  0.338000  0.121100  1
  Cl  Cl304  1  0.828100  0.338000  0.378900  1
  Cl  Cl305  1  0.101100  0.330400  0.897100  1
  Cl  Cl306  1  0.568500  0.330400  0.602900  1
  Cl  Cl307  1  0.898900  0.669600  0.102900  1
  Cl  Cl308  1  0.431500  0.669600  0.397100  1
  Cl  Cl309  1  0.301500  0.309600  0.877000  1
  Cl  Cl310  1  0.388900  0.309600  0.623000  1
  Cl  Cl311  1  0.698500  0.690400  0.123000  1
  Cl  Cl312  1  0.611100  0.690400  0.377000  1
  Cl  Cl313  1  0.186100  0.290600  0.827100  1
  Cl  Cl314  1  0.523300  0.290600  0.672900  1
  Cl  Cl315  1  0.813900  0.709400  0.172900  1
  Cl  Cl316  1  0.476700  0.709400  0.327100  1
  H  H317  1  0.628800  0.169400  0.922300  1
  H  H318  1  0.201800  0.169400  0.577700  1
  H  H319  1  0.371200  0.830600  0.077700  1
  H  H320  1  0.798200  0.830600  0.422300  1
  H  H321  1  0.099500  0.996400  0.697200  1
  H  H322  1  0.904100  0.996400  0.802800  1
  H  H323  1  0.900500  0.003600  0.302800  1
  H  H324  1  0.095900  0.003600  0.197200  1
  H  H325  1  0.086800  0.680400  0.936700  1
  H  H326  1  0.232800  0.680400  0.563300  1
  H  H327  1  0.913200  0.319600  0.063300  1
  H  H328  1  0.767200  0.319600  0.436700  1
  H  H329  1  0.167100  0.385200  0.855500  1
  H  H330  1  0.447700  0.385200  0.644500  1
  H  H331  1  0.832900  0.614800  0.144500  1
  H  H332  1  0.552300  0.614800  0.355500  1
  H  H333  1  0.608400  0.907400  0.539100  1.0
  H  H334  1  0.484200  0.907400  0.960900  1.0
  H  H335  1  0.391600  0.092600  0.460900  1.0
  H  H336  1  0.515800  0.092600  0.039100  1.0
  H  H337  1  0.475800  0.997600  0.549400  1.0
  H  H338  1  0.526600  0.997600  0.950600  1.0
  H  H339  1  0.524200  0.002400  0.450600  1.0
  H  H340  1  0.473400  0.002400  0.049400  1.0
  H  H341  1  0.379800  0.009200  0.605700  1.0
  H  H342  1  0.611000  0.009200  0.894300  1.0
  H  H343  1  0.620200  0.990800  0.394300  1.0
  H  H344  1  0.389000  0.990800  0.105700  1.0
  H  H345  1  0.446300  0.934000  0.651700  1.0
  H  H346  1  0.619700  0.934000  0.848300  1.0
  H  H347  1  0.553700  0.066000  0.348300  1.0
  H  H348  1  0.380300  0.066000  0.151700  1.0
  H  H349  1  0.639300  0.785200  0.639700  1.0
  H  H350  1  0.575500  0.785200  0.860300  1.0
  H  H351  1  0.360700  0.214800  0.360300  1.0
  H  H352  1  0.424500  0.214800  0.139700  1.0
  H  H353  1  0.597800  0.840000  0.670100  1.0
  H  H354  1  0.562200  0.840000  0.829900  1.0
  H  H355  1  0.402200  0.160000  0.329900  1.0
  H  H356  1  0.437800  0.160000  0.170100  1.0
  H  H357  1  0.477700  0.778800  0.636500  1.0
  H  H358  1  0.743500  0.778800  0.863500  1.0
  H  H359  1  0.522300  0.221200  0.363500  1.0
  H  H360  1  0.256500  0.221200  0.136500  1.0
  H  H361  1  0.434100  0.835000  0.665900  1.0
  H  H362  1  0.730900  0.835000  0.834100  1.0
  H  H363  1  0.565900  0.165000  0.334100  1.0
  H  H364  1  0.269100  0.165000  0.165900  1.0
  H  H365  1  0.642800  0.569000  0.682300  1.0
  H  H366  1  0.788200  0.569000  0.817700  1.0
  H  H367  1  0.357200  0.431000  0.317700  1.0
  H  H368  1  0.211800  0.431000  0.182300  1.0
  H  H369  1  0.887700  0.135800  0.698200  1.0
  H  H370  1  0.976500  0.135800  0.801800  1.0
  H  H371  1  0.112300  0.864200  0.301800  1.0
  H  H372  1  0.023500  0.864200  0.198200  1.0
  H  H373  1  0.880100  0.125000  0.635800  1.0
  H  H374  1  0.994900  0.125000  0.864200  1.0
  H  H375  1  0.119900  0.875000  0.364200  1.0
  H  H376  1  0.005100  0.875000  0.135800  1.0
  H  H377  1  0.812400  0.211200  0.600500  1.0
  H  H378  1  0.976400  0.211200  0.899500  1.0
  H  H379  1  0.187600  0.788800  0.399500  1.0
  H  H380  1  0.023600  0.788800  0.100500  1.0
  H  H381  1  0.817000  0.310200  0.620400  1.0
  H  H382  1  0.872800  0.310200  0.879600  1.0
  H  H383  1  0.183000  0.689800  0.379600  1.0
  H  H384  1  0.127200  0.689800  0.120400  1.0
  H  H385  1  0.850400  0.372200  0.673900  1.0
  H  H386  1  0.777400  0.372200  0.826100  1.0
  H  H387  1  0.149600  0.627800  0.326100  1.0
  H  H388  1  0.222600  0.627800  0.173900  1.0
  H  H389  1  0.823000  0.350000  0.713900  1.0
  H  H390  1  0.827000  0.350000  0.786100  1.0
  H  H391  1  0.177000  0.650000  0.286100  1.0
  H  H392  1  0.173000  0.650000  0.213900  1.0
  H  H393  1  0.678600  0.383200  0.658500  1.0
  H  H394  1  0.938200  0.383200  0.841500  1.0
  H  H395  1  0.321400  0.616800  0.341500  1.0
  H  H396  1  0.061800  0.616800  0.158500  1.0
  H  H397  1  0.652500  0.366600  0.699900  1.0
  H  H398  1  0.980900  0.366600  0.800100  1.0
  H  H399  1  0.347500  0.633400  0.300100  1.0
  H  H400  1  0.019100  0.633400  0.199900  1.0
  H  H401  1  0.589500  0.533800  0.788200  1.0
  H  H402  1  0.876700  0.533800  0.711800  1.0
  H  H403  1  0.410500  0.466200  0.211800  1.0
  H  H404  1  0.123300  0.466200  0.288200  1.0
  H  H405  1  0.365900  0.765400  0.990100  1.0
  H  H406  1  0.868700  0.765400  0.509900  1.0
  H  H407  1  0.634100  0.234600  0.009900  1.0
  H  H408  1  0.131300  0.234600  0.490100  1.0
  H  H409  1  0.352300  0.681000  0.022600  1.0
  H  H410  1  0.966700  0.681000  0.477400  1.0
  H  H411  1  0.647700  0.319000  0.977400  1.0
  H  H412  1  0.033300  0.319000  0.522600  1.0
  H  H413  1  0.392100  0.578800  0.997800  1.0
  H  H414  1  0.029100  0.578800  0.502200  1.0
  H  H415  1  0.607900  0.421200  0.002200  1.0
  H  H416  1  0.970900  0.421200  0.497800  1.0
  H  H417  1  0.453000  0.570600  0.939300  1.0
  H  H418  1  0.976400  0.570600  0.560700  1.0
  H  H419  1  0.547000  0.429400  0.060700  1.0
  H  H420  1  0.023600  0.429400  0.439300  1.0
  H  H421  1  0.532400  0.685800  0.886600  1.0
  H  H422  1  0.781800  0.685800  0.613400  1.0
  H  H423  1  0.467600  0.314200  0.113400  1.0
  H  H424  1  0.218200  0.314200  0.386600  1.0
  H  H425  1  0.582100  0.611200  0.895500  1.0
  H  H426  1  0.806700  0.611200  0.604500  1.0
  H  H427  1  0.417900  0.388800  0.104500  1.0
  H  H428  1  0.193300  0.388800  0.395500  1.0
  H  H429  1  0.426900  0.595600  0.880700  1.0
  H  H430  1  0.977500  0.595600  0.619300  1.0
  H  H431  1  0.573100  0.404400  0.119300  1.0
  H  H432  1  0.022500  0.404400  0.380700  1.0
  H  H433  1  0.390400  0.668200  0.867100  1.0
  H  H434  1  0.941400  0.668200  0.632900  1.0
  H  H435  1  0.609600  0.331800  0.132900  1.0
  H  H436  1  0.058600  0.331800  0.367100  1.0
  H  H437  1  0.524300  0.714400  0.750500  1.0
  H  H438  1  0.761300  0.714400  0.749500  1.0
  H  H439  1  0.475700  0.285600  0.249500  1.0
  H  H440  1  0.238700  0.285600  0.250500  1.0
  H  H441  1  0.653000  0.778000  0.496700  1.0
  H  H442  1  0.569000  0.778000  0.003300  1.0
  H  H443  1  0.347000  0.222000  0.503300  1.0
  H  H444  1  0.431000  0.222000  0.996700  1.0
  H  H445  1  0.550300  0.739000  0.469100  1.0
  H  H446  1  0.710700  0.739000  0.030900  1.0
  H  H447  1  0.449700  0.261000  0.530900  1.0
  H  H448  1  0.289300  0.261000  0.969100  1.0
  H  H449  1  0.487600  0.664400  0.501300  1.0
  H  H450  1  0.848000  0.664400  0.998700  1.0
  H  H451  1  0.512400  0.335600  0.498700  1.0
  H  H452  1  0.152000  0.335600  0.001300  1.0
  H  H453  1  0.601700  0.701200  0.592600  1.0
  H  H454  1  0.697100  0.701200  0.907400  1.0
  H  H455  1  0.398300  0.298800  0.407400  1.0
  H  H456  1  0.302900  0.298800  0.092600  1.0
  H  H457  1  0.430800  0.631800  0.558000  1.0
  H  H458  1  0.937400  0.631800  0.942000  1.0
  H  H459  1  0.569200  0.368200  0.442000  1.0
  H  H460  1  0.062600  0.368200  0.058000  1.0
  H  H461  1  0.451500  0.665600  0.593000  1.0
  H  H462  1  0.882900  0.665600  0.907000  1.0
  H  H463  1  0.548500  0.334400  0.407000  1.0
  H  H464  1  0.117100  0.334400  0.093000  1.0
  H  H465  1  0.593800  0.553600  0.561500  1.0
  H  H466  1  0.852600  0.553600  0.938500  1.0
  H  H467  1  0.406200  0.446400  0.438500  1.0
  H  H468  1  0.147400  0.446400  0.061500  1.0
  H  H469  1  0.603200  0.585400  0.598900  1.0
  H  H470  1  0.811400  0.585400  0.901100  1.0
  H  H471  1  0.396800  0.414600  0.401100  1.0
  H  H472  1  0.188600  0.414600  0.098900  1.0
  H  H473  1  0.557900  0.493600  0.608800  1.0
  H  H474  1  0.948500  0.493600  0.891200  1.0
  H  H475  1  0.442100  0.506400  0.391200  1.0
  H  H476  1  0.051500  0.506400  0.108800  1.0
  H  H477  1  0.458100  0.524800  0.587600  1.0
  H  H478  1  0.017100  0.524800  0.912400  1.0
  H  H479  1  0.541900  0.475200  0.412400  1.0
  H  H480  1  0.982900  0.475200  0.087600  1.0
  H  H481  1  0.393600  0.493800  0.728800  1.0
  H  H482  1  0.112600  0.493800  0.771200  1.0
  H  H483  1  0.606400  0.506200  0.271200  1.0
  H  H484  1  0.887400  0.506200  0.228800  1.0
  H  H485  1  0.783300  0.136400  0.759300  1.0
  H  H486  1  0.080300  0.136400  0.740700  1.0
  H  H487  1  0.216700  0.863600  0.240700  1.0
  H  H488  1  0.919700  0.863600  0.259300  1.0
  H  H489  1  0.620400  0.134200  0.779300  1.0
  H  H490  1  0.245400  0.134200  0.720700  1.0
  H  H491  1  0.379600  0.865800  0.220700  1.0
  H  H492  1  0.754600  0.865800  0.279300  1.0
  H  H493  1  0.664800  0.327600  0.766300  1.0
  H  H494  1  0.007600  0.327600  0.733700  1.0
  H  H495  1  0.335200  0.672400  0.233700  1.0
  H  H496  1  0.992400  0.672400  0.266300  1.0
  H  H497  1  0.408500  0.329400  0.779700  1.0
  H  H498  1  0.262100  0.329400  0.720300  1.0
  H  H499  1  0.591500  0.670600  0.220300  1.0
  H  H500  1  0.737900  0.670600  0.279700  1.0
  H  H501  1  0.475100  0.368400  0.759100  1.0
  H  H502  1  0.156500  0.368400  0.740900  1.0
  H  H503  1  0.524900  0.631600  0.240900  1.0
  H  H504  1  0.843500  0.631600  0.259100  1.0
  H  H505  1  0.466800  0.348800  0.836500  1.0
  H  H506  1  0.184400  0.348800  0.663500  1.0
  H  H507  1  0.533200  0.651200  0.163500  1.0
  H  H508  1  0.815600  0.651200  0.336500  1.0
  H  H509  1  0.532800  0.387400  0.816100  1.0
  H  H510  1  0.079800  0.387400  0.683900  1.0
  H  H511  1  0.467200  0.612600  0.183900  1.0
  H  H512  1  0.920200  0.612600  0.316100  1.0
  H  H513  1  0.322400  0.432800  0.834400  1.0
  H  H514  1  0.244800  0.432800  0.665600  1.0
  H  H515  1  0.677600  0.567200  0.165600  1.0
  H  H516  1  0.755200  0.567200  0.334400  1.0
  H  H517  1  0.406200  0.464000  0.844800  1.0
  H  H518  1  0.129800  0.464000  0.655200  1.0
  H  H519  1  0.593800  0.536000  0.155200  1.0
  H  H520  1  0.870200  0.536000  0.344800  1.0
  H  H521  1  0.274000  0.658800  0.780000  1.0
  H  H522  1  0.067200  0.658800  0.720000  1.0
  H  H523  1  0.726000  0.341200  0.220000  1.0
  H  H524  1  0.932800  0.341200  0.280000  1.0
  H  H525  1  0.307600  0.898000  0.946900  1.0
  H  H526  1  0.794400  0.898000  0.553100  1.0
  H  H527  1  0.692400  0.102000  0.053100  1.0
  H  H528  1  0.205600  0.102000  0.446900  1.0
  H  H529  1  0.139700  0.939800  0.928400  1.0
  H  H530  1  0.920500  0.939800  0.571600  1.0
  H  H531  1  0.860300  0.060200  0.071600  1.0
  H  H532  1  0.079500  0.060200  0.428400  1.0
  H  H533  1  0.103500  0.917200  0.874900  1.0
  H  H534  1  0.979300  0.917200  0.625100  1.0
  H  H535  1  0.896500  0.082800  0.125100  1.0
  H  H536  1  0.020700  0.082800  0.374900  1.0
  H  H537  1  0.387800  0.785800  0.861300  1.0
  H  H538  1  0.826400  0.785800  0.638700  1.0
  H  H539  1  0.612200  0.214200  0.138700  1.0
  H  H540  1  0.173600  0.214200  0.361300  1.0
  H  H541  1  0.244300  0.789000  0.821300  1.0
  H  H542  1  0.966700  0.789000  0.678700  1.0
  H  H543  1  0.755700  0.211000  0.178700  1.0
  H  H544  1  0.033300  0.211000  0.321300  1.0
  H  H545  1  0.150500  0.852400  0.821900  1.0
  H  H546  1  0.997100  0.852400  0.678100  1.0
  H  H547  1  0.849500  0.147600  0.178100  1.0
  H  H548  1  0.002900  0.147600  0.321900  1.0
  H  H549  1  0.340000  0.841800  0.790400  1.0
  H  H550  1  0.818200  0.841800  0.709600  1.0
  H  H551  1  0.660000  0.158200  0.209600  1.0
  H  H552  1  0.181800  0.158200  0.290400  1.0
  H  H553  1  0.242900  0.904200  0.790000  1.0
  H  H554  1  0.852900  0.904200  0.710000  1.0
  H  H555  1  0.757100  0.095800  0.210000  1.0
  H  H556  1  0.147100  0.095800  0.290000  1.0
  H  H557  1  0.161000  0.851800  0.756300  1.0
  H  H558  1  0.987200  0.851800  0.743700  1.0
  H  H559  1  0.839000  0.148200  0.243700  1.0
  H  H560  1  0.012800  0.148200  0.256300  1.0
  H  H561  1  0.267700  0.846800  0.735800  1.0
  H  H562  1  0.885500  0.846800  0.764200  1.0
  H  H563  1  0.732300  0.153200  0.264200  1.0
  H  H564  1  0.114500  0.153200  0.235800  1.0
  H  H565  1  0.339400  0.662000  0.671100  1.0
  H  H566  1  0.998600  0.662000  0.828900  1.0
  H  H567  1  0.660600  0.338000  0.328900  1.0
  H  H568  1  0.001400  0.338000  0.171100  1.0
  H  H569  1  0.471700  0.227400  0.780300  1.0
  H  H570  1  0.300900  0.227400  0.719700  1.0
  H  H571  1  0.528300  0.772600  0.219700  1.0
  H  H572  1  0.699100  0.772600  0.280300  1.0
  I  I573  1  0.623120  0.456560  0.881370  1
  I  I574  1  0.920320  0.456560  0.618630  1
  I  I575  1  0.376880  0.543440  0.118630  1
  I  I576  1  0.079680  0.543440  0.381370  1
  I  I577  1  0.777460  0.418220  0.931320  1
  I  I578  1  0.804320  0.418220  0.568680  1
  I  I579  1  0.222540  0.581780  0.068680  1
  I  I580  1  0.195680  0.581780  0.431320  1
  I  I581  1  0.927430  0.379540  0.982090  1
  I  I582  1  0.693030  0.379540  0.517910  1
  I  I583  1  0.072570  0.620460  0.017910  1
  I  I584  1  0.306970  0.620460  0.482090  1
  I  I585  1  0.563150  0.873700  0.750000  1
  I  I586  1  0.436850  0.126300  0.250000  1
  I  I587  1  0.466820  0.997360  0.776910  1.0
  I  I588  1  0.535820  0.997360  0.723090  1.0
  I  I589  1  0.533180  0.002640  0.223090  1.0
  I  I590  1  0.464180  0.002640  0.276910  1.0
  I  I591  1  0.373400  0.117000  0.808600  1.0
  I  I592  1  0.509600  0.117000  0.691400  1.0
  I  I593  1  0.626600  0.883000  0.191400  1.0
  I  I594  1  0.490400  0.883000  0.308600  1.0
  N  N595  1  0.596300  0.863800  0.586900  1.0
  N  N596  1  0.539900  0.863800  0.913100  1.0
  N  N597  1  0.403700  0.136200  0.413100  1.0
  N  N598  1  0.460100  0.136200  0.086900  1.0
  N  N599  1  0.863500  0.233200  0.697100  1.0
  N  N600  1  0.903300  0.233200  0.802900  1.0
  N  N601  1  0.136500  0.766800  0.302900  1.0
  N  N602  1  0.096700  0.766800  0.197100  1.0
  N  N603  1  0.441400  0.714200  0.949800  1.0
  N  N604  1  0.844400  0.714200  0.550200  1.0
  N  N605  1  0.558600  0.285800  0.050200  1.0
  N  N606  1  0.155600  0.285800  0.449800  1.0
  N  N607  1  0.635600  0.746000  0.547300  1.0
  N  N608  1  0.618400  0.746000  0.952700  1.0
  N  N609  1  0.364400  0.254000  0.452700  1.0
  N  N610  1  0.381600  0.254000  0.047300  1.0
  N  N611  1  0.740300  0.233200  0.763500  1.0
  N  N612  1  0.026500  0.233200  0.736500  1.0
  N  N613  1  0.259700  0.766800  0.236500  1.0
  N  N614  1  0.973500  0.766800  0.263500  1.0
  N  N615  1  0.352400  0.833400  0.907400  1.0
  N  N616  1  0.814200  0.833400  0.592600  1.0
  N  N617  1  0.647600  0.166600  0.092600  1.0
  N  N618  1  0.185800  0.166600  0.407400  1.0
  O  O619  1  0.519600  0.749800  0.688200  1.0
  O  O620  1  0.730600  0.749800  0.811800  1.0
  O  O621  1  0.480400  0.250200  0.311800  1.0
  O  O622  1  0.269400  0.250200  0.188200  1.0
  O  O623  1  0.602500  0.672200  0.649700  1.0
  O  O624  1  0.725300  0.672200  0.850300  1.0
  O  O625  1  0.397500  0.327800  0.350300  1.0
  O  O626  1  0.274700  0.327800  0.149700  1.0
  O  O627  1  0.677100  0.453200  0.694200  1.0
  O  O628  1  0.869700  0.453200  0.805800  1.0
  O  O629  1  0.322900  0.546800  0.305800  1.0
  O  O630  1  0.130300  0.546800  0.194200  1.0
  O  O631  1  0.653900  0.429800  0.750500  1.0
  O  O632  1  0.916300  0.429800  0.749500  1.0
  O  O633  1  0.346100  0.570200  0.249500  1.0
  O  O634  1  0.083700  0.570200  0.250500  1.0
  O  O635  1  0.498500  0.610200  0.834600  1.0
  O  O636  1  0.891300  0.610200  0.665400  1.0
  O  O637  1  0.501500  0.389800  0.165400  1.0
  O  O638  1  0.108700  0.389800  0.334600  1.0
  O  O639  1  0.481500  0.710800  0.818500  1.0
  O  O640  1  0.807700  0.710800  0.681500  1.0
  O  O641  1  0.518500  0.289200  0.181500  1.0
  O  O642  1  0.192300  0.289200  0.318500  1.0
  O  O643  1  0.450400  0.565600  0.637800  1.0
  O  O644  1  0.984000  0.565600  0.862200  1.0
  O  O645  1  0.549600  0.434400  0.362200  1.0
  O  O646  1  0.016000  0.434400  0.137800  1.0
  O  O647  1  0.439100  0.475400  0.660600  1.0
  O  O648  1  0.085500  0.475400  0.839400  1.0
  O  O649  1  0.560900  0.524600  0.339400  1.0
  O  O650  1  0.914500  0.524600  0.160600  1.0
  O  O651  1  0.373500  0.477200  0.792100  1.0
  O  O652  1  0.149300  0.477200  0.707900  1.0
  O  O653  1  0.626500  0.522800  0.207900  1.0
  O  O654  1  0.850700  0.522800  0.292100  1.0
  O  O655  1  0.299300  0.562200  0.822800  1.0
  O  O656  1  0.138500  0.562200  0.677200  1.0
  O  O657  1  0.700700  0.437800  0.177200  1.0
  O  O658  1  0.861500  0.437800  0.322800  1.0
  O  O659  1  0.259100  0.767000  0.756600  1.0
  O  O660  1  0.973900  0.767000  0.743400  1.0
  O  O661  1  0.740900  0.233000  0.243400  1.0
  O  O662  1  0.026100  0.233000  0.256600  1.0
  O  O663  1  0.262600  0.769200  0.697600  1.0
  O  O664  1  0.968200  0.769200  0.802400  1.0
  O  O665  1  0.737400  0.230800  0.302400  1.0
  O  O666  1  0.031800  0.230800  0.197600  1.0
  Pd  Pd667  1  0.881610  0.236780  0.750000  1
  Pd  Pd668  1  0.118390  0.763220  0.250000  1
  Pd  Pd669  1  0.721940  0.787400  0.571490  1.0
  Pd  Pd670  1  0.490660  0.787400  0.928510  1.0
  Pd  Pd671  1  0.278060  0.212600  0.428510  1.0
  Pd  Pd672  1  0.509340  0.212600  0.071490  1.0
