# generated using pymatgen
data_Co10H156C138S6N72Cl19O20
_symmetry_space_group_name_H-M   'P 1'
_cell_length_a   18.18350364
_cell_length_b   18.18350364
_cell_length_c   18.35555701
_cell_angle_alpha   108.96872417
_cell_angle_beta   115.79426856
_cell_angle_gamma   103.45101749
_symmetry_Int_Tables_number   1
_chemical_formula_structural   Co10H156C138S6N72Cl19O20
_chemical_formula_sum   'Co10 H156 C138 S6 N72 Cl19 O20'
_cell_volume   4642.27233075
_cell_formula_units_Z   1
loop_
 _symmetry_equiv_pos_site_id
 _symmetry_equiv_pos_as_xyz
  1  'x, y, z'
loop_
 _atom_site_type_symbol
 _atom_site_label
 _atom_site_symmetry_multiplicity
 _atom_site_fract_x
 _atom_site_fract_y
 _atom_site_fract_z
 _atom_site_occupancy
  C  C1  1  0.603300  0.523700  0.127000  1
  C  C2  1  0.396700  0.476300  0.873000  1
  C  C3  1  0.743000  0.502000  0.245000  1
  C  C4  1  0.257000  0.498000  0.755000  1
  C  C5  1  0.936400  0.936400  1.000000  1
  C  C6  1  0.063600  0.063600  1.000000  1
  C  C7  1  0.312600  0.959600  0.272200  1.0
  C  C8  1  0.687400  0.040400  0.727800  1.0
  C  C9  1  0.478200  0.177000  0.655200  1.0
  C  C10  1  0.521800  0.823000  0.344800  1.0
  C  C11  1  0.357100  0.199700  0.618000  1.0
  C  C12  1  0.581700  0.739100  0.382000  1.0
  C  C13  1  0.642900  0.800300  0.382000  1.0
  C  C14  1  0.418300  0.260900  0.618000  1.0
  C  C15  1  0.268500  0.174800  0.603700  1.0
  C  C16  1  0.571100  0.664800  0.396300  1.0
  C  C17  1  0.731500  0.825200  0.396300  1.0
  C  C18  1  0.428900  0.335200  0.603700  1.0
  C  C19  1  0.155200  0.085300  0.609700  1.0
  C  C20  1  0.475600  0.545500  0.390300  1.0
  C  C21  1  0.844800  0.914700  0.390300  1.0
  C  C22  1  0.524400  0.454500  0.609700  1.0
  C  C23  1  0.163400  0.845500  0.413100  1.0
  C  C24  1  0.432400  0.750300  0.586900  1.0
  C  C25  1  0.836600  0.154500  0.586900  1.0
  C  C26  1  0.567600  0.249700  0.413100  1.0
  C  C27  1  0.203200  0.899700  0.507100  1.0
  C  C28  1  0.392600  0.696100  0.492900  1.0
  C  C29  1  0.796800  0.100300  0.492900  1.0
  C  C30  1  0.607400  0.303900  0.507100  1.0
  C  C31  1  0.091400  0.759900  0.336700  1.0
  C  C32  1  0.423200  0.754700  0.663300  1.0
  C  C33  1  0.908600  0.240100  0.663300  1.0
  C  C34  1  0.576800  0.245300  0.336700  1.0
  C  C35  1  0.007200  0.660400  0.176200  1.0
  C  C36  1  0.484200  0.831000  0.823800  1.0
  C  C37  1  0.992800  0.339600  0.823800  1.0
  C  C38  1  0.515800  0.169000  0.176200  1.0
  C  C39  1  0.981600  0.594100  0.201100  1.0
  C  C40  1  0.393000  0.780500  0.798900  1.0
  C  C41  1  0.018400  0.405900  0.798900  1.0
  C  C42  1  0.607000  0.219500  0.201100  1.0
  C  C43  1  0.972000  0.618000  0.274800  1.0
  C  C44  1  0.343200  0.697200  0.725200  1.0
  C  C45  1  0.028000  0.382000  0.725200  1.0
  C  C46  1  0.656800  0.302800  0.274800  1.0
  C  C47  1  0.194500  0.899700  0.583200  1.0
  C  C48  1  0.316500  0.611300  0.416800  1.0
  C  C49  1  0.805500  0.100300  0.416800  1.0
  C  C50  1  0.683500  0.388700  0.583200  1.0
  C  C51  1  0.123200  0.830900  0.646100  1.0
  C  C52  1  0.184800  0.477100  0.353900  1.0
  C  C53  1  0.876800  0.169100  0.353900  1.0
  C  C54  1  0.815200  0.522900  0.646100  1.0
  C  C55  1  0.167700  0.910900  0.716800  1.0
  C  C56  1  0.194100  0.450900  0.283200  1.0
  C  C57  1  0.832300  0.089100  0.283200  1.0
  C  C58  1  0.805900  0.549100  0.716800  1.0
  C  C59  1  0.245400  0.983500  0.741700  1.0
  C  C60  1  0.241800  0.503700  0.258300  1.0
  C  C61  1  0.754600  0.016500  0.258300  1.0
  C  C62  1  0.758200  0.496300  0.741700  1.0
  C  C63  1  0.479700  0.069400  0.794900  1.0
  C  C64  1  0.274500  0.684800  0.205100  1.0
  C  C65  1  0.520300  0.930600  0.205100  1.0
  C  C66  1  0.725500  0.315200  0.794900  1.0
  C  C67  1  0.540200  0.034800  0.814200  1.0
  C  C68  1  0.220600  0.726000  0.185800  1.0
  C  C69  1  0.459800  0.965200  0.185800  1.0
  C  C70  1  0.779400  0.274000  0.814200  1.0
  C  C71  1  0.459200  0.135300  0.842300  1.0
  C  C72  1  0.293000  0.616900  0.157700  1.0
  C  C73  1  0.540800  0.864700  0.157700  1.0
  C  C74  1  0.707000  0.383100  0.842300  1.0
  C  C75  1  0.372200  0.212500  0.830300  1.0
  C  C76  1  0.382200  0.541900  0.169700  1.0
  C  C77  1  0.627800  0.787500  0.169700  1.0
  C  C78  1  0.617800  0.458100  0.830300  1.0
  C  C79  1  0.455900  0.281100  0.930400  1.0
  C  C80  1  0.350700  0.525500  0.069600  1.0
  C  C81  1  0.544100  0.718900  0.069600  1.0
  C  C82  1  0.649300  0.474500  0.930400  1.0
  C  C83  1  0.487300  0.241300  0.985400  1.0
  C  C84  1  0.255900  0.501900  0.014600  1.0
  C  C85  1  0.512700  0.758700  0.014600  1.0
  C  C86  1  0.744100  0.498100  0.985400  1.0
  C  C87  1  0.622900  0.047700  0.894200  1.0
  C  C88  1  0.153500  0.728700  0.105800  1.0
  C  C89  1  0.377100  0.952300  0.105800  1.0
  C  C90  1  0.846500  0.271300  0.894200  1.0
  C  C91  1  0.744200  0.126800  0.058800  1.0
  C  C92  1  0.068000  0.685400  0.941200  1.0
  C  C93  1  0.255800  0.873200  0.941200  1.0
  C  C94  1  0.932000  0.314600  0.058800  1.0
  C  C95  1  0.763100  0.058100  0.036600  1.0
  C  C96  1  0.021500  0.726500  0.963400  1.0
  C  C97  1  0.236900  0.941900  0.963400  1.0
  C  C98  1  0.978500  0.273500  0.036600  1.0
  C  C99  1  0.730000  0.991700  0.946300  1.0
  C  C100  1  0.045400  0.783700  0.053700  1.0
  C  C101  1  0.270000  0.008300  0.053700  1.0
  C  C102  1  0.954600  0.216300  0.946300  1.0
  C  C103  1  0.204900  0.994800  0.259700  1.0
  C  C104  1  0.735100  0.945200  0.740300  1.0
  C  C105  1  0.795100  0.005200  0.740300  1.0
  C  C106  1  0.264900  0.054800  0.259700  1.0
  C  C107  1  0.115100  0.971100  0.249600  1.0
  C  C108  1  0.721500  0.865500  0.750400  1.0
  C  C109  1  0.884900  0.028900  0.750400  1.0
  C  C110  1  0.278500  0.134500  0.249600  1.0
  C  C111  1  0.989700  0.003400  0.238300  1.0
  C  C112  1  0.765100  0.751400  0.761700  1.0
  C  C113  1  0.010300  0.996600  0.761700  1.0
  C  C114  1  0.234900  0.248600  0.238300  1.0
  C  C115  1  0.978100  0.944400  0.273500  1.0
  C  C116  1  0.670900  0.704600  0.726500  1.0
  C  C117  1  0.021900  0.055600  0.726500  1.0
  C  C118  1  0.329100  0.295400  0.273500  1.0
  C  C119  1  0.992500  0.866200  0.229100  1.0
  C  C120  1  0.637100  0.763400  0.770900  1.0
  C  C121  1  0.007500  0.133800  0.770900  1.0
  C  C122  1  0.362900  0.236600  0.229100  1.0
  C  C123  1  0.110500  0.139900  0.586800  1.0
  C  C124  1  0.553100  0.523700  0.413200  1.0
  C  C125  1  0.889500  0.860100  0.413200  1.0
  C  C126  1  0.446900  0.476300  0.586800  1.0
  C  C127  1  0.131100  0.196400  0.564700  1.0
  C  C128  1  0.631700  0.566400  0.435300  1.0
  C  C129  1  0.868900  0.803600  0.435300  1.0
  C  C130  1  0.368300  0.433600  0.564700  1.0
  C  C131  1  0.269800  0.970000  0.459000  1.0
  C  C132  1  0.511000  0.810800  0.541000  1.0
  C  C133  1  0.730200  0.030000  0.541000  1.0
  C  C134  1  0.489000  0.189200  0.459000  1.0
  C  C135  1  0.444167  0.969100  0.666667  1.0
  C  C136  1  0.302433  0.777500  0.333333  1.0
  C  C137  1  0.555833  0.030900  0.333333  1.0
  C  C138  1  0.697567  0.222500  0.666667  1.0
  Cl  Cl139  1  0.500000  0.000000  0.500000  1
  Cl  Cl140  1  0.728800  0.321000  0.049800  1
  Cl  Cl141  1  0.271200  0.679000  0.950200  1
  Cl  Cl142  1  0.856100  0.356100  0.500000  1
  Cl  Cl143  1  0.143900  0.643900  0.500000  1
  Cl  Cl144  1  1.000000  0.500000  0.000000  1
  Cl  Cl145  1  0.500000  0.000000  0.000000  1
  Cl  Cl146  1  0.858300  0.790400  0.613100  1
  Cl  Cl147  1  0.177300  0.245200  0.386900  1
  Cl  Cl148  1  0.141700  0.209600  0.386900  1
  Cl  Cl149  1  0.822700  0.754800  0.613100  1
  Cl  Cl150  1  0.235900  0.301840  0.877540  1.0
  Cl  Cl151  1  0.424300  0.358360  0.122460  1.0
  Cl  Cl152  1  0.764100  0.698160  0.122460  1.0
  Cl  Cl153  1  0.575700  0.641640  0.877540  1.0
  Cl  Cl154  1  0.249370  0.135210  0.943700  1.0
  Cl  Cl155  1  0.191510  0.305670  0.056300  1.0
  Cl  Cl156  1  0.750630  0.864790  0.056300  1.0
  Cl  Cl157  1  0.808490  0.694330  0.943700  1.0
  Co  Co158  1  0.276680  0.276680  1.000000  1
  Co  Co159  1  0.723320  0.723320  1.000000  1
  Co  Co160  1  0.327790  0.064750  0.657040  1.0
  Co  Co161  1  0.407710  0.670750  0.342960  1.0
  Co  Co162  1  0.672210  0.935250  0.342960  1.0
  Co  Co163  1  0.592290  0.329250  0.657040  1.0
  Co  Co164  1  0.157840  0.836440  0.256720  1.0
  Co  Co165  1  0.579720  0.901120  0.743280  1.0
  Co  Co166  1  0.842160  0.163560  0.743280  1.0
  Co  Co167  1  0.420280  0.098880  0.256720  1.0
  H  H168  1  0.348500  0.930300  0.278800  1.0
  H  H169  1  0.651500  0.069700  0.721200  1.0
  H  H170  1  0.518100  0.152200  0.670300  1.0
  H  H171  1  0.481900  0.847800  0.329700  1.0
  H  H172  1  0.116500  0.025600  0.560900  1.0
  H  H173  1  0.464700  0.555600  0.439100  1.0
  H  H174  1  0.883500  0.974400  0.439100  1.0
  H  H175  1  0.535300  0.444400  0.560900  1.0
  H  H176  1  0.163900  0.088100  0.666800  1.0
  H  H177  1  0.421300  0.497100  0.333200  1.0
  H  H178  1  0.836100  0.911900  0.333200  1.0
  H  H179  1  0.578700  0.502900  0.666800  1.0
  H  H180  1  0.028700  0.641100  0.137000  1.0
  H  H181  1  0.504100  0.891700  0.863000  1.0
  H  H182  1  0.971300  0.358900  0.863000  1.0
  H  H183  1  0.495900  0.108300  0.137000  1.0
  H  H184  1  0.953700  0.667300  0.140800  1.0
  H  H185  1  0.526500  0.812900  0.859200  1.0
  H  H186  1  0.046300  0.332700  0.859200  1.0
  H  H187  1  0.473500  0.187100  0.140800  1.0
  H  H188  1  0.027400  0.572400  0.214800  1.0
  H  H189  1  0.357600  0.812600  0.785200  1.0
  H  H190  1  0.972600  0.427600  0.785200  1.0
  H  H191  1  0.642400  0.187400  0.214800  1.0
  H  H192  1  0.924700  0.546200  0.147100  1.0
  H  H193  1  0.399100  0.777600  0.852900  1.0
  H  H194  1  0.075300  0.453800  0.852900  1.0
  H  H195  1  0.600900  0.222400  0.147100  1.0
  H  H196  1  0.913000  0.618000  0.254000  1.0
  H  H197  1  0.364000  0.659000  0.746000  1.0
  H  H198  1  0.087000  0.382000  0.746000  1.0
  H  H199  1  0.636000  0.341000  0.254000  1.0
  H  H200  1  0.973800  0.575500  0.295700  1.0
  H  H201  1  0.279800  0.678100  0.704300  1.0
  H  H202  1  0.026200  0.424500  0.704300  1.0
  H  H203  1  0.720200  0.321900  0.295700  1.0
  H  H204  1  0.147400  0.794000  0.666400  1.0
  H  H205  1  0.127600  0.481000  0.333600  1.0
  H  H206  1  0.852600  0.206000  0.333600  1.0
  H  H207  1  0.872400  0.519000  0.666400  1.0
  H  H208  1  0.059400  0.808200  0.624200  1.0
  H  H209  1  0.184000  0.435200  0.375800  1.0
  H  H210  1  0.940600  0.191800  0.375800  1.0
  H  H211  1  0.816000  0.564800  0.624200  1.0
  H  H212  1  0.121700  0.931500  0.710400  1.0
  H  H213  1  0.221100  0.411300  0.289600  1.0
  H  H214  1  0.878300  0.068500  0.289600  1.0
  H  H215  1  0.778900  0.588700  0.710400  1.0
  H  H216  1  0.187200  0.904100  0.771500  1.0
  H  H217  1  0.132600  0.415700  0.228500  1.0
  H  H218  1  0.812800  0.095900  0.228500  1.0
  H  H219  1  0.867400  0.584300  0.771500  1.0
  H  H220  1  0.242100  0.037100  0.769400  1.0
  H  H221  1  0.267700  0.472700  0.230600  1.0
  H  H222  1  0.757900  0.962900  0.230600  1.0
  H  H223  1  0.732300  0.527300  0.769400  1.0
  H  H224  1  0.301200  0.986200  0.787200  1.0
  H  H225  1  0.199000  0.514000  0.212800  1.0
  H  H226  1  0.698800  0.013800  0.212800  1.0
  H  H227  1  0.801000  0.486000  0.787200  1.0
  H  H228  1  0.356000  0.240200  0.792600  1.0
  H  H229  1  0.447600  0.563400  0.207400  1.0
  H  H230  1  0.644000  0.759800  0.207400  1.0
  H  H231  1  0.552400  0.436600  0.792600  1.0
  H  H232  1  0.320600  0.187000  0.832600  1.0
  H  H233  1  0.354400  0.488000  0.167400  1.0
  H  H234  1  0.679400  0.813000  0.167400  1.0
  H  H235  1  0.645600  0.512000  0.832600  1.0
  H  H236  1  0.439000  0.322800  0.959400  1.0
  H  H237  1  0.363400  0.479600  0.040600  1.0
  H  H238  1  0.561000  0.677200  0.040600  1.0
  H  H239  1  0.636600  0.520400  0.959400  1.0
  H  H240  1  0.504600  0.312000  0.927000  1.0
  H  H241  1  0.385000  0.577600  0.073000  1.0
  H  H242  1  0.495400  0.688000  0.073000  1.0
  H  H243  1  0.615000  0.422400  0.927000  1.0
  H  H244  1  0.542400  0.284200  0.045400  1.0
  H  H245  1  0.238800  0.497000  0.954600  1.0
  H  H246  1  0.457600  0.715800  0.954600  1.0
  H  H247  1  0.761200  0.503000  0.045400  1.0
  H  H248  1  0.441500  0.215900  0.995000  1.0
  H  H249  1  0.220900  0.446500  0.005000  1.0
  H  H250  1  0.558500  0.784100  0.005000  1.0
  H  H251  1  0.779100  0.553500  0.995000  1.0
  H  H252  1  0.731000  0.131900  0.105500  1.0
  H  H253  1  0.026400  0.625500  0.894500  1.0
  H  H254  1  0.269000  0.868100  0.894500  1.0
  H  H255  1  0.973600  0.374500  0.105500  1.0
  H  H256  1  0.797000  0.179400  0.084800  1.0
  H  H257  1  0.094600  0.712200  0.915200  1.0
  H  H258  1  0.203000  0.820600  0.915200  1.0
  H  H259  1  0.905400  0.287800  0.084800  1.0
  H  H260  1  0.828900  0.082600  0.069500  1.0
  H  H261  1  0.013100  0.759400  0.930500  1.0
  H  H262  1  0.171100  0.917400  0.930500  1.0
  H  H263  1  0.986900  0.240600  0.069500  1.0
  H  H264  1  0.747200  0.027700  0.066100  1.0
  H  H265  1  0.961600  0.681100  0.933900  1.0
  H  H266  1  0.252800  0.972300  0.933900  1.0
  H  H267  1  0.038400  0.318900  0.066100  1.0
  H  H268  1  0.775900  0.004500  0.932800  1.0
  H  H269  1  0.071700  0.843100  0.067200  1.0
  H  H270  1  0.224100  0.995500  0.067200  1.0
  H  H271  1  0.928300  0.156900  0.932800  1.0
  H  H272  1  0.719000  0.936700  0.945900  1.0
  H  H273  1  0.990800  0.773100  0.054100  1.0
  H  H274  1  0.281000  0.063300  0.054100  1.0
  H  H275  1  0.009200  0.226900  0.945900  1.0
  H  H276  1  0.941900  0.976100  0.173200  1.0
  H  H277  1  0.802900  0.768700  0.826800  1.0
  H  H278  1  0.058100  0.023900  0.826800  1.0
  H  H279  1  0.197100  0.231300  0.173200  1.0
  H  H280  1  0.986000  0.054700  0.271500  1.0
  H  H281  1  0.783200  0.714500  0.728500  1.0
  H  H282  1  0.014000  0.945300  0.728500  1.0
  H  H283  1  0.216800  0.285500  0.271500  1.0
  H  H284  1  0.021100  0.974400  0.340100  1.0
  H  H285  1  0.634300  0.681000  0.659900  1.0
  H  H286  1  0.978900  0.025600  0.659900  1.0
  H  H287  1  0.365700  0.319000  0.340100  1.0
  H  H288  1  0.917300  0.924200  0.260700  1.0
  H  H289  1  0.663500  0.656600  0.739300  1.0
  H  H290  1  0.082700  0.075800  0.739300  1.0
  H  H291  1  0.336500  0.343400  0.260700  1.0
  H  H292  1  0.944500  0.831800  0.163700  1.0
  H  H293  1  0.668100  0.780800  0.836300  1.0
  H  H294  1  0.055500  0.168200  0.836300  1.0
  H  H295  1  0.331900  0.219200  0.163700  1.0
  H  H296  1  0.989300  0.830300  0.257800  1.0
  H  H297  1  0.572500  0.731500  0.742200  1.0
  H  H298  1  0.010700  0.169700  0.742200  1.0
  H  H299  1  0.427500  0.268500  0.257800  1.0
  H  H300  1  0.108400  0.169700  0.639900  1.0
  H  H301  1  0.529800  0.468500  0.360100  1.0
  H  H302  1  0.891600  0.830300  0.360100  1.0
  H  H303  1  0.470200  0.531500  0.639900  1.0
  H  H304  1  0.048000  0.099400  0.536600  1.0
  H  H305  1  0.562800  0.511400  0.463400  1.0
  H  H306  1  0.952000  0.900600  0.463400  1.0
  H  H307  1  0.437200  0.488600  0.536600  1.0
  H  H308  1  0.085000  0.175600  0.500400  1.0
  H  H309  1  0.675200  0.584600  0.499600  1.0
  H  H310  1  0.915000  0.824400  0.499600  1.0
  H  H311  1  0.324800  0.415400  0.500400  1.0
  H  H312  1  0.131700  0.248700  0.602200  1.0
  H  H313  1  0.646500  0.529500  0.397800  1.0
  H  H314  1  0.868300  0.751300  0.397800  1.0
  H  H315  1  0.353500  0.470500  0.602200  1.0
  H  H316  1  0.308700  0.012900  0.458400  1.0
  H  H317  1  0.554500  0.850300  0.541600  1.0
  H  H318  1  0.691300  0.987100  0.541600  1.0
  H  H319  1  0.445500  0.149700  0.458400  1.0
  H  H320  1  0.414100  0.931800  0.603500  1.0
  H  H321  1  0.328300  0.810600  0.396500  1.0
  H  H322  1  0.585900  0.068200  0.396500  1.0
  H  H323  1  0.671700  0.189400  0.603500  1.0
  N  N324  1  0.395000  0.147600  0.642600  1.0
  N  N325  1  0.505000  0.752400  0.357400  1.0
  N  N326  1  0.605000  0.852400  0.357400  1.0
  N  N327  1  0.495000  0.247600  0.642600  1.0
  N  N328  1  0.242600  0.113300  0.620500  1.0
  N  N329  1  0.492800  0.622100  0.379500  1.0
  N  N330  1  0.757400  0.886700  0.379500  1.0
  N  N331  1  0.507200  0.377900  0.620500  1.0
  N  N332  1  0.206400  0.891400  0.385000  1.0
  N  N333  1  0.506400  0.821400  0.615000  1.0
  N  N334  1  0.793600  0.108600  0.615000  1.0
  N  N335  1  0.493600  0.178600  0.385000  1.0
  N  N336  1  0.268600  0.977100  0.533500  1.0
  N  N337  1  0.443600  0.735100  0.466500  1.0
  N  N338  1  0.731400  0.022900  0.466500  1.0
  N  N339  1  0.556400  0.264900  0.533500  1.0
  N  N340  1  0.078500  0.745100  0.258200  1.0
  N  N341  1  0.486900  0.820300  0.741800  1.0
  N  N342  1  0.921500  0.254900  0.741800  1.0
  N  N343  1  0.513100  0.179700  0.258200  1.0
  N  N344  1  0.046000  0.707500  0.356100  1.0
  N  N345  1  0.351400  0.689900  0.643900  1.0
  N  N346  1  0.954000  0.292500  0.643900  1.0
  N  N347  1  0.648600  0.310100  0.356100  1.0
  N  N348  1  0.132700  0.830800  0.568300  1.0
  N  N349  1  0.262500  0.564400  0.431700  1.0
  N  N350  1  0.867300  0.169200  0.431700  1.0
  N  N351  1  0.737500  0.435600  0.568300  1.0
  N  N352  1  0.247100  0.974600  0.658900  1.0
  N  N353  1  0.315700  0.588200  0.341100  1.0
  N  N354  1  0.752900  0.025400  0.341100  1.0
  N  N355  1  0.684300  0.411800  0.658900  1.0
  N  N356  1  0.420100  0.026900  0.700400  1.0
  N  N357  1  0.326500  0.719700  0.299600  1.0
  N  N358  1  0.579900  0.973100  0.299600  1.0
  N  N359  1  0.673500  0.280300  0.700400  1.0
  N  N360  1  0.238300  0.783800  0.268900  1.0
  N  N361  1  0.514900  0.969400  0.731100  1.0
  N  N362  1  0.761700  0.216200  0.731100  1.0
  N  N363  1  0.485100  0.030600  0.268900  1.0
  N  N364  1  0.394100  0.146100  0.790000  1.0
  N  N365  1  0.356100  0.604100  0.210000  1.0
  N  N366  1  0.605900  0.853900  0.210000  1.0
  N  N367  1  0.643900  0.395900  0.790000  1.0
  N  N368  1  0.506000  0.172900  0.935700  1.0
  N  N369  1  0.237200  0.570300  0.064300  1.0
  N  N370  1  0.494000  0.827100  0.064300  1.0
  N  N371  1  0.762800  0.429700  0.935700  1.0
  N  N372  1  0.664400  0.117800  0.975400  1.0
  N  N373  1  0.142400  0.689000  0.024600  1.0
  N  N374  1  0.335600  0.882200  0.024600  1.0
  N  N375  1  0.857600  0.311000  0.975400  1.0
  N  N376  1  0.110300  0.771700  0.125800  1.0
  N  N377  1  0.645900  0.984500  0.874200  1.0
  N  N378  1  0.889700  0.228300  0.874200  1.0
  N  N379  1  0.354100  0.015500  0.125800  1.0
  N  N380  1  0.235000  0.932300  0.267100  1.0
  N  N381  1  0.665200  0.967900  0.732900  1.0
  N  N382  1  0.765000  0.067700  0.732900  1.0
  N  N383  1  0.334800  0.032100  0.267100  1.0
  N  N384  1  0.079300  0.028300  0.250200  1.0
  N  N385  1  0.778100  0.829100  0.749800  1.0
  N  N386  1  0.920700  0.971700  0.749800  1.0
  N  N387  1  0.221900  0.170900  0.250200  1.0
  N  N388  1  0.079400  0.894200  0.240400  1.0
  N  N389  1  0.653800  0.839000  0.759600  1.0
  N  N390  1  0.920600  0.105800  0.759600  1.0
  N  N391  1  0.346200  0.161000  0.240400  1.0
  N  N392  1  0.221700  0.217800  0.577300  1.0
  N  N393  1  0.640500  0.644400  0.422700  1.0
  N  N394  1  0.778300  0.782200  0.422700  1.0
  N  N395  1  0.359500  0.355600  0.577300  1.0
  O  O396  1  0.966300  0.338700  0.305000  1
  O  O397  1  0.033700  0.661300  0.695000  1
  O  O398  1  0.221100  0.502900  0.548000  1
  O  O399  1  0.954900  0.673100  0.452000  1
  O  O400  1  0.778900  0.497100  0.452000  1
  O  O401  1  0.045100  0.326900  0.548000  1
  O  O402  1  0.998700  0.794300  0.793000  1
  O  O403  1  0.001300  0.205700  0.207000  1
  O  O404  1  0.999200  0.909800  0.909000  1
  O  O405  1  0.000800  0.090200  0.091000  1
  O  O406  1  0.680300  0.584700  0.303000  1
  O  O407  1  0.281700  0.377300  0.697000  1
  O  O408  1  0.319700  0.415300  0.697000  1
  O  O409  1  0.718300  0.622700  0.303000  1
  O  O410  1  0.032000  0.383000  0.415000  1
  O  O411  1  0.968000  0.617000  0.585000  1
  O  O412  1  0.120200  0.472800  0.522200  1
  O  O413  1  0.950600  0.598000  0.477800  1
  O  O414  1  0.879800  0.527200  0.477800  1
  O  O415  1  0.049400  0.402000  0.522200  1
  S  S416  1  0.032300  0.973300  0.005600  1
  S  S417  1  0.967700  0.026700  0.994400  1
  S  S418  1  0.715000  0.567600  0.227000  1
  S  S419  1  0.340600  0.488000  0.773000  1
  S  S420  1  0.285000  0.432400  0.773000  1
  S  S421  1  0.659400  0.512000  0.227000  1
