# generated using pymatgen
data_In8H150C144N85O162
_symmetry_space_group_name_H-M   'P 1'
_cell_length_a   17.43918782
_cell_length_b   17.43918782
_cell_length_c   17.43918782
_cell_angle_alpha   107.37797431
_cell_angle_beta   107.37797431
_cell_angle_gamma   107.37797431
_symmetry_Int_Tables_number   1
_chemical_formula_structural   In8H150C144N85O162
_chemical_formula_sum   'In8 H150 C144 N85 O162'
_cell_volume   4370.62842251
_cell_formula_units_Z   1
loop_
 _symmetry_equiv_pos_site_id
 _symmetry_equiv_pos_as_xyz
  1  'x, y, z'
loop_
 _atom_site_type_symbol
 _atom_site_label
 _atom_site_symmetry_multiplicity
 _atom_site_fract_x
 _atom_site_fract_y
 _atom_site_fract_z
 _atom_site_occupancy
  C  C1  1  0.126000  0.493000  0.059000  1
  C  C2  1  0.059000  0.126000  0.493000  1
  C  C3  1  0.493000  0.059000  0.126000  1
  C  C4  1  0.874000  0.507000  0.941000  1
  C  C5  1  0.941000  0.874000  0.507000  1
  C  C6  1  0.507000  0.941000  0.874000  1
  C  C7  1  0.956000  0.054000  0.819000  1
  C  C8  1  0.819000  0.956000  0.054000  1
  C  C9  1  0.054000  0.819000  0.956000  1
  C  C10  1  0.044000  0.946000  0.181000  1
  C  C11  1  0.181000  0.044000  0.946000  1
  C  C12  1  0.946000  0.181000  0.044000  1
  C  C13  1  0.239600  0.319700  0.414200  1.0
  C  C14  1  0.414200  0.239600  0.319700  1.0
  C  C15  1  0.319700  0.414200  0.239600  1.0
  C  C16  1  0.760400  0.680300  0.585800  1.0
  C  C17  1  0.585800  0.760400  0.680300  1.0
  C  C18  1  0.680300  0.585800  0.760400  1.0
  C  C19  1  0.117700  0.289300  0.308500  1.0
  C  C20  1  0.308500  0.117700  0.289300  1.0
  C  C21  1  0.289300  0.308500  0.117700  1.0
  C  C22  1  0.882300  0.710700  0.691500  1.0
  C  C23  1  0.691500  0.882300  0.710700  1.0
  C  C24  1  0.710700  0.691500  0.882300  1.0
  C  C25  1  0.109800  0.318200  0.386200  1.0
  C  C26  1  0.386200  0.109800  0.318200  1.0
  C  C27  1  0.318200  0.386200  0.109800  1.0
  C  C28  1  0.890200  0.681800  0.613800  1.0
  C  C29  1  0.613800  0.890200  0.681800  1.0
  C  C30  1  0.681800  0.613800  0.890200  1.0
  C  C31  1  0.039400  0.328800  0.412700  1.0
  C  C32  1  0.412700  0.039400  0.328800  1.0
  C  C33  1  0.328800  0.412700  0.039400  1.0
  C  C34  1  0.960600  0.671200  0.587300  1.0
  C  C35  1  0.587300  0.960600  0.671200  1.0
  C  C36  1  0.671200  0.587300  0.960600  1.0
  C  C37  1  0.031200  0.197300  0.059800  1.0
  C  C38  1  0.059800  0.031200  0.197300  1.0
  C  C39  1  0.197300  0.059800  0.031200  1.0
  C  C40  1  0.968800  0.802700  0.940200  1.0
  C  C41  1  0.940200  0.968800  0.802700  1.0
  C  C42  1  0.802700  0.940200  0.968800  1.0
  C  C43  1  0.062400  0.266100  0.213300  1.0
  C  C44  1  0.213300  0.062400  0.266100  1.0
  C  C45  1  0.266100  0.213300  0.062400  1.0
  C  C46  1  0.937600  0.733900  0.786700  1.0
  C  C47  1  0.786700  0.937600  0.733900  1.0
  C  C48  1  0.733900  0.786700  0.937600  1.0
  C  C49  1  0.314700  0.585200  0.564100  1.0
  C  C50  1  0.564100  0.314700  0.585200  1.0
  C  C51  1  0.585200  0.564100  0.314700  1.0
  C  C52  1  0.685300  0.414800  0.435900  1.0
  C  C53  1  0.435900  0.685300  0.414800  1.0
  C  C54  1  0.414800  0.435900  0.685300  1.0
  C  C55  1  0.283800  0.609800  0.677800  1.0
  C  C56  1  0.677800  0.283800  0.609800  1.0
  C  C57  1  0.609800  0.677800  0.283800  1.0
  C  C58  1  0.716200  0.390200  0.322200  1.0
  C  C59  1  0.322200  0.716200  0.390200  1.0
  C  C60  1  0.390200  0.322200  0.716200  1.0
  C  C61  1  0.235500  0.579700  0.728600  1.0
  C  C62  1  0.728600  0.235500  0.579700  1.0
  C  C63  1  0.579700  0.728600  0.235500  1.0
  C  C64  1  0.764500  0.420300  0.271400  1.0
  C  C65  1  0.271400  0.764500  0.420300  1.0
  C  C66  1  0.420300  0.271400  0.764500  1.0
  C  C67  1  0.182500  0.616300  0.842800  1.0
  C  C68  1  0.842800  0.182500  0.616300  1.0
  C  C69  1  0.616300  0.842800  0.182500  1.0
  C  C70  1  0.817500  0.383700  0.157200  1.0
  C  C71  1  0.157200  0.817500  0.383700  1.0
  C  C72  1  0.383700  0.157200  0.817500  1.0
  C  C73  1  0.166400  0.529300  0.833100  1.0
  C  C74  1  0.833100  0.166400  0.529300  1.0
  C  C75  1  0.529300  0.833100  0.166400  1.0
  C  C76  1  0.833600  0.470700  0.166900  1.0
  C  C77  1  0.166900  0.833600  0.470700  1.0
  C  C78  1  0.470700  0.166900  0.833600  1.0
  C  C79  1  0.373100  0.783100  0.746700  1.0
  C  C80  1  0.746700  0.373100  0.783100  1.0
  C  C81  1  0.783100  0.746700  0.373100  1.0
  C  C82  1  0.626900  0.216900  0.253300  1.0
  C  C83  1  0.253300  0.626900  0.216900  1.0
  C  C84  1  0.216900  0.253300  0.626900  1.0
  C  C85  1  0.333300  0.689100  0.682200  1.0
  C  C86  1  0.682200  0.333300  0.689100  1.0
  C  C87  1  0.689100  0.682200  0.333300  1.0
  C  C88  1  0.666700  0.310900  0.317800  1.0
  C  C89  1  0.317800  0.666700  0.310900  1.0
  C  C90  1  0.310900  0.317800  0.666700  1.0
  C  C91  1  0.059800  0.218900  0.565200  1.0
  C  C92  1  0.565200  0.059800  0.218900  1.0
  C  C93  1  0.218900  0.565200  0.059800  1.0
  C  C94  1  0.940200  0.781100  0.434800  1.0
  C  C95  1  0.434800  0.940200  0.781100  1.0
  C  C96  1  0.781100  0.434800  0.940200  1.0
  C  C97  1  0.107900  0.097800  0.568900  1.0
  C  C98  1  0.568900  0.107900  0.097800  1.0
  C  C99  1  0.097800  0.568900  0.107900  1.0
  C  C100  1  0.892100  0.902200  0.431100  1.0
  C  C101  1  0.431100  0.892100  0.902200  1.0
  C  C102  1  0.902200  0.431100  0.892100  1.0
  C  C103  1  0.884500  0.291700  0.372500  1.0
  C  C104  1  0.372500  0.884500  0.291700  1.0
  C  C105  1  0.291700  0.372500  0.884500  1.0
  C  C106  1  0.115500  0.708300  0.627500  1.0
  C  C107  1  0.627500  0.115500  0.708300  1.0
  C  C108  1  0.708300  0.627500  0.115500  1.0
  C  C109  1  0.915000  0.374200  0.450000  1.0
  C  C110  1  0.450000  0.915000  0.374200  1.0
  C  C111  1  0.374200  0.450000  0.915000  1.0
  C  C112  1  0.085000  0.625800  0.550000  1.0
  C  C113  1  0.550000  0.085000  0.625800  1.0
  C  C114  1  0.625800  0.550000  0.085000  1.0
  C  C115  1  0.997700  0.389000  0.526800  1.0
  C  C116  1  0.526800  0.997700  0.389000  1.0
  C  C117  1  0.389000  0.526800  0.997700  1.0
  C  C118  1  0.002300  0.611000  0.473200  1.0
  C  C119  1  0.473200  0.002300  0.611000  1.0
  C  C120  1  0.611000  0.473200  0.002300  1.0
  C  C121  1  0.959600  0.294300  0.105200  1.0
  C  C122  1  0.105200  0.959600  0.294300  1.0
  C  C123  1  0.294300  0.105200  0.959600  1.0
  C  C124  1  0.040400  0.705700  0.894800  1.0
  C  C125  1  0.894800  0.040400  0.705700  1.0
  C  C126  1  0.705700  0.894800  0.040400  1.0
  C  C127  1  0.148400  0.461700  0.751000  1.0
  C  C128  1  0.751000  0.148400  0.461700  1.0
  C  C129  1  0.461700  0.751000  0.148400  1.0
  C  C130  1  0.851600  0.538300  0.249000  1.0
  C  C131  1  0.249000  0.851600  0.538300  1.0
  C  C132  1  0.538300  0.249000  0.851600  1.0
  C  C133  1  0.050800  0.140900  0.590400  1.0
  C  C134  1  0.590400  0.050800  0.140900  1.0
  C  C135  1  0.140900  0.590400  0.050800  1.0
  C  C136  1  0.949200  0.859100  0.409600  1.0
  C  C137  1  0.409600  0.949200  0.859100  1.0
  C  C138  1  0.859100  0.409600  0.949200  1.0
  C  C139  1  0.019600  0.283600  0.056500  1.0
  C  C140  1  0.056500  0.019600  0.283600  1.0
  C  C141  1  0.283600  0.056500  0.019600  1.0
  C  C142  1  0.980400  0.716400  0.943500  1.0
  C  C143  1  0.943500  0.980400  0.716400  1.0
  C  C144  1  0.716400  0.943500  0.980400  1.0
  H  H145  1  0.080100  0.451400  0.998900  1
  H  H146  1  0.998900  0.080100  0.451400  1
  H  H147  1  0.451400  0.998900  0.080100  1
  H  H148  1  0.919900  0.548600  0.001100  1
  H  H149  1  0.001100  0.919900  0.548600  1
  H  H150  1  0.548600  0.001100  0.919900  1
  H  H151  1  0.140400  0.460500  0.095100  1
  H  H152  1  0.095100  0.140400  0.460500  1
  H  H153  1  0.460500  0.095100  0.140400  1
  H  H154  1  0.859600  0.539500  0.904900  1
  H  H155  1  0.904900  0.859600  0.539500  1
  H  H156  1  0.539500  0.904900  0.859600  1
  H  H157  1  0.020900  0.092000  0.843600  1
  H  H158  1  0.843600  0.020900  0.092000  1
  H  H159  1  0.092000  0.843600  0.020900  1
  H  H160  1  0.979100  0.908000  0.156400  1
  H  H161  1  0.156400  0.979100  0.908000  1
  H  H162  1  0.908000  0.156400  0.979100  1
  H  H163  1  0.932800  0.078700  0.861000  1
  H  H164  1  0.861000  0.932800  0.078700  1
  H  H165  1  0.078700  0.861000  0.932800  1
  H  H166  1  0.067200  0.921300  0.139000  1
  H  H167  1  0.139000  0.067200  0.921300  1
  H  H168  1  0.921300  0.139000  0.067200  1
  H  H169  1  0.298400  0.328000  0.445200  1.0
  H  H170  1  0.445200  0.298400  0.328000  1.0
  H  H171  1  0.328000  0.445200  0.298400  1.0
  H  H172  1  0.701600  0.672000  0.554800  1.0
  H  H173  1  0.554800  0.701600  0.672000  1.0
  H  H174  1  0.672000  0.554800  0.701600  1.0
  H  H175  1  0.318100  0.555400  0.510700  1.0
  H  H176  1  0.510700  0.318100  0.555400  1.0
  H  H177  1  0.555400  0.510700  0.318100  1.0
  H  H178  1  0.681900  0.444600  0.489300  1.0
  H  H179  1  0.489300  0.681900  0.444600  1.0
  H  H180  1  0.444600  0.489300  0.681900  1.0
  H  H181  1  0.125300  0.621300  0.823900  1.0
  H  H182  1  0.823900  0.125300  0.621300  1.0
  H  H183  1  0.621300  0.823900  0.125300  1.0
  H  H184  1  0.874700  0.378700  0.176100  1.0
  H  H185  1  0.176100  0.874700  0.378700  1.0
  H  H186  1  0.378700  0.176100  0.874700  1.0
  H  H187  1  0.219100  0.658200  0.906200  1.0
  H  H188  1  0.906200  0.219100  0.658200  1.0
  H  H189  1  0.658200  0.906200  0.219100  1.0
  H  H190  1  0.780900  0.341800  0.093800  1.0
  H  H191  1  0.093800  0.780900  0.341800  1.0
  H  H192  1  0.341800  0.093800  0.780900  1.0
  H  H193  1  0.218800  0.533000  0.879300  1.0
  H  H194  1  0.879300  0.218800  0.533000  1.0
  H  H195  1  0.533000  0.879300  0.218800  1.0
  H  H196  1  0.781200  0.467000  0.120700  1.0
  H  H197  1  0.120700  0.781200  0.467000  1.0
  H  H198  1  0.467000  0.120700  0.781200  1.0
  H  H199  1  0.115400  0.507800  0.847400  1.0
  H  H200  1  0.847400  0.115400  0.507800  1.0
  H  H201  1  0.507800  0.847400  0.115400  1.0
  H  H202  1  0.884600  0.492200  0.152600  1.0
  H  H203  1  0.152600  0.884600  0.492200  1.0
  H  H204  1  0.492200  0.152600  0.884600  1.0
  H  H205  1  0.837500  0.288500  0.321300  1.0
  H  H206  1  0.321300  0.837500  0.288500  1.0
  H  H207  1  0.288500  0.321300  0.837500  1.0
  H  H208  1  0.162500  0.711500  0.678700  1.0
  H  H209  1  0.678700  0.162500  0.711500  1.0
  H  H210  1  0.711500  0.678700  0.162500  1.0
  H  H211  1  0.858800  0.240500  0.384900  1.0
  H  H212  1  0.384900  0.858800  0.240500  1.0
  H  H213  1  0.240500  0.384900  0.858800  1.0
  H  H214  1  0.141200  0.759500  0.615100  1.0
  H  H215  1  0.615100  0.141200  0.759500  1.0
  H  H216  1  0.759500  0.615100  0.141200  1.0
  H  H217  1  0.929167  0.424633  0.433700  1.0
  H  H218  1  0.433700  0.929167  0.424633  1.0
  H  H219  1  0.424633  0.433700  0.929167  1.0
  H  H220  1  0.070833  0.575367  0.566300  1.0
  H  H221  1  0.566300  0.070833  0.575367  1.0
  H  H222  1  0.575367  0.566300  0.070833  1.0
  H  H223  1  0.866900  0.372000  0.469700  1.0
  H  H224  1  0.469700  0.866900  0.372000  1.0
  H  H225  1  0.372000  0.469700  0.866900  1.0
  H  H226  1  0.133100  0.628000  0.530300  1.0
  H  H227  1  0.530300  0.133100  0.628000  1.0
  H  H228  1  0.628000  0.530300  0.133100  1.0
  H  H229  1  0.980500  0.346800  0.552600  1.0
  H  H230  1  0.552600  0.980500  0.346800  1.0
  H  H231  1  0.346800  0.552600  0.980500  1.0
  H  H232  1  0.019500  0.653200  0.447400  1.0
  H  H233  1  0.447400  0.019500  0.653200  1.0
  H  H234  1  0.653200  0.447400  0.019500  1.0
  H  H235  1  0.023500  0.450000  0.573800  1.0
  H  H236  1  0.573800  0.023500  0.450000  1.0
  H  H237  1  0.450000  0.573800  0.023500  1.0
  H  H238  1  0.976500  0.550000  0.426200  1.0
  H  H239  1  0.426200  0.976500  0.550000  1.0
  H  H240  1  0.550000  0.426200  0.976500  1.0
  H  H241  1  0.162500  0.414100  0.762600  1.0
  H  H242  1  0.762600  0.162500  0.414100  1.0
  H  H243  1  0.414100  0.762600  0.162500  1.0
  H  H244  1  0.837500  0.585900  0.237400  1.0
  H  H245  1  0.237400  0.837500  0.585900  1.0
  H  H246  1  0.585900  0.237400  0.837500  1.0
  H  H247  1  0.084100  0.435200  0.711600  1.0
  H  H248  1  0.711600  0.084100  0.435200  1.0
  H  H249  1  0.435200  0.711600  0.084100  1.0
  H  H250  1  0.915900  0.564800  0.288400  1.0
  H  H251  1  0.288400  0.915900  0.564800  1.0
  H  H252  1  0.564800  0.288400  0.915900  1.0
  H  H253  1  0.067000  0.162400  0.655000  1.0
  H  H254  1  0.655000  0.067000  0.162400  1.0
  H  H255  1  0.162400  0.655000  0.067000  1.0
  H  H256  1  0.933000  0.837600  0.345000  1.0
  H  H257  1  0.345000  0.933000  0.837600  1.0
  H  H258  1  0.837600  0.345000  0.933000  1.0
  H  H259  1  0.988100  0.096300  0.558500  1.0
  H  H260  1  0.558500  0.988100  0.096300  1.0
  H  H261  1  0.096300  0.558500  0.988100  1.0
  H  H262  1  0.011900  0.903700  0.441500  1.0
  H  H263  1  0.441500  0.011900  0.903700  1.0
  H  H264  1  0.903700  0.441500  0.011900  1.0
  H  H265  1  0.990800  0.275100  0.994500  1.0
  H  H266  1  0.994500  0.990800  0.275100  1.0
  H  H267  1  0.275100  0.994500  0.990800  1.0
  H  H268  1  0.009200  0.724900  0.005500  1.0
  H  H269  1  0.005500  0.009200  0.724900  1.0
  H  H270  1  0.724900  0.005500  0.009200  1.0
  H  H271  1  0.077800  0.336200  0.087600  1.0
  H  H272  1  0.087600  0.077800  0.336200  1.0
  H  H273  1  0.336200  0.087600  0.077800  1.0
  H  H274  1  0.922200  0.663800  0.912400  1.0
  H  H275  1  0.912400  0.922200  0.663800  1.0
  H  H276  1  0.663800  0.912400  0.922200  1.0
  H  H277  1  0.012000  0.348000  0.252000  1.0
  H  H278  1  0.252000  0.012000  0.348000  1.0
  H  H279  1  0.348000  0.252000  0.012000  1.0
  H  H280  1  0.988000  0.652000  0.748000  1.0
  H  H281  1  0.748000  0.988000  0.652000  1.0
  H  H282  1  0.652000  0.748000  0.988000  1.0
  H  H283  1  0.927000  0.230000  0.296000  1.0
  H  H284  1  0.296000  0.927000  0.230000  1.0
  H  H285  1  0.230000  0.296000  0.927000  1.0
  H  H286  1  0.073000  0.770000  0.704000  1.0
  H  H287  1  0.704000  0.073000  0.770000  1.0
  H  H288  1  0.770000  0.704000  0.073000  1.0
  H  H289  1  0.246000  0.686000  0.799000  1.0
  H  H290  1  0.799000  0.246000  0.686000  1.0
  H  H291  1  0.686000  0.799000  0.246000  1.0
  H  H292  1  0.754000  0.314000  0.201000  1.0
  H  H293  1  0.201000  0.754000  0.314000  1.0
  H  H294  1  0.314000  0.201000  0.754000  1.0
  In  In295  1  0.207770  0.207770  0.207770  1.0
  In  In296  1  0.792230  0.792230  0.792230  1.0
  In  In297  1  0.202650  0.407550  0.588450  1.0
  In  In298  1  0.588450  0.202650  0.407550  1.0
  In  In299  1  0.407550  0.588450  0.202650  1.0
  In  In300  1  0.797350  0.592450  0.411550  1.0
  In  In301  1  0.411550  0.797350  0.592450  1.0
  In  In302  1  0.592450  0.411550  0.797350  1.0
  N  N303  1  0.327200  0.091300  0.518600  1
  N  N304  1  0.518600  0.327200  0.091300  1
  N  N305  1  0.091300  0.518600  0.327200  1
  N  N306  1  0.672800  0.908700  0.481400  1
  N  N307  1  0.481400  0.672800  0.908700  1
  N  N308  1  0.908700  0.481400  0.672800  1
  N  N309  1  0.983000  0.719000  0.144000  1
  N  N310  1  0.144000  0.983000  0.719000  1
  N  N311  1  0.719000  0.144000  0.983000  1
  N  N312  1  0.017000  0.281000  0.856000  1
  N  N313  1  0.856000  0.017000  0.281000  1
  N  N314  1  0.281000  0.856000  0.017000  1
  N  N315  1  0.500000  0.500000  0.500000  1
  N  N316  1  0.079500  0.215800  0.154700  1.0
  N  N317  1  0.154700  0.079500  0.215800  1.0
  N  N318  1  0.215800  0.154700  0.079500  1.0
  N  N319  1  0.920500  0.784200  0.845300  1.0
  N  N320  1  0.845300  0.920500  0.784200  1.0
  N  N321  1  0.784200  0.845300  0.920500  1.0
  N  N322  1  0.199300  0.287900  0.326700  1.0
  N  N323  1  0.326700  0.199300  0.287900  1.0
  N  N324  1  0.287900  0.326700  0.199300  1.0
  N  N325  1  0.800700  0.712100  0.673300  1.0
  N  N326  1  0.673300  0.800700  0.712100  1.0
  N  N327  1  0.712100  0.673300  0.800700  1.0
  N  N328  1  0.190200  0.338700  0.453900  1.0
  N  N329  1  0.453900  0.190200  0.338700  1.0
  N  N330  1  0.338700  0.453900  0.190200  1.0
  N  N331  1  0.809800  0.661300  0.546100  1.0
  N  N332  1  0.546100  0.809800  0.661300  1.0
  N  N333  1  0.661300  0.546100  0.809800  1.0
  N  N334  1  0.065200  0.376000  0.496300  1.0
  N  N335  1  0.496300  0.065200  0.376000  1.0
  N  N336  1  0.376000  0.496300  0.065200  1.0
  N  N337  1  0.934800  0.624000  0.503700  1.0
  N  N338  1  0.503700  0.934800  0.624000  1.0
  N  N339  1  0.624000  0.503700  0.934800  1.0
  N  N340  1  0.956200  0.286300  0.350300  1.0
  N  N341  1  0.350300  0.956200  0.286300  1.0
  N  N342  1  0.286300  0.350300  0.956200  1.0
  N  N343  1  0.043800  0.713700  0.649700  1.0
  N  N344  1  0.649700  0.043800  0.713700  1.0
  N  N345  1  0.713700  0.649700  0.043800  1.0
  N  N346  1  0.273300  0.544000  0.603200  1.0
  N  N347  1  0.603200  0.273300  0.544000  1.0
  N  N348  1  0.544000  0.603200  0.273300  1.0
  N  N349  1  0.726700  0.456000  0.396800  1.0
  N  N350  1  0.396800  0.726700  0.456000  1.0
  N  N351  1  0.456000  0.396800  0.726700  1.0
  N  N352  1  0.199400  0.495000  0.705100  1.0
  N  N353  1  0.705100  0.199400  0.495000  1.0
  N  N354  1  0.495000  0.705100  0.199400  1.0
  N  N355  1  0.800600  0.505000  0.294900  1.0
  N  N356  1  0.294900  0.800600  0.505000  1.0
  N  N357  1  0.505000  0.294900  0.800600  1.0
  N  N358  1  0.228000  0.640100  0.790300  1.0
  N  N359  1  0.790300  0.228000  0.640100  1.0
  N  N360  1  0.640100  0.790300  0.228000  1.0
  N  N361  1  0.772000  0.359900  0.209700  1.0
  N  N362  1  0.209700  0.772000  0.359900  1.0
  N  N363  1  0.359900  0.209700  0.772000  1.0
  N  N364  1  0.326500  0.391000  0.649300  1.0
  N  N365  1  0.649300  0.326500  0.391000  1.0
  N  N366  1  0.391000  0.649300  0.326500  1.0
  N  N367  1  0.673500  0.609000  0.350700  1.0
  N  N368  1  0.350700  0.673500  0.609000  1.0
  N  N369  1  0.609000  0.350700  0.673500  1.0
  N  N370  1  0.156100  0.282700  0.607900  1.0
  N  N371  1  0.607900  0.156100  0.282700  1.0
  N  N372  1  0.282700  0.607900  0.156100  1.0
  N  N373  1  0.843900  0.717300  0.392100  1.0
  N  N374  1  0.392100  0.843900  0.717300  1.0
  N  N375  1  0.717300  0.392100  0.843900  1.0
  N  N376  1  0.387700  0.797500  0.831700  1.0
  N  N377  1  0.831700  0.387700  0.797500  1.0
  N  N378  1  0.797500  0.831700  0.387700  1.0
  N  N379  1  0.612300  0.202500  0.168300  1.0
  N  N380  1  0.168300  0.612300  0.202500  1.0
  N  N381  1  0.202500  0.168300  0.612300  1.0
  N  N382  1  0.007300  0.301900  0.196900  1.0
  N  N383  1  0.196900  0.007300  0.301900  1.0
  N  N384  1  0.301900  0.196900  0.007300  1.0
  N  N385  1  0.992700  0.698100  0.803100  1.0
  N  N386  1  0.803100  0.992700  0.698100  1.0
  N  N387  1  0.698100  0.803100  0.992700  1.0
  O  O388  1  0.325400  0.032200  0.451700  1
  O  O389  1  0.451700  0.325400  0.032200  1
  O  O390  1  0.032200  0.451700  0.325400  1
  O  O391  1  0.674600  0.967800  0.548300  1
  O  O392  1  0.548300  0.674600  0.967800  1
  O  O393  1  0.967800  0.548300  0.674600  1
  O  O394  1  0.259300  0.056100  0.527200  1
  O  O395  1  0.527200  0.259300  0.056100  1
  O  O396  1  0.056100  0.527200  0.259300  1
  O  O397  1  0.740700  0.943900  0.472800  1
  O  O398  1  0.472800  0.740700  0.943900  1
  O  O399  1  0.943900  0.472800  0.740700  1
  O  O400  1  0.398400  0.146400  0.591200  1
  O  O401  1  0.591200  0.398400  0.146400  1
  O  O402  1  0.146400  0.591200  0.398400  1
  O  O403  1  0.601600  0.853600  0.408800  1
  O  O404  1  0.408800  0.601600  0.853600  1
  O  O405  1  0.853600  0.408800  0.601600  1
  O  O406  1  0.939000  0.740400  0.205600  1
  O  O407  1  0.205600  0.939000  0.740400  1
  O  O408  1  0.740400  0.205600  0.939000  1
  O  O409  1  0.061000  0.259600  0.794400  1
  O  O410  1  0.794400  0.061000  0.259600  1
  O  O411  1  0.259600  0.794400  0.061000  1
  O  O412  1  0.064900  0.749000  0.168300  1
  O  O413  1  0.168300  0.064900  0.749000  1
  O  O414  1  0.749000  0.168300  0.064900  1
  O  O415  1  0.935100  0.251000  0.831700  1
  O  O416  1  0.831700  0.935100  0.251000  1
  O  O417  1  0.251000  0.831700  0.935100  1
  O  O418  1  0.929500  0.636400  0.115100  1
  O  O419  1  0.115100  0.929500  0.636400  1
  O  O420  1  0.636400  0.115100  0.929500  1
  O  O421  1  0.070500  0.363600  0.884900  1
  O  O422  1  0.884900  0.070500  0.363600  1
  O  O423  1  0.363600  0.884900  0.070500  1
  O  O424  1  0.906000  0.792000  0.106000  1
  O  O425  1  0.106000  0.906000  0.792000  1
  O  O426  1  0.792000  0.106000  0.906000  1
  O  O427  1  0.094000  0.208000  0.894000  1
  O  O428  1  0.894000  0.094000  0.208000  1
  O  O429  1  0.208000  0.894000  0.094000  1
  O  O430  1  0.333300  0.106000  0.587200  1
  O  O431  1  0.587200  0.333300  0.106000  1
  O  O432  1  0.106000  0.587200  0.333300  1
  O  O433  1  0.666700  0.894000  0.412800  1
  O  O434  1  0.412800  0.666700  0.894000  1
  O  O435  1  0.894000  0.412800  0.666700  1
  O  O436  1  0.315600  0.162300  0.494600  1
  O  O437  1  0.494600  0.315600  0.162300  1
  O  O438  1  0.162300  0.494600  0.315600  1
  O  O439  1  0.684400  0.837700  0.505400  1
  O  O440  1  0.505400  0.684400  0.837700  1
  O  O441  1  0.837700  0.505400  0.684400  1
  O  O442  1  0.465300  0.426600  0.508200  1
  O  O443  1  0.508200  0.465300  0.426600  1
  O  O444  1  0.426600  0.508200  0.465300  1
  O  O445  1  0.534700  0.573400  0.491800  1
  O  O446  1  0.491800  0.534700  0.573400  1
  O  O447  1  0.573400  0.491800  0.534700  1
  O  O448  1  0.159000  0.784200  0.186900  1
  O  O449  1  0.186900  0.159000  0.784200  1
  O  O450  1  0.784200  0.186900  0.159000  1
  O  O451  1  0.841000  0.215800  0.813100  1
  O  O452  1  0.813100  0.841000  0.215800  1
  O  O453  1  0.215800  0.813100  0.841000  1
  O  O454  1  0.168400  0.887200  0.133000  1
  O  O455  1  0.133000  0.168400  0.887200  1
  O  O456  1  0.887200  0.133000  0.168400  1
  O  O457  1  0.831600  0.112800  0.867000  1
  O  O458  1  0.867000  0.831600  0.112800  1
  O  O459  1  0.112800  0.867000  0.831600  1
  O  O460  1  0.937000  0.707000  0.154000  1
  O  O461  1  0.154000  0.937000  0.707000  1
  O  O462  1  0.707000  0.154000  0.937000  1
  O  O463  1  0.063000  0.293000  0.846000  1
  O  O464  1  0.846000  0.063000  0.293000  1
  O  O465  1  0.293000  0.846000  0.063000  1
  O  O466  1  0.187000  0.834000  0.164000  1
  O  O467  1  0.164000  0.187000  0.834000  1
  O  O468  1  0.834000  0.164000  0.187000  1
  O  O469  1  0.813000  0.166000  0.836000  1
  O  O470  1  0.836000  0.813000  0.166000  1
  O  O471  1  0.166000  0.836000  0.813000  1
  O  O472  1  0.971000  0.675000  0.176000  1
  O  O473  1  0.176000  0.971000  0.675000  1
  O  O474  1  0.675000  0.176000  0.971000  1
  O  O475  1  0.029000  0.325000  0.824000  1
  O  O476  1  0.824000  0.029000  0.325000  1
  O  O477  1  0.325000  0.824000  0.029000  1
  O  O478  1  0.200000  0.030000  0.486000  1
  O  O479  1  0.486000  0.200000  0.030000  1
  O  O480  1  0.030000  0.486000  0.200000  1
  O  O481  1  0.800000  0.970000  0.514000  1
  O  O482  1  0.514000  0.800000  0.970000  1
  O  O483  1  0.970000  0.514000  0.800000  1
  O  O484  1  0.014000  0.788000  0.128000  1
  O  O485  1  0.128000  0.014000  0.788000  1
  O  O486  1  0.788000  0.128000  0.014000  1
  O  O487  1  0.986000  0.212000  0.872000  1
  O  O488  1  0.872000  0.986000  0.212000  1
  O  O489  1  0.212000  0.872000  0.986000  1
  O  O490  1  0.882000  0.796000  0.132000  1
  O  O491  1  0.132000  0.882000  0.796000  1
  O  O492  1  0.796000  0.132000  0.882000  1
  O  O493  1  0.118000  0.204000  0.868000  1
  O  O494  1  0.868000  0.118000  0.204000  1
  O  O495  1  0.204000  0.868000  0.118000  1
  O  O496  1  0.895000  0.745000  0.092000  1
  O  O497  1  0.092000  0.895000  0.745000  1
  O  O498  1  0.745000  0.092000  0.895000  1
  O  O499  1  0.105000  0.255000  0.908000  1
  O  O500  1  0.908000  0.105000  0.255000  1
  O  O501  1  0.255000  0.908000  0.105000  1
  O  O502  1  0.940000  0.769000  0.137000  1
  O  O503  1  0.137000  0.940000  0.769000  1
  O  O504  1  0.769000  0.137000  0.940000  1
  O  O505  1  0.060000  0.231000  0.863000  1
  O  O506  1  0.863000  0.060000  0.231000  1
  O  O507  1  0.231000  0.863000  0.060000  1
  O  O508  1  0.898000  0.677000  0.094000  1
  O  O509  1  0.094000  0.898000  0.677000  1
  O  O510  1  0.677000  0.094000  0.898000  1
  O  O511  1  0.102000  0.323000  0.906000  1
  O  O512  1  0.906000  0.102000  0.323000  1
  O  O513  1  0.323000  0.906000  0.102000  1
  O  O514  1  0.908000  0.765000  0.212000  1
  O  O515  1  0.212000  0.908000  0.765000  1
  O  O516  1  0.765000  0.212000  0.908000  1
  O  O517  1  0.092000  0.235000  0.788000  1
  O  O518  1  0.788000  0.092000  0.235000  1
  O  O519  1  0.235000  0.788000  0.092000  1
  O  O520  1  0.324000  0.019000  0.472000  1
  O  O521  1  0.472000  0.324000  0.019000  1
  O  O522  1  0.019000  0.472000  0.324000  1
  O  O523  1  0.676000  0.981000  0.528000  1
  O  O524  1  0.528000  0.676000  0.981000  1
  O  O525  1  0.981000  0.528000  0.676000  1
  O  O526  1  0.352700  0.049700  0.470200  1
  O  O527  1  0.470200  0.352700  0.049700  1
  O  O528  1  0.049700  0.470200  0.352700  1
  O  O529  1  0.647300  0.950300  0.529800  1
  O  O530  1  0.529800  0.647300  0.950300  1
  O  O531  1  0.950300  0.529800  0.647300  1
  O  O532  1  0.306000  0.076000  0.586000  1
  O  O533  1  0.586000  0.306000  0.076000  1
  O  O534  1  0.076000  0.586000  0.306000  1
  O  O535  1  0.694000  0.924000  0.414000  1
  O  O536  1  0.414000  0.694000  0.924000  1
  O  O537  1  0.924000  0.414000  0.694000  1
  O  O538  1  0.354000  0.158000  0.513000  1
  O  O539  1  0.513000  0.354000  0.158000  1
  O  O540  1  0.158000  0.513000  0.354000  1
  O  O541  1  0.646000  0.842000  0.487000  1
  O  O542  1  0.487000  0.646000  0.842000  1
  O  O543  1  0.842000  0.487000  0.646000  1
  O  O544  1  0.218000  0.095000  0.475000  1
  O  O545  1  0.475000  0.218000  0.095000  1
  O  O546  1  0.095000  0.475000  0.218000  1
  O  O547  1  0.782000  0.905000  0.525000  1
  O  O548  1  0.525000  0.782000  0.905000  1
  O  O549  1  0.905000  0.525000  0.782000  1
