# generated using pymatgen
data_NiH22C14(N2O)4
_symmetry_space_group_name_H-M   'P 1'
_cell_length_a   17.37750000
_cell_length_b   17.49400000
_cell_length_c   24.68920000
_cell_angle_alpha   90.00000000
_cell_angle_beta   90.00000000
_cell_angle_gamma   90.00000000
_symmetry_Int_Tables_number   1
_chemical_formula_structural   NiH22C14(N2O)4
_chemical_formula_sum   'Ni16 H352 C224 N128 O64'
_cell_volume   7505.56580806
_cell_formula_units_Z   16
loop_
 _symmetry_equiv_pos_site_id
 _symmetry_equiv_pos_as_xyz
  1  'x, y, z'
loop_
 _atom_site_type_symbol
 _atom_site_label
 _atom_site_symmetry_multiplicity
 _atom_site_fract_x
 _atom_site_fract_y
 _atom_site_fract_z
 _atom_site_occupancy
  Ni  Ni1  1  0.017310  0.051650  0.320870  1.0
  Ni  Ni2  1  0.482690  0.948350  0.820870  1.0
  Ni  Ni3  1  0.982690  0.551650  0.179130  1.0
  Ni  Ni4  1  0.517310  0.448350  0.679130  1.0
  Ni  Ni5  1  0.982690  0.948350  0.679130  1.0
  Ni  Ni6  1  0.517310  0.051650  0.179130  1.0
  Ni  Ni7  1  0.017310  0.448350  0.820870  1.0
  Ni  Ni8  1  0.482690  0.551650  0.320870  1.0
  Ni  Ni9  1  0.247610  0.978570  0.508380  1.0
  Ni  Ni10  1  0.252390  0.021430  0.008380  1.0
  Ni  Ni11  1  0.752390  0.478570  0.991620  1.0
  Ni  Ni12  1  0.747610  0.521430  0.491620  1.0
  Ni  Ni13  1  0.752390  0.021430  0.491620  1.0
  Ni  Ni14  1  0.747610  0.978570  0.991620  1.0
  Ni  Ni15  1  0.247610  0.521430  0.008380  1.0
  Ni  Ni16  1  0.252390  0.478570  0.508380  1.0
  H  H17  1  0.586700  0.157100  0.449600  1
  H  H18  1  0.913300  0.842900  0.949600  1
  H  H19  1  0.413300  0.657100  0.050400  1
  H  H20  1  0.086700  0.342900  0.550400  1
  H  H21  1  0.413300  0.842900  0.550400  1
  H  H22  1  0.086700  0.157100  0.050400  1
  H  H23  1  0.586700  0.342900  0.949600  1
  H  H24  1  0.913300  0.657100  0.449600  1
  H  H25  1  0.507900  0.355800  0.440200  1
  H  H26  1  0.992100  0.644200  0.940200  1
  H  H27  1  0.492100  0.855800  0.059800  1
  H  H28  1  0.007900  0.144200  0.559800  1
  H  H29  1  0.492100  0.644200  0.559800  1
  H  H30  1  0.007900  0.355800  0.059800  1
  H  H31  1  0.507900  0.144200  0.940200  1
  H  H32  1  0.992100  0.855800  0.440200  1
  H  H33  1  0.590700  0.378200  0.463800  1
  H  H34  1  0.909300  0.621800  0.963800  1
  H  H35  1  0.409300  0.878200  0.036200  1
  H  H36  1  0.090700  0.121800  0.536200  1
  H  H37  1  0.409300  0.621800  0.536200  1
  H  H38  1  0.090700  0.378200  0.036200  1
  H  H39  1  0.590700  0.121800  0.963800  1
  H  H40  1  0.909300  0.878200  0.463800  1
  H  H41  1  0.531700  0.330200  0.500200  1
  H  H42  1  0.968300  0.669800  0.000200  1
  H  H43  1  0.468300  0.830200  0.999800  1
  H  H44  1  0.031700  0.169800  0.499800  1
  H  H45  1  0.468300  0.669800  0.499800  1
  H  H46  1  0.031700  0.330200  0.999800  1
  H  H47  1  0.531700  0.169800  0.000200  1
  H  H48  1  0.968300  0.830200  0.500200  1
  H  H49  1  0.663200  0.221400  0.392700  1
  H  H50  1  0.836800  0.778600  0.892700  1
  H  H51  1  0.336800  0.721400  0.107300  1
  H  H52  1  0.163200  0.278600  0.607300  1
  H  H53  1  0.336800  0.778600  0.607300  1
  H  H54  1  0.163200  0.221400  0.107300  1
  H  H55  1  0.663200  0.278600  0.892700  1
  H  H56  1  0.836800  0.721400  0.392700  1
  H  H57  1  0.682300  0.307200  0.410700  1
  H  H58  1  0.817700  0.692800  0.910700  1
  H  H59  1  0.317700  0.807200  0.089300  1
  H  H60  1  0.182300  0.192800  0.589300  1
  H  H61  1  0.317700  0.692800  0.589300  1
  H  H62  1  0.182300  0.307200  0.089300  1
  H  H63  1  0.682300  0.192800  0.910700  1
  H  H64  1  0.817700  0.807200  0.410700  1
  H  H65  1  0.618100  0.291400  0.365700  1
  H  H66  1  0.881900  0.708600  0.865700  1
  H  H67  1  0.381900  0.791400  0.134300  1
  H  H68  1  0.118100  0.208600  0.634300  1
  H  H69  1  0.381900  0.708600  0.634300  1
  H  H70  1  0.118100  0.291400  0.134300  1
  H  H71  1  0.618100  0.208600  0.865700  1
  H  H72  1  0.881900  0.791400  0.365700  1
  H  H73  1  0.731100  0.205800  0.702900  1
  H  H74  1  0.768900  0.794200  0.202900  1
  H  H75  1  0.268900  0.705800  0.797100  1
  H  H76  1  0.231100  0.294200  0.297100  1
  H  H77  1  0.268900  0.794200  0.297100  1
  H  H78  1  0.231100  0.205800  0.797100  1
  H  H79  1  0.731100  0.294200  0.202900  1
  H  H80  1  0.768900  0.705800  0.702900  1
  H  H81  1  0.895000  0.304400  0.711900  1
  H  H82  1  0.605000  0.695600  0.211900  1
  H  H83  1  0.105000  0.804400  0.788100  1
  H  H84  1  0.395000  0.195600  0.288100  1
  H  H85  1  0.105000  0.695600  0.288100  1
  H  H86  1  0.395000  0.304400  0.788100  1
  H  H87  1  0.895000  0.195600  0.211900  1
  H  H88  1  0.605000  0.804400  0.711900  1
  H  H89  1  0.931800  0.228800  0.686200  1
  H  H90  1  0.568200  0.771200  0.186200  1
  H  H91  1  0.068200  0.728800  0.813800  1
  H  H92  1  0.431800  0.271200  0.313800  1
  H  H93  1  0.068200  0.771200  0.313800  1
  H  H94  1  0.431800  0.228800  0.813800  1
  H  H95  1  0.931800  0.271200  0.186200  1
  H  H96  1  0.568200  0.728800  0.686200  1
  H  H97  1  0.938300  0.244100  0.749900  1
  H  H98  1  0.561700  0.755900  0.249900  1
  H  H99  1  0.061700  0.744100  0.750100  1
  H  H100  1  0.438300  0.255900  0.250100  1
  H  H101  1  0.061700  0.755900  0.250100  1
  H  H102  1  0.438300  0.244100  0.750100  1
  H  H103  1  0.938300  0.255900  0.249900  1
  H  H104  1  0.561700  0.744100  0.749900  1
  H  H105  1  0.863300  0.155400  0.791600  1
  H  H106  1  0.636700  0.844600  0.291600  1
  H  H107  1  0.136700  0.655400  0.708400  1
  H  H108  1  0.363300  0.344600  0.208400  1
  H  H109  1  0.136700  0.844600  0.208400  1
  H  H110  1  0.363300  0.155400  0.708400  1
  H  H111  1  0.863300  0.344600  0.291600  1
  H  H112  1  0.636700  0.655400  0.791600  1
  H  H113  1  0.860300  0.103400  0.738300  1
  H  H114  1  0.639700  0.896600  0.238300  1
  H  H115  1  0.139700  0.603400  0.761700  1
  H  H116  1  0.360300  0.396600  0.261700  1
  H  H117  1  0.139700  0.896600  0.261700  1
  H  H118  1  0.360300  0.103400  0.761700  1
  H  H119  1  0.860300  0.396600  0.238300  1
  H  H120  1  0.639700  0.603400  0.738300  1
  H  H121  1  0.782100  0.129200  0.767200  1
  H  H122  1  0.717900  0.870800  0.267200  1
  H  H123  1  0.217900  0.629200  0.732800  1
  H  H124  1  0.282100  0.370800  0.232800  1
  H  H125  1  0.217900  0.870800  0.232800  1
  H  H126  1  0.282100  0.129200  0.732800  1
  H  H127  1  0.782100  0.370800  0.267200  1
  H  H128  1  0.717900  0.629200  0.767200  1
  H  H129  1  0.071800  0.104800  0.203900  1.0
  H  H130  1  0.428200  0.895200  0.703900  1.0
  H  H131  1  0.928200  0.604800  0.296100  1.0
  H  H132  1  0.571800  0.395200  0.796100  1.0
  H  H133  1  0.928200  0.895200  0.796100  1.0
  H  H134  1  0.571800  0.104800  0.296100  1.0
  H  H135  1  0.071800  0.395200  0.703900  1.0
  H  H136  1  0.428200  0.604800  0.203900  1.0
  H  H137  1  0.103800  0.019900  0.194700  1.0
  H  H138  1  0.396200  0.980100  0.694700  1.0
  H  H139  1  0.896200  0.519900  0.305300  1.0
  H  H140  1  0.603800  0.480100  0.805300  1.0
  H  H141  1  0.896200  0.980100  0.805300  1.0
  H  H142  1  0.603800  0.019900  0.305300  1.0
  H  H143  1  0.103800  0.480100  0.694700  1.0
  H  H144  1  0.396200  0.519900  0.194700  1.0
  H  H145  1  0.193000  0.106700  0.155500  1.0
  H  H146  1  0.307000  0.893300  0.655500  1.0
  H  H147  1  0.807000  0.606700  0.344500  1.0
  H  H148  1  0.693000  0.393300  0.844500  1.0
  H  H149  1  0.807000  0.893300  0.844500  1.0
  H  H150  1  0.693000  0.106700  0.344500  1.0
  H  H151  1  0.193000  0.393300  0.655500  1.0
  H  H152  1  0.307000  0.606700  0.155500  1.0
  H  H153  1  0.199400  0.153400  0.211300  1.0
  H  H154  1  0.300600  0.846600  0.711300  1.0
  H  H155  1  0.800600  0.653400  0.288700  1.0
  H  H156  1  0.699400  0.346600  0.788700  1.0
  H  H157  1  0.800600  0.846600  0.788700  1.0
  H  H158  1  0.699400  0.153400  0.288700  1.0
  H  H159  1  0.199400  0.346600  0.711300  1.0
  H  H160  1  0.300600  0.653400  0.211300  1.0
  H  H161  1  0.064700  0.003100  0.452500  1.0
  H  H162  1  0.435300  0.996900  0.952500  1.0
  H  H163  1  0.935300  0.503100  0.047500  1.0
  H  H164  1  0.564700  0.496900  0.547500  1.0
  H  H165  1  0.935300  0.996900  0.547500  1.0
  H  H166  1  0.564700  0.003100  0.047500  1.0
  H  H167  1  0.064700  0.496900  0.952500  1.0
  H  H168  1  0.435300  0.503100  0.452500  1.0
  H  H169  1  0.126600  0.044100  0.610700  1.0
  H  H170  1  0.373400  0.955900  0.110700  1.0
  H  H171  1  0.873400  0.544100  0.889300  1.0
  H  H172  1  0.626600  0.455900  0.389300  1.0
  H  H173  1  0.873400  0.955900  0.389300  1.0
  H  H174  1  0.626600  0.044100  0.889300  1.0
  H  H175  1  0.126600  0.455900  0.110700  1.0
  H  H176  1  0.373400  0.544100  0.610700  1.0
  H  H177  1  0.433100  0.957400  0.478800  1.0
  H  H178  1  0.066900  0.042600  0.978800  1.0
  H  H179  1  0.566900  0.457400  0.021200  1.0
  H  H180  1  0.933100  0.542600  0.521200  1.0
  H  H181  1  0.566900  0.042600  0.521200  1.0
  H  H182  1  0.933100  0.957400  0.021200  1.0
  H  H183  1  0.433100  0.542600  0.978800  1.0
  H  H184  1  0.066900  0.457400  0.478800  1.0
  H  H185  1  0.425700  0.048000  0.486500  1.0
  H  H186  1  0.074300  0.952000  0.986500  1.0
  H  H187  1  0.574300  0.548000  0.013500  1.0
  H  H188  1  0.925700  0.452000  0.513500  1.0
  H  H189  1  0.574300  0.952000  0.513500  1.0
  H  H190  1  0.925700  0.048000  0.013500  1.0
  H  H191  1  0.425700  0.452000  0.986500  1.0
  H  H192  1  0.074300  0.548000  0.486500  1.0
  H  H193  1  0.514300  0.026900  0.416900  1.0
  H  H194  1  0.985700  0.973100  0.916900  1.0
  H  H195  1  0.485700  0.526900  0.083100  1.0
  H  H196  1  0.014300  0.473100  0.583100  1.0
  H  H197  1  0.485700  0.973100  0.583100  1.0
  H  H198  1  0.014300  0.026900  0.083100  1.0
  H  H199  1  0.514300  0.473100  0.916900  1.0
  H  H200  1  0.985700  0.526900  0.416900  1.0
  H  H201  1  0.455900  0.971100  0.386000  1.0
  H  H202  1  0.044100  0.028900  0.886000  1.0
  H  H203  1  0.544100  0.471100  0.114000  1.0
  H  H204  1  0.955900  0.528900  0.614000  1.0
  H  H205  1  0.544100  0.028900  0.614000  1.0
  H  H206  1  0.955900  0.971100  0.114000  1.0
  H  H207  1  0.455900  0.528900  0.886000  1.0
  H  H208  1  0.044100  0.471100  0.386000  1.0
  H  H209  1  0.327200  0.831400  0.453800  1.0
  H  H210  1  0.172800  0.168600  0.953800  1.0
  H  H211  1  0.672800  0.331400  0.046200  1.0
  H  H212  1  0.827200  0.668600  0.546200  1.0
  H  H213  1  0.672800  0.168600  0.546200  1.0
  H  H214  1  0.827200  0.831400  0.046200  1.0
  H  H215  1  0.327200  0.668600  0.953800  1.0
  H  H216  1  0.172800  0.331400  0.453800  1.0
  H  H217  1  0.250600  0.838900  0.418300  1.0
  H  H218  1  0.249400  0.161100  0.918300  1.0
  H  H219  1  0.749400  0.338900  0.081700  1.0
  H  H220  1  0.750600  0.661100  0.581700  1.0
  H  H221  1  0.749400  0.161100  0.581700  1.0
  H  H222  1  0.750600  0.838900  0.081700  1.0
  H  H223  1  0.250600  0.661100  0.918300  1.0
  H  H224  1  0.249400  0.338900  0.418300  1.0
  H  H225  1  0.144600  0.734900  0.432000  1.0
  H  H226  1  0.355400  0.265100  0.932000  1.0
  H  H227  1  0.855400  0.234900  0.068000  1.0
  H  H228  1  0.644600  0.765100  0.568000  1.0
  H  H229  1  0.855400  0.265100  0.568000  1.0
  H  H230  1  0.644600  0.734900  0.068000  1.0
  H  H231  1  0.144600  0.765100  0.932000  1.0
  H  H232  1  0.355400  0.234900  0.432000  1.0
  H  H233  1  0.163400  0.665100  0.472100  1.0
  H  H234  1  0.336600  0.334900  0.972100  1.0
  H  H235  1  0.836600  0.165100  0.027900  1.0
  H  H236  1  0.663400  0.834900  0.527900  1.0
  H  H237  1  0.836600  0.334900  0.527900  1.0
  H  H238  1  0.663400  0.665100  0.027900  1.0
  H  H239  1  0.163400  0.834900  0.972100  1.0
  H  H240  1  0.336600  0.165100  0.472100  1.0
  H  H241  1  0.951400  0.755600  0.715800  1.0
  H  H242  1  0.548600  0.244400  0.215800  1.0
  H  H243  1  0.048600  0.255600  0.784200  1.0
  H  H244  1  0.451400  0.744400  0.284200  1.0
  H  H245  1  0.048600  0.244400  0.284200  1.0
  H  H246  1  0.451400  0.755600  0.784200  1.0
  H  H247  1  0.951400  0.744400  0.215800  1.0
  H  H248  1  0.548600  0.255600  0.715800  1.0
  H  H249  1  0.881000  0.797600  0.686600  1.0
  H  H250  1  0.619000  0.202400  0.186600  1.0
  H  H251  1  0.119000  0.297600  0.813400  1.0
  H  H252  1  0.381000  0.702400  0.313400  1.0
  H  H253  1  0.119000  0.202400  0.313400  1.0
  H  H254  1  0.381000  0.797600  0.813400  1.0
  H  H255  1  0.881000  0.702400  0.186600  1.0
  H  H256  1  0.619000  0.297600  0.686600  1.0
  H  H257  1  0.902700  0.728300  0.607300  1.0
  H  H258  1  0.597300  0.271700  0.107300  1.0
  H  H259  1  0.097300  0.228300  0.892700  1.0
  H  H260  1  0.402700  0.771700  0.392700  1.0
  H  H261  1  0.097300  0.271700  0.392700  1.0
  H  H262  1  0.402700  0.728300  0.892700  1.0
  H  H263  1  0.902700  0.771700  0.107300  1.0
  H  H264  1  0.597300  0.228300  0.607300  1.0
  H  H265  1  0.892000  0.670200  0.656900  1.0
  H  H266  1  0.608000  0.329800  0.156900  1.0
  H  H267  1  0.108000  0.170200  0.843100  1.0
  H  H268  1  0.392000  0.829800  0.343100  1.0
  H  H269  1  0.108000  0.329800  0.343100  1.0
  H  H270  1  0.392000  0.670200  0.843100  1.0
  H  H271  1  0.892000  0.829800  0.156900  1.0
  H  H272  1  0.608000  0.170200  0.656900  1.0
  H  H273  1  0.438900  0.131600  0.397800  1.0
  H  H274  1  0.061100  0.868400  0.897800  1.0
  H  H275  1  0.561100  0.631600  0.102200  1.0
  H  H276  1  0.938900  0.368400  0.602200  1.0
  H  H277  1  0.561100  0.868400  0.602200  1.0
  H  H278  1  0.938900  0.131600  0.102200  1.0
  H  H279  1  0.438900  0.368400  0.897800  1.0
  H  H280  1  0.061100  0.631600  0.397800  1.0
  H  H281  1  0.453400  0.086700  0.342000  1.0
  H  H282  1  0.046600  0.913300  0.842000  1.0
  H  H283  1  0.546600  0.586700  0.158000  1.0
  H  H284  1  0.953400  0.413300  0.658000  1.0
  H  H285  1  0.546600  0.913300  0.658000  1.0
  H  H286  1  0.953400  0.086700  0.158000  1.0
  H  H287  1  0.453400  0.413300  0.842000  1.0
  H  H288  1  0.046600  0.586700  0.342000  1.0
  H  H289  1  0.276900  0.708600  0.425700  1.0
  H  H290  1  0.223100  0.291400  0.925700  1.0
  H  H291  1  0.723100  0.208600  0.074300  1.0
  H  H292  1  0.776900  0.791400  0.574300  1.0
  H  H293  1  0.723100  0.291400  0.574300  1.0
  H  H294  1  0.776900  0.708600  0.074300  1.0
  H  H295  1  0.276900  0.791400  0.925700  1.0
  H  H296  1  0.223100  0.208600  0.425700  1.0
  H  H297  1  0.286400  0.714900  0.490300  1.0
  H  H298  1  0.213600  0.285100  0.990300  1.0
  H  H299  1  0.713600  0.214900  0.009700  1.0
  H  H300  1  0.786400  0.785100  0.509700  1.0
  H  H301  1  0.713600  0.285100  0.509700  1.0
  H  H302  1  0.786400  0.714900  0.009700  1.0
  H  H303  1  0.286400  0.785100  0.990300  1.0
  H  H304  1  0.213600  0.214900  0.490300  1.0
  H  H305  1  0.998800  0.641100  0.599600  1.0
  H  H306  1  0.501200  0.358900  0.099600  1.0
  H  H307  1  0.001200  0.141100  0.900400  1.0
  H  H308  1  0.498800  0.858900  0.400400  1.0
  H  H309  1  0.001200  0.358900  0.400400  1.0
  H  H310  1  0.498800  0.641100  0.900400  1.0
  H  H311  1  0.998800  0.858900  0.099600  1.0
  H  H312  1  0.501200  0.141100  0.599600  1.0
  H  H313  1  0.020600  0.648600  0.662500  1.0
  H  H314  1  0.479400  0.351400  0.162500  1.0
  H  H315  1  0.979400  0.148600  0.837500  1.0
  H  H316  1  0.520600  0.851400  0.337500  1.0
  H  H317  1  0.979400  0.351400  0.337500  1.0
  H  H318  1  0.520600  0.648600  0.837500  1.0
  H  H319  1  0.020600  0.851400  0.162500  1.0
  H  H320  1  0.479400  0.148600  0.662500  1.0
  H  H321  1  0.250900  0.000000  0.194400  1.0
  H  H322  1  0.249100  0.000000  0.694400  1.0
  H  H323  1  0.749100  0.500000  0.305600  1.0
  H  H324  1  0.750900  0.500000  0.805600  1.0
  H  H325  1  0.749100  0.000000  0.805600  1.0
  H  H326  1  0.750900  0.000000  0.305600  1.0
  H  H327  1  0.250900  0.500000  0.694400  1.0
  H  H328  1  0.249100  0.500000  0.194400  1.0
  H  H329  1  0.305300  0.072200  0.206500  1.0
  H  H330  1  0.194700  0.927800  0.706500  1.0
  H  H331  1  0.694700  0.572200  0.293500  1.0
  H  H332  1  0.805300  0.427800  0.793500  1.0
  H  H333  1  0.694700  0.927800  0.793500  1.0
  H  H334  1  0.805300  0.072200  0.293500  1.0
  H  H335  1  0.305300  0.427800  0.706500  1.0
  H  H336  1  0.194700  0.572200  0.206500  1.0
  H  H337  1  0.320000  0.084000  0.341000  1.0
  H  H338  1  0.180000  0.916000  0.841000  1.0
  H  H339  1  0.680000  0.584000  0.159000  1.0
  H  H340  1  0.820000  0.416000  0.659000  1.0
  H  H341  1  0.680000  0.916000  0.659000  1.0
  H  H342  1  0.820000  0.084000  0.159000  1.0
  H  H343  1  0.320000  0.416000  0.841000  1.0
  H  H344  1  0.180000  0.584000  0.341000  1.0
  H  H345  1  0.093000  0.727000  0.601000  1.0
  H  H346  1  0.407000  0.273000  0.101000  1.0
  H  H347  1  0.907000  0.227000  0.899000  1.0
  H  H348  1  0.593000  0.773000  0.399000  1.0
  H  H349  1  0.907000  0.273000  0.399000  1.0
  H  H350  1  0.593000  0.727000  0.899000  1.0
  H  H351  1  0.093000  0.773000  0.101000  1.0
  H  H352  1  0.407000  0.227000  0.601000  1.0
  H  H353  1  0.099000  0.775000  0.512000  1.0
  H  H354  1  0.401000  0.225000  0.012000  1.0
  H  H355  1  0.901000  0.275000  0.988000  1.0
  H  H356  1  0.599000  0.725000  0.488000  1.0
  H  H357  1  0.901000  0.225000  0.488000  1.0
  H  H358  1  0.599000  0.775000  0.988000  1.0
  H  H359  1  0.099000  0.725000  0.012000  1.0
  H  H360  1  0.401000  0.275000  0.512000  1.0
  H  H361  1  0.293000  0.024000  0.294000  1.0
  H  H362  1  0.207000  0.976000  0.794000  1.0
  H  H363  1  0.707000  0.524000  0.206000  1.0
  H  H364  1  0.793000  0.476000  0.706000  1.0
  H  H365  1  0.707000  0.976000  0.706000  1.0
  H  H366  1  0.793000  0.024000  0.206000  1.0
  H  H367  1  0.293000  0.476000  0.794000  1.0
  H  H368  1  0.207000  0.524000  0.294000  1.0
  C  C369  1  0.561300  0.201600  0.462500  1
  C  C370  1  0.938700  0.798400  0.962500  1
  C  C371  1  0.438700  0.701600  0.037500  1
  C  C372  1  0.061300  0.298400  0.537500  1
  C  C373  1  0.438700  0.798400  0.537500  1
  C  C374  1  0.061300  0.201600  0.037500  1
  C  C375  1  0.561300  0.298400  0.962500  1
  C  C376  1  0.938700  0.701600  0.462500  1
  C  C377  1  0.550500  0.338800  0.463200  1
  C  C378  1  0.949500  0.661200  0.963200  1
  C  C379  1  0.449500  0.838800  0.036800  1
  C  C380  1  0.050500  0.161200  0.536800  1
  C  C381  1  0.449500  0.661200  0.536800  1
  C  C382  1  0.050500  0.338800  0.036800  1
  C  C383  1  0.550500  0.161200  0.963200  1
  C  C384  1  0.949500  0.838800  0.463200  1
  C  C385  1  0.641500  0.272300  0.399200  1
  C  C386  1  0.858500  0.727700  0.899200  1
  C  C387  1  0.358500  0.772300  0.100800  1
  C  C388  1  0.141500  0.227700  0.600800  1
  C  C389  1  0.358500  0.727700  0.600800  1
  C  C390  1  0.141500  0.272300  0.100800  1
  C  C391  1  0.641500  0.227700  0.899200  1
  C  C392  1  0.858500  0.772300  0.399200  1
  C  C393  1  0.776400  0.236000  0.700600  1
  C  C394  1  0.723600  0.764000  0.200600  1
  C  C395  1  0.223600  0.736000  0.799400  1
  C  C396  1  0.276400  0.264000  0.299400  1
  C  C397  1  0.223600  0.764000  0.299400  1
  C  C398  1  0.276400  0.236000  0.799400  1
  C  C399  1  0.776400  0.264000  0.200600  1
  C  C400  1  0.723600  0.736000  0.700600  1
  C  C401  1  0.905500  0.250000  0.717900  1
  C  C402  1  0.594500  0.750000  0.217900  1
  C  C403  1  0.094500  0.750000  0.782100  1
  C  C404  1  0.405500  0.250000  0.282100  1
  C  C405  1  0.094500  0.750000  0.282100  1
  C  C406  1  0.405500  0.250000  0.782100  1
  C  C407  1  0.905500  0.250000  0.217900  1
  C  C408  1  0.594500  0.750000  0.717900  1
  C  C409  1  0.834800  0.144700  0.758200  1
  C  C410  1  0.665200  0.855300  0.258200  1
  C  C411  1  0.165200  0.644700  0.741800  1
  C  C412  1  0.334800  0.355300  0.241800  1
  C  C413  1  0.165200  0.855300  0.241800  1
  C  C414  1  0.334800  0.144700  0.741800  1
  C  C415  1  0.834800  0.355300  0.258200  1
  C  C416  1  0.665200  0.644700  0.758200  1
  C  C417  1  0.176300  0.042700  0.296200  1.0
  C  C418  1  0.323700  0.957300  0.796200  1.0
  C  C419  1  0.823700  0.542700  0.203800  1.0
  C  C420  1  0.676300  0.457300  0.703800  1.0
  C  C421  1  0.823700  0.957300  0.703800  1.0
  C  C422  1  0.676300  0.042700  0.203800  1.0
  C  C423  1  0.176300  0.457300  0.796200  1.0
  C  C424  1  0.323700  0.542700  0.296200  1.0
  C  C425  1  0.171100  0.031600  0.357100  1.0
  C  C426  1  0.328900  0.968400  0.857100  1.0
  C  C427  1  0.828900  0.531600  0.142900  1.0
  C  C428  1  0.671100  0.468400  0.642900  1.0
  C  C429  1  0.828900  0.968400  0.642900  1.0
  C  C430  1  0.671100  0.031600  0.142900  1.0
  C  C431  1  0.171100  0.468400  0.857100  1.0
  C  C432  1  0.328900  0.531600  0.357100  1.0
  C  C433  1  0.113400  0.068800  0.213800  1.0
  C  C434  1  0.386600  0.931200  0.713800  1.0
  C  C435  1  0.886600  0.568800  0.286200  1.0
  C  C436  1  0.613400  0.431200  0.786200  1.0
  C  C437  1  0.886600  0.931200  0.786200  1.0
  C  C438  1  0.613400  0.068800  0.286200  1.0
  C  C439  1  0.113400  0.431200  0.713800  1.0
  C  C440  1  0.386600  0.568800  0.213800  1.0
  C  C441  1  0.140500  0.881700  0.564200  1.0
  C  C442  1  0.359500  0.118300  0.064200  1.0
  C  C443  1  0.859500  0.381700  0.935800  1.0
  C  C444  1  0.640500  0.618300  0.435800  1.0
  C  C445  1  0.859500  0.118300  0.435800  1.0
  C  C446  1  0.640500  0.881700  0.935800  1.0
  C  C447  1  0.140500  0.618300  0.064200  1.0
  C  C448  1  0.359500  0.381700  0.564200  1.0
  C  C449  1  0.191800  0.101900  0.195400  1.0
  C  C450  1  0.308200  0.898100  0.695400  1.0
  C  C451  1  0.808200  0.601900  0.304600  1.0
  C  C452  1  0.691800  0.398100  0.804600  1.0
  C  C453  1  0.808200  0.898100  0.804600  1.0
  C  C454  1  0.691800  0.101900  0.304600  1.0
  C  C455  1  0.191800  0.398100  0.695400  1.0
  C  C456  1  0.308200  0.601900  0.195400  1.0
  C  C457  1  0.106900  0.010900  0.428700  1.0
  C  C458  1  0.393100  0.989100  0.928700  1.0
  C  C459  1  0.893100  0.510900  0.071300  1.0
  C  C460  1  0.606900  0.489100  0.571300  1.0
  C  C461  1  0.893100  0.989100  0.571300  1.0
  C  C462  1  0.606900  0.010900  0.071300  1.0
  C  C463  1  0.106900  0.489100  0.928700  1.0
  C  C464  1  0.393100  0.510900  0.428700  1.0
  C  C465  1  0.122600  0.991300  0.602200  1.0
  C  C466  1  0.377400  0.008700  0.102200  1.0
  C  C467  1  0.877400  0.491300  0.897800  1.0
  C  C468  1  0.622600  0.508700  0.397800  1.0
  C  C469  1  0.877400  0.008700  0.397800  1.0
  C  C470  1  0.622600  0.991300  0.897800  1.0
  C  C471  1  0.122600  0.508700  0.102200  1.0
  C  C472  1  0.377400  0.491300  0.602200  1.0
  C  C473  1  0.415000  0.005100  0.461400  1.0
  C  C474  1  0.085000  0.994900  0.961400  1.0
  C  C475  1  0.585000  0.505100  0.038600  1.0
  C  C476  1  0.915000  0.494900  0.538600  1.0
  C  C477  1  0.585000  0.994900  0.538600  1.0
  C  C478  1  0.915000  0.005100  0.038600  1.0
  C  C479  1  0.415000  0.494900  0.961400  1.0
  C  C480  1  0.085000  0.505100  0.461400  1.0
  C  C481  1  0.174800  0.834700  0.521600  1.0
  C  C482  1  0.325200  0.165300  0.021600  1.0
  C  C483  1  0.825200  0.334700  0.978400  1.0
  C  C484  1  0.674800  0.665300  0.478400  1.0
  C  C485  1  0.825200  0.165300  0.478400  1.0
  C  C486  1  0.674800  0.834700  0.978400  1.0
  C  C487  1  0.174800  0.665300  0.021600  1.0
  C  C488  1  0.325200  0.334700  0.521600  1.0
  C  C489  1  0.222500  0.026600  0.399000  1.0
  C  C490  1  0.277500  0.973400  0.899000  1.0
  C  C491  1  0.777500  0.526600  0.101000  1.0
  C  C492  1  0.722500  0.473400  0.601000  1.0
  C  C493  1  0.777500  0.973400  0.601000  1.0
  C  C494  1  0.722500  0.026600  0.101000  1.0
  C  C495  1  0.222500  0.473400  0.899000  1.0
  C  C496  1  0.277500  0.526600  0.399000  1.0
  C  C497  1  0.038900  0.811200  0.629300  1.0
  C  C498  1  0.461100  0.188800  0.129300  1.0
  C  C499  1  0.961100  0.311200  0.870700  1.0
  C  C500  1  0.538900  0.688800  0.370700  1.0
  C  C501  1  0.961100  0.188800  0.370700  1.0
  C  C502  1  0.538900  0.811200  0.870700  1.0
  C  C503  1  0.038900  0.688800  0.129300  1.0
  C  C504  1  0.461100  0.311200  0.629300  1.0
  C  C505  1  0.459300  0.017700  0.408600  1.0
  C  C506  1  0.040700  0.982300  0.908600  1.0
  C  C507  1  0.540700  0.517700  0.091400  1.0
  C  C508  1  0.959300  0.482300  0.591400  1.0
  C  C509  1  0.540700  0.982300  0.591400  1.0
  C  C510  1  0.959300  0.017700  0.091400  1.0
  C  C511  1  0.459300  0.482300  0.908600  1.0
  C  C512  1  0.040700  0.517700  0.408600  1.0
  C  C513  1  0.271200  0.821000  0.453400  1.0
  C  C514  1  0.228800  0.179000  0.953400  1.0
  C  C515  1  0.728800  0.321000  0.046600  1.0
  C  C516  1  0.771200  0.679000  0.546600  1.0
  C  C517  1  0.728800  0.179000  0.546600  1.0
  C  C518  1  0.771200  0.821000  0.046600  1.0
  C  C519  1  0.271200  0.679000  0.953400  1.0
  C  C520  1  0.228800  0.321000  0.453400  1.0
  C  C521  1  0.172300  0.720200  0.465500  1.0
  C  C522  1  0.327700  0.279800  0.965500  1.0
  C  C523  1  0.827700  0.220200  0.034500  1.0
  C  C524  1  0.672300  0.779800  0.534500  1.0
  C  C525  1  0.827700  0.279800  0.534500  1.0
  C  C526  1  0.672300  0.720200  0.034500  1.0
  C  C527  1  0.172300  0.779800  0.965500  1.0
  C  C528  1  0.327700  0.220200  0.465500  1.0
  C  C529  1  0.932700  0.775400  0.680600  1.0
  C  C530  1  0.567300  0.224600  0.180600  1.0
  C  C531  1  0.067300  0.275400  0.819400  1.0
  C  C532  1  0.432700  0.724600  0.319400  1.0
  C  C533  1  0.067300  0.224600  0.319400  1.0
  C  C534  1  0.432700  0.775400  0.819400  1.0
  C  C535  1  0.932700  0.724600  0.180600  1.0
  C  C536  1  0.567300  0.275400  0.680600  1.0
  C  C537  1  0.926000  0.710000  0.641500  1.0
  C  C538  1  0.574000  0.290000  0.141500  1.0
  C  C539  1  0.074000  0.210000  0.858500  1.0
  C  C540  1  0.426000  0.790000  0.358500  1.0
  C  C541  1  0.074000  0.290000  0.358500  1.0
  C  C542  1  0.426000  0.710000  0.858500  1.0
  C  C543  1  0.926000  0.790000  0.141500  1.0
  C  C544  1  0.574000  0.210000  0.641500  1.0
  C  C545  1  0.428200  0.083600  0.377900  1.0
  C  C546  1  0.071800  0.916400  0.877900  1.0
  C  C547  1  0.571800  0.583600  0.122100  1.0
  C  C548  1  0.928200  0.416400  0.622100  1.0
  C  C549  1  0.571800  0.916400  0.622100  1.0
  C  C550  1  0.928200  0.083600  0.122100  1.0
  C  C551  1  0.428200  0.416400  0.877900  1.0
  C  C552  1  0.071800  0.583600  0.377900  1.0
  C  C553  1  0.257900  0.735000  0.458600  1.0
  C  C554  1  0.242100  0.265000  0.958600  1.0
  C  C555  1  0.742100  0.235000  0.041400  1.0
  C  C556  1  0.757900  0.765000  0.541400  1.0
  C  C557  1  0.742100  0.265000  0.541400  1.0
  C  C558  1  0.757900  0.735000  0.041400  1.0
  C  C559  1  0.257900  0.765000  0.958600  1.0
  C  C560  1  0.242100  0.235000  0.458600  1.0
  C  C561  1  0.305300  0.033400  0.408100  1.0
  C  C562  1  0.194700  0.966600  0.908100  1.0
  C  C563  1  0.694700  0.533400  0.091900  1.0
  C  C564  1  0.805300  0.466600  0.591900  1.0
  C  C565  1  0.694700  0.966600  0.591900  1.0
  C  C566  1  0.805300  0.033400  0.091900  1.0
  C  C567  1  0.305300  0.466600  0.908100  1.0
  C  C568  1  0.194700  0.533400  0.408100  1.0
  C  C569  1  0.002300  0.677200  0.630400  1.0
  C  C570  1  0.497700  0.322800  0.130400  1.0
  C  C571  1  0.997700  0.177200  0.869600  1.0
  C  C572  1  0.502300  0.822800  0.369600  1.0
  C  C573  1  0.997700  0.322800  0.369600  1.0
  C  C574  1  0.502300  0.677200  0.869600  1.0
  C  C575  1  0.002300  0.822800  0.130400  1.0
  C  C576  1  0.497700  0.177200  0.630400  1.0
  C  C577  1  0.254400  0.049200  0.214100  1.0
  C  C578  1  0.245600  0.950800  0.714100  1.0
  C  C579  1  0.745600  0.549200  0.285900  1.0
  C  C580  1  0.754400  0.450800  0.785900  1.0
  C  C581  1  0.745600  0.950800  0.785900  1.0
  C  C582  1  0.754400  0.049200  0.285900  1.0
  C  C583  1  0.254400  0.450800  0.714100  1.0
  C  C584  1  0.245600  0.549200  0.214100  1.0
  C  C585  1  0.086300  0.872100  0.605500  1.0
  C  C586  1  0.413700  0.127900  0.105500  1.0
  C  C587  1  0.913700  0.372100  0.894500  1.0
  C  C588  1  0.586300  0.627900  0.394500  1.0
  C  C589  1  0.913700  0.127900  0.394500  1.0
  C  C590  1  0.586300  0.872100  0.894500  1.0
  C  C591  1  0.086300  0.627900  0.105500  1.0
  C  C592  1  0.413700  0.372100  0.605500  1.0
  N  N593  1  0.582500  0.267500  0.441600  1
  N  N594  1  0.917500  0.732500  0.941600  1
  N  N595  1  0.417500  0.767500  0.058400  1
  N  N596  1  0.082500  0.232500  0.558400  1
  N  N597  1  0.417500  0.732500  0.558400  1
  N  N598  1  0.082500  0.267500  0.058400  1
  N  N599  1  0.582500  0.232500  0.941600  1
  N  N600  1  0.917500  0.767500  0.441600  1
  N  N601  1  0.832800  0.209300  0.726500  1
  N  N602  1  0.667200  0.790700  0.226500  1
  N  N603  1  0.167200  0.709300  0.773500  1
  N  N604  1  0.332800  0.290700  0.273500  1
  N  N605  1  0.167200  0.790700  0.273500  1
  N  N606  1  0.332800  0.209300  0.773500  1
  N  N607  1  0.832800  0.290700  0.226500  1
  N  N608  1  0.667200  0.709300  0.726500  1
  N  N609  1  0.112200  0.055600  0.273400  1.0
  N  N610  1  0.387800  0.944400  0.773400  1.0
  N  N611  1  0.887800  0.555600  0.226600  1.0
  N  N612  1  0.612200  0.444400  0.726600  1.0
  N  N613  1  0.887800  0.944400  0.726600  1.0
  N  N614  1  0.612200  0.055600  0.226600  1.0
  N  N615  1  0.112200  0.444400  0.773400  1.0
  N  N616  1  0.387800  0.555600  0.273400  1.0
  N  N617  1  0.075900  0.943300  0.627900  1.0
  N  N618  1  0.424100  0.056700  0.127900  1.0
  N  N619  1  0.924100  0.443300  0.872100  1.0
  N  N620  1  0.575900  0.556700  0.372100  1.0
  N  N621  1  0.924100  0.056700  0.372100  1.0
  N  N622  1  0.575900  0.943300  0.872100  1.0
  N  N623  1  0.075900  0.556700  0.127900  1.0
  N  N624  1  0.424100  0.443300  0.627900  1.0
  N  N625  1  0.163300  0.957200  0.562900  1.0
  N  N626  1  0.336700  0.042800  0.062900  1.0
  N  N627  1  0.836700  0.457200  0.937100  1.0
  N  N628  1  0.663300  0.542800  0.437100  1.0
  N  N629  1  0.836700  0.042800  0.437100  1.0
  N  N630  1  0.663300  0.957200  0.937100  1.0
  N  N631  1  0.163300  0.542800  0.062900  1.0
  N  N632  1  0.336700  0.457200  0.562900  1.0
  N  N633  1  0.331600  0.000100  0.451700  1.0
  N  N634  1  0.168400  0.999900  0.951700  1.0
  N  N635  1  0.668400  0.500100  0.048300  1.0
  N  N636  1  0.831600  0.499900  0.548300  1.0
  N  N637  1  0.668400  0.999900  0.548300  1.0
  N  N638  1  0.831600  0.000100  0.048300  1.0
  N  N639  1  0.331600  0.499900  0.951700  1.0
  N  N640  1  0.168400  0.500100  0.451700  1.0
  N  N641  1  0.345700  0.073800  0.371300  1.0
  N  N642  1  0.154300  0.926200  0.871300  1.0
  N  N643  1  0.654300  0.573800  0.128700  1.0
  N  N644  1  0.845700  0.426200  0.628700  1.0
  N  N645  1  0.654300  0.926200  0.628700  1.0
  N  N646  1  0.845700  0.073800  0.128700  1.0
  N  N647  1  0.345700  0.426200  0.871300  1.0
  N  N648  1  0.154300  0.573800  0.371300  1.0
  N  N649  1  0.097700  0.021400  0.375800  1.0
  N  N650  1  0.402300  0.978600  0.875800  1.0
  N  N651  1  0.902300  0.521400  0.124200  1.0
  N  N652  1  0.597700  0.478600  0.624200  1.0
  N  N653  1  0.902300  0.978600  0.624200  1.0
  N  N654  1  0.597700  0.021400  0.124200  1.0
  N  N655  1  0.097700  0.478600  0.875800  1.0
  N  N656  1  0.402300  0.521400  0.375800  1.0
  N  N657  1  0.234000  0.864000  0.497700  1.0
  N  N658  1  0.266000  0.136000  0.997700  1.0
  N  N659  1  0.766000  0.364000  0.002300  1.0
  N  N660  1  0.734000  0.636000  0.502300  1.0
  N  N661  1  0.766000  0.136000  0.502300  1.0
  N  N662  1  0.734000  0.864000  0.002300  1.0
  N  N663  1  0.234000  0.636000  0.997700  1.0
  N  N664  1  0.266000  0.364000  0.497700  1.0
  N  N665  1  0.983900  0.834800  0.662500  1.0
  N  N666  1  0.516100  0.165200  0.162500  1.0
  N  N667  1  0.016100  0.334800  0.837500  1.0
  N  N668  1  0.483900  0.665200  0.337500  1.0
  N  N669  1  0.016100  0.165200  0.337500  1.0
  N  N670  1  0.483900  0.834800  0.837500  1.0
  N  N671  1  0.983900  0.665200  0.162500  1.0
  N  N672  1  0.516100  0.334800  0.662500  1.0
  N  N673  1  0.179900  0.012100  0.445700  1.0
  N  N674  1  0.320100  0.987900  0.945700  1.0
  N  N675  1  0.820100  0.512100  0.054300  1.0
  N  N676  1  0.679900  0.487900  0.554300  1.0
  N  N677  1  0.820100  0.987900  0.554300  1.0
  N  N678  1  0.679900  0.012100  0.054300  1.0
  N  N679  1  0.179900  0.487900  0.945700  1.0
  N  N680  1  0.320100  0.512100  0.445700  1.0
  N  N681  1  0.318400  0.053800  0.580700  1.0
  N  N682  1  0.181600  0.946200  0.080700  1.0
  N  N683  1  0.681600  0.553800  0.919300  1.0
  N  N684  1  0.818400  0.446200  0.419300  1.0
  N  N685  1  0.681600  0.946200  0.419300  1.0
  N  N686  1  0.818400  0.053800  0.919300  1.0
  N  N687  1  0.318400  0.446200  0.080700  1.0
  N  N688  1  0.181600  0.553800  0.580700  1.0
  N  N689  1  0.935200  0.971300  0.255900  1.0
  N  N690  1  0.564800  0.028700  0.755900  1.0
  N  N691  1  0.064800  0.471300  0.244100  1.0
  N  N692  1  0.435200  0.528700  0.744100  1.0
  N  N693  1  0.064800  0.028700  0.744100  1.0
  N  N694  1  0.435200  0.971300  0.244100  1.0
  N  N695  1  0.935200  0.528700  0.755900  1.0
  N  N696  1  0.564800  0.471300  0.255900  1.0
  N  N697  1  0.143200  0.764800  0.511100  1.0
  N  N698  1  0.356800  0.235200  0.011100  1.0
  N  N699  1  0.856800  0.264800  0.988900  1.0
  N  N700  1  0.643200  0.735200  0.488900  1.0
  N  N701  1  0.856800  0.235200  0.488900  1.0
  N  N702  1  0.643200  0.764800  0.988900  1.0
  N  N703  1  0.143200  0.735200  0.011100  1.0
  N  N704  1  0.356800  0.264800  0.511100  1.0
  N  N705  1  0.245300  0.036200  0.273100  1.0
  N  N706  1  0.254700  0.963800  0.773100  1.0
  N  N707  1  0.754700  0.536200  0.226900  1.0
  N  N708  1  0.745300  0.463800  0.726900  1.0
  N  N709  1  0.754700  0.963800  0.726900  1.0
  N  N710  1  0.745300  0.036200  0.226900  1.0
  N  N711  1  0.245300  0.463800  0.773100  1.0
  N  N712  1  0.254700  0.536200  0.273100  1.0
  N  N713  1  0.057000  0.738400  0.617300  1.0
  N  N714  1  0.443000  0.261600  0.117300  1.0
  N  N715  1  0.943000  0.238400  0.882700  1.0
  N  N716  1  0.557000  0.761600  0.382700  1.0
  N  N717  1  0.943000  0.261600  0.382700  1.0
  N  N718  1  0.557000  0.738400  0.882700  1.0
  N  N719  1  0.057000  0.761600  0.117300  1.0
  N  N720  1  0.443000  0.238400  0.617300  1.0
  O  O721  1  0.510700  0.192400  0.497600  1
  O  O722  1  0.989300  0.807600  0.997600  1
  O  O723  1  0.489300  0.692400  0.002400  1
  O  O724  1  0.010700  0.307600  0.502400  1
  O  O725  1  0.489300  0.807600  0.502400  1
  O  O726  1  0.010700  0.192400  0.002400  1
  O  O727  1  0.510700  0.307600  0.997600  1
  O  O728  1  0.989300  0.692400  0.497600  1
  O  O729  1  0.769300  0.293700  0.672800  1
  O  O730  1  0.730700  0.706300  0.172800  1
  O  O731  1  0.230700  0.793700  0.827200  1
  O  O732  1  0.269300  0.206300  0.327200  1
  O  O733  1  0.230700  0.706300  0.327200  1
  O  O734  1  0.269300  0.293700  0.827200  1
  O  O735  1  0.769300  0.206300  0.172800  1
  O  O736  1  0.730700  0.793700  0.672800  1
  O  O737  1  0.330800  0.983000  0.573300  1.0
  O  O738  1  0.169200  0.017000  0.073300  1.0
  O  O739  1  0.669200  0.483000  0.926700  1.0
  O  O740  1  0.830800  0.517000  0.426700  1.0
  O  O741  1  0.669200  0.017000  0.426700  1.0
  O  O742  1  0.830800  0.983000  0.926700  1.0
  O  O743  1  0.330800  0.517000  0.073300  1.0
  O  O744  1  0.169200  0.483000  0.573300  1.0
  O  O745  1  0.270600  0.085700  0.548700  1.0
  O  O746  1  0.229400  0.914300  0.048700  1.0
  O  O747  1  0.729400  0.585700  0.951300  1.0
  O  O748  1  0.770600  0.414300  0.451300  1.0
  O  O749  1  0.729400  0.914300  0.451300  1.0
  O  O750  1  0.770600  0.085700  0.951300  1.0
  O  O751  1  0.270600  0.414300  0.048700  1.0
  O  O752  1  0.229400  0.585700  0.548700  1.0
  O  O753  1  0.349200  0.090300  0.617400  1.0
  O  O754  1  0.150800  0.909700  0.117400  1.0
  O  O755  1  0.650800  0.590300  0.882600  1.0
  O  O756  1  0.849200  0.409700  0.382600  1.0
  O  O757  1  0.650800  0.909700  0.382600  1.0
  O  O758  1  0.849200  0.090300  0.882600  1.0
  O  O759  1  0.349200  0.409700  0.117400  1.0
  O  O760  1  0.150800  0.590300  0.617400  1.0
  O  O761  1  0.979500  0.939300  0.290800  1.0
  O  O762  1  0.520500  0.060700  0.790800  1.0
  O  O763  1  0.020500  0.439300  0.209200  1.0
  O  O764  1  0.479500  0.560700  0.709200  1.0
  O  O765  1  0.020500  0.060700  0.709200  1.0
  O  O766  1  0.479500  0.939300  0.209200  1.0
  O  O767  1  0.979500  0.560700  0.790800  1.0
  O  O768  1  0.520500  0.439300  0.290800  1.0
  O  O769  1  0.938400  0.043900  0.252300  1.0
  O  O770  1  0.561600  0.956100  0.752300  1.0
  O  O771  1  0.061600  0.543900  0.247700  1.0
  O  O772  1  0.438400  0.456100  0.747700  1.0
  O  O773  1  0.061600  0.956100  0.747700  1.0
  O  O774  1  0.438400  0.043900  0.247700  1.0
  O  O775  1  0.938400  0.456100  0.752300  1.0
  O  O776  1  0.561600  0.543900  0.252300  1.0
  O  O777  1  0.892000  0.933500  0.227400  1.0
  O  O778  1  0.608000  0.066500  0.727400  1.0
  O  O779  1  0.108000  0.433500  0.272600  1.0
  O  O780  1  0.392000  0.566500  0.772600  1.0
  O  O781  1  0.108000  0.066500  0.772600  1.0
  O  O782  1  0.392000  0.933500  0.272600  1.0
  O  O783  1  0.892000  0.566500  0.727400  1.0
  O  O784  1  0.608000  0.433500  0.227400  1.0
