# generated using pymatgen
data_H45PdC69S6N5O34
_symmetry_space_group_name_H-M   'P 1'
_cell_length_a   11.86720000
_cell_length_b   17.34660000
_cell_length_c   18.14140000
_cell_angle_alpha   85.44200000
_cell_angle_beta   89.56500000
_cell_angle_gamma   80.52900000
_symmetry_Int_Tables_number   1
_chemical_formula_structural   H45PdC69S6N5O34
_chemical_formula_sum   'H90 Pd2 C138 S12 N10 O68'
_cell_volume   3671.89634857
_cell_formula_units_Z   2
loop_
 _symmetry_equiv_pos_site_id
 _symmetry_equiv_pos_as_xyz
  1  'x, y, z'
loop_
 _atom_site_type_symbol
 _atom_site_label
 _atom_site_symmetry_multiplicity
 _atom_site_fract_x
 _atom_site_fract_y
 _atom_site_fract_z
 _atom_site_occupancy
  H  H1  1  0.894600  0.124400  0.629800  1
  H  H2  1  0.105400  0.875600  0.370200  1
  H  H3  1  0.788600  0.156000  0.524100  1
  H  H4  1  0.211400  0.844000  0.475900  1
  H  H5  1  0.824600  0.083400  0.424600  1
  H  H6  1  0.175400  0.916600  0.575400  1
  H  H7  1  0.492300  0.789100  0.934900  1.0
  H  H8  1  0.507700  0.210900  0.065100  1.0
  H  H9  1  0.473300  0.640600  0.785300  1.0
  H  H10  1  0.526700  0.359400  0.214700  1.0
  H  H11  1  0.240500  0.285600  0.906500  1.0
  H  H12  1  0.759500  0.714400  0.093500  1.0
  H  H13  1  0.396100  0.718000  0.018400  1.0
  H  H14  1  0.603900  0.282000  0.981600  1.0
  H  H15  1  0.285400  0.346600  0.689400  1.0
  H  H16  1  0.714600  0.653400  0.310600  1.0
  H  H17  1  0.333800  0.606000  0.984500  1.0
  H  H18  1  0.666200  0.394000  0.015500  1.0
  H  H19  1  0.300000  0.079300  0.228700  1.0
  H  H20  1  0.700000  0.920700  0.771300  1.0
  H  H21  1  0.179300  0.650000  0.856500  1.0
  H  H22  1  0.820700  0.350000  0.143500  1.0
  H  H23  1  0.079200  0.410500  0.804600  1.0
  H  H24  1  0.920800  0.589500  0.195400  1.0
  H  H25  1  0.663200  0.294600  0.821100  1.0
  H  H26  1  0.336800  0.705400  0.178900  1.0
  H  H27  1  0.346100  0.229100  0.372100  1.0
  H  H28  1  0.653900  0.770900  0.627900  1.0
  H  H29  1  0.993900  0.641200  0.831900  1.0
  H  H30  1  0.006100  0.358800  0.168100  1.0
  H  H31  1  0.942500  0.520900  0.809500  1.0
  H  H32  1  0.057500  0.479100  0.190500  1.0
  H  H33  1  0.425200  0.172000  0.710200  1.0
  H  H34  1  0.574800  0.828000  0.289800  1.0
  H  H35  1  0.591300  0.518300  0.870600  1.0
  H  H36  1  0.408700  0.481700  0.129400  1.0
  H  H37  1  0.721400  0.410300  0.848800  1.0
  H  H38  1  0.278600  0.589700  0.151200  1.0
  H  H39  1  0.057400  0.226200  0.419000  1.0
  H  H40  1  0.942600  0.773800  0.581000  1.0
  H  H41  1  0.472800  0.287000  0.809800  1.0
  H  H42  1  0.527200  0.713000  0.190200  1.0
  H  H43  1  0.459200  0.090100  0.471600  1.0
  H  H44  1  0.540800  0.909900  0.528400  1.0
  H  H45  1  0.608800  0.950500  0.171700  1.0
  H  H46  1  0.391200  0.049500  0.828300  1.0
  H  H47  1  0.692700  0.972700  0.229900  1.0
  H  H48  1  0.307300  0.027300  0.770100  1.0
  H  H49  1  0.706700  0.996900  0.145600  1.0
  H  H50  1  0.293300  0.003100  0.854400  1.0
  H  H51  1  0.171200  0.144700  0.752700  1.0
  H  H52  1  0.828800  0.855300  0.247300  1.0
  H  H53  1  0.177400  0.052400  0.434000  1.0
  H  H54  1  0.822600  0.947600  0.566000  1.0
  H  H55  1  0.200600  0.011700  0.314700  1.0
  H  H56  1  0.799400  0.988300  0.685300  1.0
  H  H57  1  0.608500  0.059300  0.552200  1.0
  H  H58  1  0.391500  0.940700  0.447800  1.0
  H  H59  1  0.042200  0.306400  0.659700  1.0
  H  H60  1  0.957800  0.693600  0.340300  1.0
  H  H61  1  0.181000  0.170800  0.875800  1.0
  H  H62  1  0.819000  0.829200  0.124200  1.0
  H  H63  1  0.890400  0.341700  0.580600  1.0
  H  H64  1  0.109600  0.658300  0.419400  1.0
  H  H65  1  0.896800  0.302200  0.460000  1.0
  H  H66  1  0.103200  0.697800  0.540000  1.0
  H  H67  1  0.806100  0.465300  0.952700  1.0
  H  H68  1  0.193900  0.534700  0.047300  1.0
  H  H69  1  0.080300  0.299400  0.000500  1.0
  H  H70  1  0.919700  0.700600  0.999500  1.0
  H  H71  1  0.890300  0.336400  0.959100  1.0
  H  H72  1  0.109700  0.663600  0.040900  1.0
  H  H73  1  0.443300  0.147800  0.944800  1.0
  H  H74  1  0.556700  0.852200  0.055200  1.0
  H  H75  1  0.259700  0.052900  0.103500  1.0
  H  H76  1  0.740300  0.947100  0.896500  1.0
  H  H77  1  0.289900  0.158800  0.022600  1.0
  H  H78  1  0.710100  0.841200  0.977400  1.0
  H  H79  1  0.926400  0.443200  0.328700  1.0
  H  H80  1  0.073600  0.556800  0.671300  1.0
  H  H81  1  0.110800  0.419600  0.337700  1.0
  H  H82  1  0.889200  0.580400  0.662300  1.0
  H  H83  1  0.198100  0.448400  0.442500  1.0
  H  H84  1  0.801900  0.551600  0.557500  1.0
  H  H85  1  0.973100  0.080900  0.619300  1.0
  H  H86  1  0.026900  0.919100  0.380700  1.0
  H  H87  1  0.812200  0.153000  0.563400  1.0
  H  H88  1  0.187800  0.847000  0.436600  1.0
  H  H89  1  0.765600  0.133000  0.445200  1.0
  H  H90  1  0.234400  0.867000  0.554800  1.0
  Pd  Pd91  1  0.418780  0.218650  0.219110  1.0
  Pd  Pd92  1  0.581220  0.781350  0.780890  1.0
  C  C93  1  0.005900  0.037800  0.592400  1
  C  C94  1  0.994100  0.962200  0.407600  1
  C  C95  1  0.913700  0.096200  0.588800  1
  C  C96  1  0.086300  0.903800  0.411200  1
  C  C97  1  0.849000  0.114000  0.526000  1
  C  C98  1  0.151000  0.886000  0.474000  1
  C  C99  1  0.871000  0.071200  0.466300  1
  C  C100  1  0.129000  0.928800  0.533700  1
  C  C101  1  0.960000  0.011000  0.466500  1
  C  C102  1  0.040000  0.989000  0.533500  1
  C  C103  1  0.468600  0.743800  0.921200  1.0
  C  C104  1  0.531400  0.256200  0.078800  1.0
  C  C105  1  0.363700  0.538300  0.856800  1.0
  C  C106  1  0.636300  0.461700  0.143200  1.0
  C  C107  1  0.413000  0.400700  0.829200  1.0
  C  C108  1  0.587000  0.599300  0.170800  1.0
  C  C109  1  0.247400  0.535400  0.844200  1.0
  C  C110  1  0.752600  0.464600  0.155800  1.0
  C  C111  1  0.252600  0.172200  0.492200  1.0
  C  C112  1  0.747400  0.827800  0.507800  1.0
  C  C113  1  0.215200  0.463200  0.826100  1.0
  C  C114  1  0.784800  0.536800  0.173900  1.0
  C  C115  1  0.457000  0.656000  0.832700  1.0
  C  C116  1  0.543000  0.344000  0.167300  1.0
  C  C117  1  0.236400  0.274700  0.857300  1.0
  C  C118  1  0.763600  0.725300  0.142700  1.0
  C  C119  1  0.410600  0.701600  0.971200  1.0
  C  C120  1  0.589400  0.298400  0.028800  1.0
  C  C121  1  0.345800  0.152200  0.539900  1.0
  C  C122  1  0.654200  0.847800  0.460100  1.0
  C  C123  1  0.447100  0.472300  0.848500  1.0
  C  C124  1  0.552900  0.527700  0.151500  1.0
  C  C125  1  0.264500  0.311500  0.726400  1.0
  C  C126  1  0.735500  0.688500  0.273600  1.0
  C  C127  1  0.264800  0.326200  0.801300  1.0
  C  C128  1  0.735200  0.673800  0.198700  1.0
  C  C129  1  0.373800  0.634800  0.951200  1.0
  C  C130  1  0.626200  0.365200  0.048800  1.0
  C  C131  1  0.289300  0.096100  0.276000  1.0
  C  C132  1  0.710700  0.903900  0.724000  1.0
  C  C133  1  0.397300  0.610800  0.880400  1.0
  C  C134  1  0.602700  0.389200  0.119600  1.0
  C  C135  1  0.151600  0.217900  0.514900  1.0
  C  C136  1  0.848400  0.782100  0.485100  1.0
  C  C137  1  0.260600  0.145300  0.415800  1.0
  C  C138  1  0.739400  0.854700  0.584200  1.0
  C  C139  1  0.160300  0.602200  0.845800  1.0
  C  C140  1  0.839700  0.397800  0.154200  1.0
  C  C141  1  0.100300  0.458000  0.814300  1.0
  C  C142  1  0.899700  0.542000  0.185700  1.0
  C  C143  1  0.231500  0.241700  0.710800  1.0
  C  C144  1  0.768500  0.758300  0.289200  1.0
  C  C145  1  0.608600  0.338500  0.827800  1.0
  C  C146  1  0.391400  0.661500  0.172200  1.0
  C  C147  1  0.317300  0.184500  0.361200  1.0
  C  C148  1  0.682700  0.815500  0.638800  1.0
  C  C149  1  0.049800  0.596800  0.831800  1.0
  C  C150  1  0.950200  0.403200  0.168200  1.0
  C  C151  1  0.338200  0.176800  0.613400  1.0
  C  C152  1  0.661800  0.823200  0.386600  1.0
  C  C153  1  0.019000  0.524100  0.817200  1.0
  C  C154  1  0.981000  0.475900  0.182800  1.0
  C  C155  1  0.145700  0.242500  0.588200  1.0
  C  C156  1  0.854300  0.757500  0.411800  1.0
  C  C157  1  0.431200  0.156600  0.662200  1.0
  C  C158  1  0.568800  0.843400  0.337800  1.0
  C  C159  1  0.566500  0.473300  0.857000  1.0
  C  C160  1  0.433500  0.526700  0.143000  1.0
  C  C161  1  0.643800  0.408400  0.845200  1.0
  C  C162  1  0.356200  0.591600  0.154800  1.0
  C  C163  1  0.055000  0.241700  0.466900  1.0
  C  C164  1  0.945000  0.758300  0.533100  1.0
  C  C165  1  0.495200  0.333900  0.820500  1.0
  C  C166  1  0.504800  0.666100  0.179500  1.0
  C  C167  1  0.451500  0.107100  0.519000  1.0
  C  C168  1  0.548500  0.892900  0.481000  1.0
  C  C169  1  0.576700  0.063000  0.192000  1.0
  C  C170  1  0.423300  0.937000  0.808000  1.0
  C  C171  1  0.652700  0.989600  0.184100  1.0
  C  C172  1  0.347300  0.010400  0.815900  1.0
  C  C173  1  0.197000  0.189700  0.765300  1.0
  C  C174  1  0.803000  0.810300  0.234700  1.0
  C  C175  1  0.216100  0.079600  0.398500  1.0
  C  C176  1  0.783900  0.920400  0.601500  1.0
  C  C177  1  0.230400  0.055200  0.327600  1.0
  C  C178  1  0.769600  0.944800  0.672400  1.0
  C  C179  1  0.540500  0.088800  0.566800  1.0
  C  C180  1  0.459500  0.911200  0.433200  1.0
  C  C181  1  0.046300  0.289800  0.612200  1.0
  C  C182  1  0.953700  0.710200  0.387800  1.0
  C  C183  1  0.201500  0.206000  0.838800  1.0
  C  C184  1  0.798500  0.794000  0.161200  1.0
  C  C185  1  0.956300  0.310800  0.564600  1.0
  C  C186  1  0.043700  0.689200  0.435400  1.0
  C  C187  1  0.959600  0.286900  0.491200  1.0
  C  C188  1  0.040400  0.713100  0.508800  1.0
  C  C189  1  0.530200  0.114500  0.639200  1.0
  C  C190  1  0.469800  0.885500  0.360800  1.0
  C  C191  1  0.881600  0.451600  0.968600  1.0
  C  C192  1  0.118400  0.548400  0.031400  1.0
  C  C193  1  0.058100  0.489000  0.011700  1.0
  C  C194  1  0.941900  0.511000  0.988300  1.0
  C  C195  1  0.046500  0.351900  0.997200  1.0
  C  C196  1  0.953500  0.648100  0.002800  1.0
  C  C197  1  0.931600  0.374300  0.972600  1.0
  C  C198  1  0.068400  0.625700  0.027400  1.0
  C  C199  1  0.107100  0.407900  0.015900  1.0
  C  C200  1  0.892900  0.592100  0.984100  1.0
  C  C201  1  0.509200  0.032600  0.975100  1.0
  C  C202  1  0.490800  0.967400  0.024900  1.0
  C  C203  1  0.395000  0.977400  0.073300  1.0
  C  C204  1  0.605000  0.022600  0.926700  1.0
  C  C205  1  0.431600  0.104900  0.976200  1.0
  C  C206  1  0.568400  0.895100  0.023800  1.0
  C  C207  1  0.322100  0.047500  0.071900  1.0
  C  C208  1  0.677900  0.952500  0.928100  1.0
  C  C209  1  0.340300  0.111600  0.023000  1.0
  C  C210  1  0.659700  0.888400  0.977000  1.0
  C  C211  1  0.900000  0.486300  0.426600  1.0
  C  C212  1  0.100000  0.513700  0.573400  1.0
  C  C213  1  0.053000  0.492200  0.501400  1.0
  C  C214  1  0.947000  0.507800  0.498600  1.0
  C  C215  1  0.962000  0.454700  0.370800  1.0
  C  C216  1  0.038000  0.545300  0.629200  1.0
  C  C217  1  0.067000  0.441200  0.376000  1.0
  C  C218  1  0.933000  0.558800  0.624000  1.0
  C  C219  1  0.119000  0.458500  0.439200  1.0
  C  C220  1  0.881000  0.541500  0.560800  1.0
  C  C221  1  0.951500  0.069800  0.572600  1.0
  C  C222  1  0.048500  0.930200  0.427400  1.0
  C  C223  1  0.856800  0.114000  0.538600  1.0
  C  C224  1  0.143200  0.886000  0.461400  1.0
  C  C225  1  0.827800  0.100900  0.468500  1.0
  C  C226  1  0.172200  0.899100  0.531500  1.0
  C  C227  1  0.887300  0.042500  0.431900  1.0
  C  C228  1  0.112700  0.957500  0.568100  1.0
  C  C229  1  0.980200  0.995500  0.464400  1.0
  C  C230  1  0.019800  0.004500  0.535600  1.0
  S  S231  1  0.729400  0.476700  0.405400  1
  S  S232  1  0.270600  0.523300  0.594600  1
  S  S233  1  0.907400  0.983700  0.324400  1
  S  S234  1  0.092600  0.016300  0.675600  1
  S  S235  1  0.249570  0.377340  0.048910  1.0
  S  S236  1  0.750430  0.622660  0.951090  1.0
  S  S237  1  0.365750  0.898810  0.136600  1.0
  S  S238  1  0.634250  0.101190  0.863400  1.0
  S  S239  1  0.760900  0.513200  0.423500  1.0
  S  S240  1  0.239100  0.486800  0.576500  1.0
  S  S241  1  0.846900  0.030800  0.337440  1.0
  S  S242  1  0.153100  0.969200  0.662560  1.0
  N  N243  1  0.491800  0.721200  0.853100  1.0
  N  N244  1  0.508200  0.278800  0.146900  1.0
  N  N245  1  0.298900  0.398800  0.820000  1.0
  N  N246  1  0.701100  0.601200  0.180000  1.0
  N  N247  1  0.237700  0.220300  0.634500  1.0
  N  N248  1  0.762300  0.779700  0.365500  1.0
  N  N249  1  0.515700  0.120000  0.197900  1.0
  N  N250  1  0.484300  0.880000  0.802100  1.0
  N  N251  1  0.331300  0.159400  0.293100  1.0
  N  N252  1  0.668700  0.840600  0.706900  1.0
  O  O253  1  0.113900  0.047000  0.933800  1
  O  O254  1  0.886100  0.953000  0.066200  1
  O  O255  1  0.778100  0.181100  0.173900  1
  O  O256  1  0.221900  0.818900  0.826100  1
  O  O257  1  0.002500  0.206600  0.285800  1
  O  O258  1  0.997500  0.793400  0.714200  1
  O  O259  1  0.134000  0.208200  0.153800  1
  O  O260  1  0.866000  0.791800  0.846200  1
  O  O261  1  0.029900  0.130800  0.055500  1
  O  O262  1  0.970100  0.869200  0.944500  1
  O  O263  1  0.220400  0.892700  0.955100  1
  O  O264  1  0.779600  0.107300  0.044900  1
  O  O265  1  0.051900  0.993500  0.157400  1
  O  O266  1  0.948100  0.006500  0.842600  1
  O  O267  1  0.775100  0.265300  0.280400  1
  O  O268  1  0.224900  0.734700  0.719600  1
  O  O269  1  0.406100  0.395100  0.334600  1
  O  O270  1  0.593900  0.604900  0.665400  1
  O  O271  1  0.580000  0.432000  0.629600  1
  O  O272  1  0.420000  0.568000  0.370400  1
  O  O273  1  0.677700  0.287400  0.637300  1
  O  O274  1  0.322300  0.712600  0.362700  1
  O  O275  1  0.580700  0.216300  0.355300  1
  O  O276  1  0.419300  0.783700  0.644700  1
  O  O277  1  0.911000  0.343300  0.776900  1
  O  O278  1  0.089000  0.656700  0.223100  1
  O  O279  1  0.632500  0.553400  0.402800  1
  O  O280  1  0.367500  0.446600  0.597200  1
  O  O281  1  0.617800  0.289700  0.478200  1
  O  O282  1  0.382200  0.710300  0.521800  1
  O  O283  1  0.903600  0.281900  0.784200  1
  O  O284  1  0.096400  0.718100  0.215800  1
  O  O285  1  0.960200  0.934600  0.269300  1
  O  O286  1  0.039800  0.065400  0.730700  1
  O  O287  1  0.894700  0.066600  0.298500  1
  O  O288  1  0.105300  0.933400  0.701500  1
  O  O289  1  0.796800  0.963100  0.346300  1
  O  O290  1  0.203200  0.036900  0.653700  1
  O  O291  1  0.737100  0.455600  0.336500  1
  O  O292  1  0.262900  0.544400  0.663500  1
  O  O293  1  0.700000  0.427800  0.465300  1
  O  O294  1  0.300000  0.572200  0.534700  1
  O  O295  1  0.314900  0.318000  0.242300  1.0
  O  O296  1  0.685100  0.682000  0.757700  1.0
  O  O297  1  0.267900  0.292000  0.053600  1.0
  O  O298  1  0.732100  0.708000  0.946400  1.0
  O  O299  1  0.323000  0.412300  0.997100  1.0
  O  O300  1  0.677000  0.587700  0.002900  1.0
  O  O301  1  0.251300  0.407000  0.122500  1.0
  O  O302  1  0.748700  0.593000  0.877500  1.0
  O  O303  1  0.470300  0.866600  0.176500  1.0
  O  O304  1  0.529700  0.133400  0.823500  1.0
  O  O305  1  0.327600  0.842500  0.090400  1.0
  O  O306  1  0.672400  0.157500  0.909600  1.0
  O  O307  1  0.276900  0.933900  0.184400  1.0
  O  O308  1  0.723100  0.066100  0.815600  1.0
  O  O309  1  0.704200  0.471100  0.481500  1.0
  O  O310  1  0.295800  0.528900  0.518500  1.0
  O  O311  1  0.716300  0.599200  0.437400  1.0
  O  O312  1  0.283700  0.400800  0.562600  1.0
  O  O313  1  0.709200  0.510100  0.350500  1.0
  O  O314  1  0.290800  0.489900  0.649500  1.0
  O  O315  1  0.947700  0.044500  0.293200  1.0
  O  O316  1  0.052300  0.955500  0.706800  1.0
  O  O317  1  0.828500  0.950400  0.336500  1.0
  O  O318  1  0.171500  0.049600  0.663500  1.0
  O  O319  1  0.749700  0.087400  0.319300  1.0
  O  O320  1  0.250300  0.912600  0.680700  1.0
