# generated using pymatgen
data_H60PdC92(N2O9)9
_symmetry_space_group_name_H-M   'P 1'
_cell_length_a   20.20834353
_cell_length_b   20.20834353
_cell_length_c   20.20834353
_cell_angle_alpha   106.88979801
_cell_angle_beta   106.88979801
_cell_angle_gamma   114.76745361
_symmetry_Int_Tables_number   1
_chemical_formula_structural   H60PdC92(N2O9)9
_chemical_formula_sum   'H120 Pd2 C184 N36 O162'
_cell_volume   6311.78094672
_cell_formula_units_Z   2
loop_
 _symmetry_equiv_pos_site_id
 _symmetry_equiv_pos_as_xyz
  1  'x, y, z'
loop_
 _atom_site_type_symbol
 _atom_site_label
 _atom_site_symmetry_multiplicity
 _atom_site_fract_x
 _atom_site_fract_y
 _atom_site_fract_z
 _atom_site_occupancy
  C  C1  1  0.787800  0.212200  1.000000  1.0
  C  C2  1  0.212200  0.787800  0.000000  1.0
  C  C3  1  0.787800  0.787800  0.575600  1.0
  C  C4  1  0.212200  0.212200  0.424400  1.0
  C  C5  1  0.746900  0.253100  0.000000  1.0
  C  C6  1  0.253100  0.746900  1.000000  1.0
  C  C7  1  0.746900  0.746900  0.493800  1.0
  C  C8  1  0.253100  0.253100  0.506200  1.0
  C  C9  1  0.146700  0.373800  0.903300  1.0
  C  C10  1  0.470500  0.243400  0.096700  1.0
  C  C11  1  0.243400  0.146700  0.772900  1.0
  C  C12  1  0.373800  0.470500  0.227100  1.0
  C  C13  1  0.853300  0.756600  0.227100  1.0
  C  C14  1  0.529500  0.626200  0.772900  1.0
  C  C15  1  0.756600  0.529500  0.903300  1.0
  C  C16  1  0.626200  0.853300  0.096700  1.0
  C  C17  1  0.023500  0.394200  0.004100  1.0
  C  C18  1  0.390100  0.019400  0.995900  1.0
  C  C19  1  0.019400  0.023500  0.629300  1.0
  C  C20  1  0.394200  0.390100  0.370700  1.0
  C  C21  1  0.976500  0.980600  0.370700  1.0
  C  C22  1  0.609900  0.605800  0.629300  1.0
  C  C23  1  0.980600  0.609900  0.004100  1.0
  C  C24  1  0.605800  0.976500  0.995900  1.0
  C  C25  1  0.931200  0.279400  0.875200  1.0
  C  C26  1  0.404200  0.056000  0.124800  1.0
  C  C27  1  0.056000  0.931200  0.651800  1.0
  C  C28  1  0.279400  0.404200  0.348200  1.0
  C  C29  1  0.068800  0.944000  0.348200  1.0
  C  C30  1  0.595800  0.720600  0.651800  1.0
  C  C31  1  0.944000  0.595800  0.875200  1.0
  C  C32  1  0.720600  0.068800  0.124800  1.0
  C  C33  1  0.203400  0.360300  0.945700  1.0
  C  C34  1  0.414600  0.257700  0.054300  1.0
  C  C35  1  0.257700  0.203400  0.843100  1.0
  C  C36  1  0.360300  0.414600  0.156900  1.0
  C  C37  1  0.796600  0.742300  0.156900  1.0
  C  C38  1  0.585400  0.639700  0.843100  1.0
  C  C39  1  0.742300  0.585400  0.945700  1.0
  C  C40  1  0.639700  0.796600  0.054300  1.0
  C  C41  1  0.035300  0.442600  0.076900  1.0
  C  C42  1  0.365700  0.958400  0.923100  1.0
  C  C43  1  0.958400  0.035300  0.592700  1.0
  C  C44  1  0.442600  0.365700  0.407300  1.0
  C  C45  1  0.964700  0.041600  0.407300  1.0
  C  C46  1  0.634300  0.557400  0.592700  1.0
  C  C47  1  0.041600  0.634300  0.076900  1.0
  C  C48  1  0.557400  0.964700  0.923100  1.0
  C  C49  1  0.854900  0.238100  0.984800  1.0
  C  C50  1  0.253300  0.870100  0.015200  1.0
  C  C51  1  0.870100  0.854900  0.616800  1.0
  C  C52  1  0.238100  0.253300  0.383200  1.0
  C  C53  1  0.145100  0.129900  0.383200  1.0
  C  C54  1  0.746700  0.761900  0.616800  1.0
  C  C55  1  0.129900  0.746700  0.984800  1.0
  C  C56  1  0.761900  0.145100  0.015200  1.0
  C  C57  1  0.840000  0.346400  0.966600  1.0
  C  C58  1  0.379800  0.873400  0.033400  1.0
  C  C59  1  0.873400  0.840000  0.493600  1.0
  C  C60  1  0.346400  0.379800  0.506400  1.0
  C  C61  1  0.160000  0.126600  0.506400  1.0
  C  C62  1  0.620200  0.653600  0.493600  1.0
  C  C63  1  0.126600  0.620200  0.966600  1.0
  C  C64  1  0.653600  0.160000  0.033400  1.0
  C  C65  1  0.114300  0.510300  0.134600  1.0
  C  C66  1  0.375700  0.979700  0.865400  1.0
  C  C67  1  0.979700  0.114300  0.604000  1.0
  C  C68  1  0.510300  0.375700  0.396000  1.0
  C  C69  1  0.885700  0.020300  0.396000  1.0
  C  C70  1  0.624300  0.489700  0.604000  1.0
  C  C71  1  0.020300  0.624300  0.134600  1.0
  C  C72  1  0.489700  0.885700  0.865400  1.0
  C  C73  1  0.168000  0.482700  0.043500  1.0
  C  C74  1  0.439200  0.124500  0.956500  1.0
  C  C75  1  0.124500  0.168000  0.685300  1.0
  C  C76  1  0.482700  0.439200  0.314700  1.0
  C  C77  1  0.832000  0.875500  0.314700  1.0
  C  C78  1  0.560800  0.517300  0.685300  1.0
  C  C79  1  0.875500  0.560800  0.043500  1.0
  C  C80  1  0.517300  0.832000  0.956500  1.0
  C  C81  1  0.850100  0.214100  0.819400  1.0
  C  C82  1  0.394700  0.030700  0.180600  1.0
  C  C83  1  0.030700  0.850100  0.636000  1.0
  C  C84  1  0.214100  0.394700  0.364000  1.0
  C  C85  1  0.149900  0.969300  0.364000  1.0
  C  C86  1  0.605300  0.785900  0.636000  1.0
  C  C87  1  0.969300  0.605300  0.819400  1.0
  C  C88  1  0.785900  0.149900  0.180600  1.0
  C  C89  1  0.076800  0.360400  0.915800  1.0
  C  C90  1  0.444600  0.161000  0.084200  1.0
  C  C91  1  0.161000  0.076800  0.716400  1.0
  C  C92  1  0.360400  0.444600  0.283600  1.0
  C  C93  1  0.923200  0.839000  0.283600  1.0
  C  C94  1  0.555400  0.639600  0.716400  1.0
  C  C95  1  0.839000  0.555400  0.915800  1.0
  C  C96  1  0.639600  0.923200  0.084200  1.0
  C  C97  1  0.997000  0.293000  0.859200  1.0
  C  C98  1  0.433800  0.137800  0.140800  1.0
  C  C99  1  0.137800  0.997000  0.704000  1.0
  C  C100  1  0.293000  0.433800  0.296000  1.0
  C  C101  1  0.003000  0.862200  0.296000  1.0
  C  C102  1  0.566200  0.707000  0.704000  1.0
  C  C103  1  0.862200  0.566200  0.859200  1.0
  C  C104  1  0.707000  0.003000  0.140800  1.0
  C  C105  1  0.089400  0.412700  0.987300  1.0
  C  C106  1  0.425400  0.102100  0.012700  1.0
  C  C107  1  0.102100  0.089400  0.676700  1.0
  C  C108  1  0.412700  0.425400  0.323300  1.0
  C  C109  1  0.910600  0.897900  0.323300  1.0
  C  C110  1  0.574600  0.587300  0.676700  1.0
  C  C111  1  0.897900  0.574600  0.987300  1.0
  C  C112  1  0.587300  0.910600  0.012700  1.0
  C  C113  1  0.878500  0.303000  0.966500  1.0
  C  C114  1  0.336500  0.912000  0.033500  1.0
  C  C115  1  0.912000  0.878500  0.575500  1.0
  C  C116  1  0.303000  0.336500  0.424500  1.0
  C  C117  1  0.121500  0.088000  0.424500  1.0
  C  C118  1  0.663500  0.697000  0.575500  1.0
  C  C119  1  0.088000  0.663500  0.966500  1.0
  C  C120  1  0.697000  0.121500  0.033500  1.0
  C  C121  1  0.282800  0.393900  0.881100  1.0
  C  C122  1  0.512800  0.401700  0.118900  1.0
  C  C123  1  0.401700  0.282800  0.888900  1.0
  C  C124  1  0.393900  0.512800  0.111100  1.0
  C  C125  1  0.717200  0.598300  0.111100  1.0
  C  C126  1  0.487200  0.606100  0.888900  1.0
  C  C127  1  0.598300  0.487200  0.881100  1.0
  C  C128  1  0.606100  0.717200  0.118900  1.0
  C  C129  1  0.226800  0.409100  0.840700  1.0
  C  C130  1  0.568400  0.386100  0.159300  1.0
  C  C131  1  0.386100  0.226800  0.817700  1.0
  C  C132  1  0.409100  0.568400  0.182300  1.0
  C  C133  1  0.773200  0.613900  0.182300  1.0
  C  C134  1  0.431600  0.590900  0.817700  1.0
  C  C135  1  0.613900  0.431600  0.840700  1.0
  C  C136  1  0.590900  0.773200  0.159300  1.0
  C  C137  1  0.772300  0.317200  0.980700  1.0
  C  C138  1  0.336500  0.791600  0.019300  1.0
  C  C139  1  0.791600  0.772300  0.455100  1.0
  C  C140  1  0.317200  0.336500  0.544900  1.0
  C  C141  1  0.227700  0.208400  0.544900  1.0
  C  C142  1  0.663500  0.682800  0.455100  1.0
  C  C143  1  0.208400  0.663500  0.980700  1.0
  C  C144  1  0.682800  0.227700  0.019300  1.0
  C  C145  1  0.162000  0.399000  0.849000  1.0
  C  C146  1  0.550000  0.313000  0.151000  1.0
  C  C147  1  0.313000  0.162000  0.763000  1.0
  C  C148  1  0.399000  0.550000  0.237000  1.0
  C  C149  1  0.838000  0.687000  0.237000  1.0
  C  C150  1  0.450000  0.601000  0.763000  1.0
  C  C151  1  0.687000  0.450000  0.849000  1.0
  C  C152  1  0.601000  0.838000  0.151000  1.0
  C  C153  1  0.831800  0.161000  0.745200  1.0
  C  C154  1  0.415800  0.086600  0.254800  1.0
  C  C155  1  0.086600  0.831800  0.670800  1.0
  C  C156  1  0.161000  0.415800  0.329200  1.0
  C  C157  1  0.168200  0.913400  0.329200  1.0
  C  C158  1  0.584200  0.839000  0.670800  1.0
  C  C159  1  0.913400  0.584200  0.745200  1.0
  C  C160  1  0.839000  0.168200  0.254800  1.0
  C  C161  1  0.979300  0.238200  0.786100  1.0
  C  C162  1  0.452100  0.193200  0.213900  1.0
  C  C163  1  0.193200  0.979300  0.741100  1.0
  C  C164  1  0.238200  0.452100  0.258900  1.0
  C  C165  1  0.020700  0.806800  0.258900  1.0
  C  C166  1  0.547900  0.761800  0.741100  1.0
  C  C167  1  0.806800  0.547900  0.786100  1.0
  C  C168  1  0.761800  0.020700  0.213900  1.0
  C  C169  1  0.898100  0.173200  0.730500  1.0
  C  C170  1  0.442700  0.167600  0.269500  1.0
  C  C171  1  0.167600  0.898100  0.724900  1.0
  C  C172  1  0.173200  0.442700  0.275100  1.0
  C  C173  1  0.101900  0.832400  0.275100  1.0
  C  C174  1  0.557300  0.826800  0.724900  1.0
  C  C175  1  0.832400  0.557300  0.730500  1.0
  C  C176  1  0.826800  0.101900  0.269500  1.0
  C  C177  1  0.179300  0.530700  0.116200  1.0
  C  C178  1  0.414500  0.063100  0.883800  1.0
  C  C179  1  0.063100  0.179300  0.648600  1.0
  C  C180  1  0.530700  0.414500  0.351400  1.0
  C  C181  1  0.820700  0.936900  0.351400  1.0
  C  C182  1  0.585500  0.469300  0.648600  1.0
  C  C183  1  0.936900  0.585500  0.116200  1.0
  C  C184  1  0.469300  0.820700  0.883800  1.0
  H  H185  1  0.195600  0.344400  0.984000  1.0
  H  H186  1  0.360400  0.211600  0.016000  1.0
  H  H187  1  0.211600  0.195600  0.851200  1.0
  H  H188  1  0.344400  0.360400  0.148800  1.0
  H  H189  1  0.804400  0.788400  0.148800  1.0
  H  H190  1  0.639600  0.655600  0.851200  1.0
  H  H191  1  0.788400  0.639600  0.984000  1.0
  H  H192  1  0.655600  0.804400  0.016000  1.0
  H  H193  1  0.989500  0.429400  0.087100  1.0
  H  H194  1  0.342300  0.902400  0.912900  1.0
  H  H195  1  0.902400  0.989500  0.560100  1.0
  H  H196  1  0.429400  0.342300  0.439900  1.0
  H  H197  1  0.010500  0.097600  0.439900  1.0
  H  H198  1  0.657700  0.570600  0.560100  1.0
  H  H199  1  0.097600  0.657700  0.087100  1.0
  H  H200  1  0.570600  0.010500  0.912900  1.0
  H  H201  1  0.884400  0.211800  0.987000  1.0
  H  H202  1  0.224800  0.897400  0.013000  1.0
  H  H203  1  0.897400  0.884400  0.672600  1.0
  H  H204  1  0.211800  0.224800  0.327400  1.0
  H  H205  1  0.115600  0.102600  0.327400  1.0
  H  H206  1  0.775200  0.788200  0.672600  1.0
  H  H207  1  0.102600  0.775200  0.987000  1.0
  H  H208  1  0.788200  0.115600  0.013000  1.0
  H  H209  1  0.858700  0.393000  0.957700  1.0
  H  H210  1  0.435300  0.901000  0.042300  1.0
  H  H211  1  0.901000  0.858700  0.465700  1.0
  H  H212  1  0.393000  0.435300  0.534300  1.0
  H  H213  1  0.141300  0.099000  0.534300  1.0
  H  H214  1  0.564700  0.607000  0.465700  1.0
  H  H215  1  0.099000  0.564700  0.957700  1.0
  H  H216  1  0.607000  0.141300  0.042300  1.0
  H  H217  1  0.123900  0.542000  0.185500  1.0
  H  H218  1  0.356500  0.938400  0.814500  1.0
  H  H219  1  0.938400  0.123900  0.581900  1.0
  H  H220  1  0.542000  0.356500  0.418100  1.0
  H  H221  1  0.876100  0.061600  0.418100  1.0
  H  H222  1  0.643500  0.458000  0.581900  1.0
  H  H223  1  0.061600  0.643500  0.185500  1.0
  H  H224  1  0.458000  0.876100  0.814500  1.0
  H  H225  1  0.213000  0.497400  0.032200  1.0
  H  H226  1  0.465200  0.180800  0.967800  1.0
  H  H227  1  0.180800  0.213000  0.715600  1.0
  H  H228  1  0.497400  0.465200  0.284400  1.0
  H  H229  1  0.787000  0.819200  0.284400  1.0
  H  H230  1  0.534800  0.502600  0.715600  1.0
  H  H231  1  0.819200  0.534800  0.032200  1.0
  H  H232  1  0.502600  0.787000  0.967800  1.0
  H  H233  1  0.806600  0.205600  0.832200  1.0
  H  H234  1  0.373400  0.974400  0.167800  1.0
  H  H235  1  0.974400  0.806600  0.601000  1.0
  H  H236  1  0.205600  0.373400  0.399000  1.0
  H  H237  1  0.193400  0.025600  0.399000  1.0
  H  H238  1  0.626600  0.794400  0.601000  1.0
  H  H239  1  0.025600  0.626600  0.832200  1.0
  H  H240  1  0.794400  0.193400  0.167800  1.0
  H  H241  1  0.328200  0.400600  0.871800  1.0
  H  H242  1  0.528800  0.456400  0.128200  1.0
  H  H243  1  0.456400  0.328200  0.927600  1.0
  H  H244  1  0.400600  0.528800  0.072400  1.0
  H  H245  1  0.671800  0.543600  0.072400  1.0
  H  H246  1  0.471200  0.599400  0.927600  1.0
  H  H247  1  0.543600  0.471200  0.871800  1.0
  H  H248  1  0.599400  0.671800  0.128200  1.0
  H  H249  1  0.236400  0.428200  0.804600  1.0
  H  H250  1  0.623600  0.431800  0.195400  1.0
  H  H251  1  0.431800  0.236400  0.808200  1.0
  H  H252  1  0.428200  0.623600  0.191800  1.0
  H  H253  1  0.763600  0.568200  0.191800  1.0
  H  H254  1  0.376400  0.571800  0.808200  1.0
  H  H255  1  0.568200  0.376400  0.804600  1.0
  H  H256  1  0.571800  0.763600  0.195400  1.0
  H  H257  1  0.742000  0.342600  0.977200  1.0
  H  H258  1  0.365400  0.764800  0.022800  1.0
  H  H259  1  0.764800  0.742000  0.399400  1.0
  H  H260  1  0.342600  0.365400  0.600600  1.0
  H  H261  1  0.258000  0.235200  0.600600  1.0
  H  H262  1  0.634600  0.657400  0.399400  1.0
  H  H263  1  0.235200  0.634600  0.977200  1.0
  H  H264  1  0.657400  0.258000  0.022800  1.0
  H  H265  1  0.125200  0.408700  0.818100  1.0
  H  H266  1  0.590600  0.307100  0.181900  1.0
  H  H267  1  0.307100  0.125200  0.716500  1.0
  H  H268  1  0.408700  0.590600  0.283500  1.0
  H  H269  1  0.874800  0.692900  0.283500  1.0
  H  H270  1  0.409400  0.591300  0.716500  1.0
  H  H271  1  0.692900  0.409400  0.818100  1.0
  H  H272  1  0.591300  0.874800  0.181900  1.0
  H  H273  1  0.776400  0.118300  0.706300  1.0
  H  H274  1  0.412000  0.070100  0.293700  1.0
  H  H275  1  0.070100  0.776400  0.658100  1.0
  H  H276  1  0.118300  0.412000  0.341900  1.0
  H  H277  1  0.223600  0.929900  0.341900  1.0
  H  H278  1  0.588000  0.881700  0.658100  1.0
  H  H279  1  0.929900  0.588000  0.706300  1.0
  H  H280  1  0.881700  0.223600  0.293700  1.0
  H  H281  1  0.023100  0.245300  0.774000  1.0
  H  H282  1  0.471300  0.249100  0.226000  1.0
  H  H283  1  0.249100  0.023100  0.777800  1.0
  H  H284  1  0.245300  0.471300  0.222200  1.0
  H  H285  1  0.976900  0.750900  0.222200  1.0
  H  H286  1  0.528700  0.754700  0.777800  1.0
  H  H287  1  0.750900  0.528700  0.774000  1.0
  H  H288  1  0.754700  0.976900  0.226000  1.0
  H  H289  1  0.887800  0.136400  0.681400  1.0
  H  H290  1  0.455000  0.206400  0.318600  1.0
  H  H291  1  0.206400  0.887800  0.751400  1.0
  H  H292  1  0.136400  0.455000  0.248600  1.0
  H  H293  1  0.112200  0.793600  0.248600  1.0
  H  H294  1  0.545000  0.863600  0.751400  1.0
  H  H295  1  0.793600  0.545000  0.681400  1.0
  H  H296  1  0.863600  0.112200  0.318600  1.0
  H  H297  1  0.232600  0.578700  0.154300  1.0
  H  H298  1  0.424400  0.078300  0.845700  1.0
  H  H299  1  0.078300  0.232600  0.653900  1.0
  H  H300  1  0.578700  0.424400  0.346100  1.0
  H  H301  1  0.767400  0.921700  0.346100  1.0
  H  H302  1  0.575600  0.421300  0.653900  1.0
  H  H303  1  0.921700  0.575600  0.154300  1.0
  H  H304  1  0.421300  0.767400  0.845700  1.0
  N  N305  1  0.617400  0.617400  0.234800  1
  N  N306  1  0.382600  0.382600  0.765200  1
  N  N307  1  0.382600  0.617400  1.000000  1
  N  N308  1  0.617400  0.382600  1.000000  1
  N  N309  1  0.212000  0.875000  0.169000  1
  N  N310  1  0.706000  0.043000  0.831000  1
  N  N311  1  0.043000  0.212000  0.337000  1
  N  N312  1  0.875000  0.706000  0.663000  1
  N  N313  1  0.788000  0.957000  0.663000  1
  N  N314  1  0.294000  0.125000  0.337000  1
  N  N315  1  0.957000  0.294000  0.169000  1
  N  N316  1  0.125000  0.788000  0.831000  1
  N  N317  1  0.061000  0.872000  0.473000  1
  N  N318  1  0.399000  0.588000  0.527000  1
  N  N319  1  0.588000  0.061000  0.189000  1
  N  N320  1  0.872000  0.399000  0.811000  1
  N  N321  1  0.939000  0.412000  0.811000  1
  N  N322  1  0.601000  0.128000  0.189000  1
  N  N323  1  0.412000  0.601000  0.473000  1
  N  N324  1  0.128000  0.939000  0.527000  1
  N  N325  1  0.945700  0.326900  0.948200  1.0
  N  N326  1  0.378700  0.997500  0.051800  1.0
  N  N327  1  0.997500  0.945700  0.618800  1.0
  N  N328  1  0.326900  0.378700  0.381200  1.0
  N  N329  1  0.054300  0.002500  0.381200  1.0
  N  N330  1  0.621300  0.673100  0.618800  1.0
  N  N331  1  0.002500  0.621300  0.948200  1.0
  N  N332  1  0.673100  0.054300  0.051800  1.0
  N  N333  1  0.269800  0.368800  0.934800  1.0
  N  N334  1  0.434000  0.335000  0.065200  1.0
  N  N335  1  0.335000  0.269800  0.901000  1.0
  N  N336  1  0.368800  0.434000  0.099000  1.0
  N  N337  1  0.730200  0.665000  0.099000  1.0
  N  N338  1  0.566000  0.631200  0.901000  1.0
  N  N339  1  0.665000  0.566000  0.934800  1.0
  N  N340  1  0.631200  0.730200  0.065200  1.0
  O  O341  1  0.580000  0.580000  0.160000  1
  O  O342  1  0.420000  0.420000  0.840000  1
  O  O343  1  0.420000  0.580000  0.000000  1
  O  O344  1  0.580000  0.420000  1.000000  1
  O  O345  1  0.715500  0.402500  0.493000  1
  O  O346  1  0.909500  0.222500  0.507000  1
  O  O347  1  0.222500  0.715500  0.313000  1
  O  O348  1  0.402500  0.909500  0.687000  1
  O  O349  1  0.284500  0.777500  0.687000  1
  O  O350  1  0.090500  0.597500  0.313000  1
  O  O351  1  0.777500  0.090500  0.493000  1
  O  O352  1  0.597500  0.284500  0.507000  1
  O  O353  1  0.859100  0.410000  0.595100  1
  O  O354  1  0.814900  0.264000  0.404900  1
  O  O355  1  0.264000  0.859100  0.449100  1
  O  O356  1  0.410000  0.814900  0.550900  1
  O  O357  1  0.140900  0.736000  0.550900  1
  O  O358  1  0.185100  0.590000  0.449100  1
  O  O359  1  0.736000  0.185100  0.595100  1
  O  O360  1  0.590000  0.140900  0.404900  1
  O  O361  1  0.789000  0.789000  0.000000  1
  O  O362  1  0.211000  0.211000  0.000000  1
  O  O363  1  0.194700  0.929200  0.169900  1
  O  O364  1  0.759300  0.024800  0.830100  1
  O  O365  1  0.024800  0.194700  0.265500  1
  O  O366  1  0.929200  0.759300  0.734500  1
  O  O367  1  0.805300  0.975200  0.734500  1
  O  O368  1  0.240700  0.070800  0.265500  1
  O  O369  1  0.975200  0.240700  0.169900  1
  O  O370  1  0.070800  0.805300  0.830100  1
  O  O371  1  0.156000  0.799000  0.125000  1
  O  O372  1  0.674000  0.031000  0.875000  1
  O  O373  1  0.031000  0.156000  0.357000  1
  O  O374  1  0.799000  0.674000  0.643000  1
  O  O375  1  0.844000  0.969000  0.643000  1
  O  O376  1  0.326000  0.201000  0.357000  1
  O  O377  1  0.969000  0.326000  0.125000  1
  O  O378  1  0.201000  0.844000  0.875000  1
  O  O379  1  0.282800  0.896000  0.218800  1
  O  O380  1  0.677200  0.064000  0.781200  1
  O  O381  1  0.064000  0.282800  0.386800  1
  O  O382  1  0.896000  0.677200  0.613200  1
  O  O383  1  0.717200  0.936000  0.613200  1
  O  O384  1  0.322800  0.104000  0.386800  1
  O  O385  1  0.936000  0.322800  0.218800  1
  O  O386  1  0.104000  0.717200  0.781200  1
  O  O387  1  0.619400  0.797500  0.358900  1
  O  O388  1  0.438600  0.260500  0.641100  1
  O  O389  1  0.260500  0.619400  0.821900  1
  O  O390  1  0.797500  0.438600  0.178100  1
  O  O391  1  0.380600  0.739500  0.178100  1
  O  O392  1  0.561400  0.202500  0.821900  1
  O  O393  1  0.739500  0.561400  0.358900  1
  O  O394  1  0.202500  0.380600  0.641100  1
  O  O395  1  0.953000  0.047000  1.000000  1
  O  O396  1  0.047000  0.953000  0.000000  1
  O  O397  1  0.953000  0.953000  0.906000  1
  O  O398  1  0.047000  0.047000  0.094000  1
  O  O399  1  0.305000  0.664000  0.701000  1
  O  O400  1  0.963000  0.604000  0.299000  1
  O  O401  1  0.604000  0.305000  0.641000  1
  O  O402  1  0.664000  0.963000  0.359000  1
  O  O403  1  0.695000  0.396000  0.359000  1
  O  O404  1  0.037000  0.336000  0.641000  1
  O  O405  1  0.396000  0.037000  0.701000  1
  O  O406  1  0.336000  0.695000  0.299000  1
  O  O407  1  0.590000  0.190000  0.710000  1
  O  O408  1  0.480000  0.880000  0.290000  1
  O  O409  1  0.880000  0.590000  0.400000  1
  O  O410  1  0.190000  0.480000  0.600000  1
  O  O411  1  0.410000  0.120000  0.600000  1
  O  O412  1  0.520000  0.810000  0.400000  1
  O  O413  1  0.120000  0.520000  0.710000  1
  O  O414  1  0.810000  0.410000  0.290000  1
  O  O415  1  0.645100  0.582000  0.267100  1
  O  O416  1  0.314900  0.378000  0.732900  1
  O  O417  1  0.378000  0.645100  0.063100  1
  O  O418  1  0.582000  0.314900  0.936900  1
  O  O419  1  0.354900  0.622000  0.936900  1
  O  O420  1  0.685100  0.418000  0.063100  1
  O  O421  1  0.622000  0.685100  0.267100  1
  O  O422  1  0.418000  0.354900  0.732900  1
  O  O423  1  0.249800  0.740400  0.191000  1
  O  O424  1  0.549400  0.058800  0.809000  1
  O  O425  1  0.058800  0.249800  0.509400  1
  O  O426  1  0.740400  0.549400  0.490600  1
  O  O427  1  0.750200  0.941200  0.490600  1
  O  O428  1  0.450600  0.259600  0.509400  1
  O  O429  1  0.941200  0.450600  0.191000  1
  O  O430  1  0.259600  0.750200  0.809000  1
  O  O431  1  0.703000  0.819000  0.916000  1
  O  O432  1  0.903000  0.787000  0.084000  1
  O  O433  1  0.787000  0.703000  0.884000  1
  O  O434  1  0.819000  0.903000  0.116000  1
  O  O435  1  0.297000  0.213000  0.116000  1
  O  O436  1  0.097000  0.181000  0.884000  1
  O  O437  1  0.213000  0.097000  0.916000  1
  O  O438  1  0.181000  0.297000  0.084000  1
  O  O439  1  0.698000  0.871000  0.929000  1
  O  O440  1  0.942000  0.769000  0.071000  1
  O  O441  1  0.769000  0.698000  0.827000  1
  O  O442  1  0.871000  0.942000  0.173000  1
  O  O443  1  0.302000  0.231000  0.173000  1
  O  O444  1  0.058000  0.129000  0.827000  1
  O  O445  1  0.231000  0.058000  0.929000  1
  O  O446  1  0.129000  0.302000  0.071000  1
  O  O447  1  0.339000  0.645000  0.656000  1
  O  O448  1  0.989000  0.683000  0.344000  1
  O  O449  1  0.683000  0.339000  0.694000  1
  O  O450  1  0.645000  0.989000  0.306000  1
  O  O451  1  0.661000  0.317000  0.306000  1
  O  O452  1  0.011000  0.355000  0.694000  1
  O  O453  1  0.317000  0.011000  0.656000  1
  O  O454  1  0.355000  0.661000  0.344000  1
  O  O455  1  0.618000  0.082000  0.630000  1
  O  O456  1  0.452000  0.988000  0.370000  1
  O  O457  1  0.988000  0.618000  0.536000  1
  O  O458  1  0.082000  0.452000  0.464000  1
  O  O459  1  0.382000  0.012000  0.464000  1
  O  O460  1  0.548000  0.918000  0.536000  1
  O  O461  1  0.012000  0.548000  0.630000  1
  O  O462  1  0.918000  0.382000  0.370000  1
  O  O463  1  0.126700  0.873300  0.500000  1
  O  O464  1  0.373300  0.626700  0.500000  1
  O  O465  1  0.626700  0.126700  0.253400  1
  O  O466  1  0.873300  0.373300  0.746600  1
  O  O467  1  0.992200  0.803500  0.423700  1
  O  O468  1  0.379800  0.568500  0.576300  1
  O  O469  1  0.568500  0.992200  0.188700  1
  O  O470  1  0.803500  0.379800  0.811300  1
  O  O471  1  0.007800  0.431500  0.811300  1
  O  O472  1  0.620200  0.196500  0.188700  1
  O  O473  1  0.431500  0.620200  0.423700  1
  O  O474  1  0.196500  0.007800  0.576300  1
  O  O475  1  0.061800  0.938200  0.500000  1
  O  O476  1  0.438200  0.561800  0.500000  1
  O  O477  1  0.561800  0.061800  0.123600  1
  O  O478  1  0.938200  0.438200  0.876400  1
  O  O479  1  0.737000  0.947000  0.948000  1
  O  O480  1  0.999000  0.789000  0.052000  1
  O  O481  1  0.789000  0.737000  0.790000  1
  O  O482  1  0.947000  0.999000  0.210000  1
  O  O483  1  0.263000  0.211000  0.210000  1
  O  O484  1  0.001000  0.053000  0.790000  1
  O  O485  1  0.211000  0.001000  0.948000  1
  O  O486  1  0.053000  0.263000  0.052000  1
  O  O487  1  0.769000  0.959000  0.008000  1
  O  O488  1  0.951000  0.761000  0.992000  1
  O  O489  1  0.761000  0.769000  0.810000  1
  O  O490  1  0.959000  0.951000  0.190000  1
  O  O491  1  0.231000  0.239000  0.190000  1
  O  O492  1  0.049000  0.041000  0.810000  1
  O  O493  1  0.239000  0.049000  0.008000  1
  O  O494  1  0.041000  0.231000  0.992000  1
  O  O495  1  0.664300  0.696100  0.266600  1.0
  O  O496  1  0.429500  0.397700  0.733400  1.0
  O  O497  1  0.397700  0.664300  0.968200  1.0
  O  O498  1  0.696100  0.429500  0.031800  1.0
  O  O499  1  0.335700  0.602300  0.031800  1.0
  O  O500  1  0.570500  0.303900  0.968200  1.0
  O  O501  1  0.602300  0.570500  0.266600  1.0
  O  O502  1  0.303900  0.335700  0.733400  1.0
  Pd  Pd503  1  0.352580  0.352580  0.000000  1.0
  Pd  Pd504  1  0.647420  0.647420  0.000000  1.0
