# generated using pymatgen
data_Si2AgH20C14N3O4
_symmetry_space_group_name_H-M   'P 1'
_cell_length_a   11.02224295
_cell_length_b   11.02224295
_cell_length_c   16.16390000
_cell_angle_alpha   90.00000000
_cell_angle_beta   90.00000000
_cell_angle_gamma   95.97789585
_symmetry_Int_Tables_number   1
_chemical_formula_structural   Si2AgH20C14N3O4
_chemical_formula_sum   'Si8 Ag4 H80 C56 N12 O16'
_cell_volume   1953.07103896
_cell_formula_units_Z   4
loop_
 _symmetry_equiv_pos_site_id
 _symmetry_equiv_pos_as_xyz
  1  'x, y, z'
loop_
 _atom_site_type_symbol
 _atom_site_label
 _atom_site_symmetry_multiplicity
 _atom_site_fract_x
 _atom_site_fract_y
 _atom_site_fract_z
 _atom_site_occupancy
  Ag  Ag1  1  0.890520  0.890520  0.500000  1.0
  Ag  Ag2  1  0.609480  0.609480  0.000000  1.0
  Ag  Ag3  1  0.109480  0.109480  0.500000  1.0
  Ag  Ag4  1  0.390520  0.390520  1.000000  1.0
  C  C5  1  0.792300  0.954100  0.331200  1.0
  C  C6  1  0.954100  0.792300  0.668800  1.0
  C  C7  1  0.545900  0.707700  0.168800  1.0
  C  C8  1  0.707700  0.545900  0.831200  1.0
  C  C9  1  0.207700  0.045900  0.668800  1.0
  C  C10  1  0.045900  0.207700  0.331200  1.0
  C  C11  1  0.454100  0.292300  0.831200  1.0
  C  C12  1  0.292300  0.454100  0.168800  1.0
  C  C13  1  0.728900  0.010300  0.273000  1.0
  C  C14  1  0.010300  0.728900  0.727000  1.0
  C  C15  1  0.489700  0.771100  0.227000  1.0
  C  C16  1  0.771100  0.489700  0.773000  1.0
  C  C17  1  0.271100  0.989700  0.727000  1.0
  C  C18  1  0.989700  0.271100  0.273000  1.0
  C  C19  1  0.510300  0.228900  0.773000  1.0
  C  C20  1  0.228900  0.510300  0.227000  1.0
  C  C21  1  0.652200  0.094000  0.297400  1.0
  C  C22  1  0.094000  0.652200  0.702600  1.0
  C  C23  1  0.406000  0.847800  0.202600  1.0
  C  C24  1  0.847800  0.406000  0.797400  1.0
  C  C25  1  0.347800  0.906000  0.702600  1.0
  C  C26  1  0.906000  0.347800  0.297400  1.0
  C  C27  1  0.594000  0.152200  0.797400  1.0
  C  C28  1  0.152200  0.594000  0.202600  1.0
  C  C29  1  0.640200  0.121400  0.379700  1.0
  C  C30  1  0.121400  0.640200  0.620300  1.0
  C  C31  1  0.378600  0.859800  0.120300  1.0
  C  C32  1  0.859800  0.378600  0.879700  1.0
  C  C33  1  0.359800  0.878600  0.620300  1.0
  C  C34  1  0.878600  0.359800  0.379700  1.0
  C  C35  1  0.621400  0.140200  0.879700  1.0
  C  C36  1  0.140200  0.621400  0.120300  1.0
  C  C37  1  0.707200  0.059000  0.433700  1.0
  C  C38  1  0.059000  0.707200  0.566300  1.0
  C  C39  1  0.441000  0.792800  0.066300  1.0
  C  C40  1  0.792800  0.441000  0.933700  1.0
  C  C41  1  0.292800  0.941000  0.566300  1.0
  C  C42  1  0.941000  0.292800  0.433700  1.0
  C  C43  1  0.559000  0.207200  0.933700  1.0
  C  C44  1  0.207200  0.559000  0.066300  1.0
  C  C45  1  0.508900  0.223900  0.527100  1.0
  C  C46  1  0.223900  0.508900  0.472900  1.0
  C  C47  1  0.276100  0.991100  0.972900  1.0
  C  C48  1  0.991100  0.276100  0.027100  1.0
  C  C49  1  0.491100  0.776100  0.472900  1.0
  C  C50  1  0.776100  0.491100  0.527100  1.0
  C  C51  1  0.723900  0.008900  0.027100  1.0
  C  C52  1  0.008900  0.723900  0.972900  1.0
  C  C53  1  0.406600  0.241200  0.351200  1.0
  C  C54  1  0.241200  0.406600  0.648800  1.0
  C  C55  1  0.258800  0.093400  0.148800  1.0
  C  C56  1  0.093400  0.258800  0.851200  1.0
  C  C57  1  0.593400  0.758800  0.648800  1.0
  C  C58  1  0.758800  0.593400  0.351200  1.0
  C  C59  1  0.741200  0.906600  0.851200  1.0
  C  C60  1  0.906600  0.741200  0.148800  1.0
  H  H61  1  0.843900  0.897500  0.314000  1.0
  H  H62  1  0.897500  0.843900  0.686000  1.0
  H  H63  1  0.602500  0.656100  0.186000  1.0
  H  H64  1  0.656100  0.602500  0.814000  1.0
  H  H65  1  0.156100  0.102500  0.686000  1.0
  H  H66  1  0.102500  0.156100  0.314000  1.0
  H  H67  1  0.397500  0.343900  0.814000  1.0
  H  H68  1  0.343900  0.397500  0.186000  1.0
  H  H69  1  0.737500  0.992300  0.217200  1.0
  H  H70  1  0.992300  0.737500  0.782800  1.0
  H  H71  1  0.507700  0.762500  0.282800  1.0
  H  H72  1  0.762500  0.507700  0.717200  1.0
  H  H73  1  0.262500  0.007700  0.782800  1.0
  H  H74  1  0.007700  0.262500  0.217200  1.0
  H  H75  1  0.492300  0.237500  0.717200  1.0
  H  H76  1  0.237500  0.492300  0.282800  1.0
  H  H77  1  0.608100  0.132500  0.257900  1.0
  H  H78  1  0.132500  0.608100  0.742100  1.0
  H  H79  1  0.367500  0.891900  0.242100  1.0
  H  H80  1  0.891900  0.367500  0.757900  1.0
  H  H81  1  0.391900  0.867500  0.742100  1.0
  H  H82  1  0.867500  0.391900  0.257900  1.0
  H  H83  1  0.632500  0.108100  0.757900  1.0
  H  H84  1  0.108100  0.632500  0.242100  1.0
  H  H85  1  0.699300  0.074900  0.489800  1.0
  H  H86  1  0.074900  0.699300  0.510200  1.0
  H  H87  1  0.425100  0.800700  0.010200  1.0
  H  H88  1  0.800700  0.425100  0.989800  1.0
  H  H89  1  0.300700  0.925100  0.510200  1.0
  H  H90  1  0.925100  0.300700  0.489800  1.0
  H  H91  1  0.574900  0.199300  0.989800  1.0
  H  H92  1  0.199300  0.574900  0.010200  1.0
  H  H93  1  0.583100  0.228500  0.558500  1.0
  H  H94  1  0.228500  0.583100  0.441500  1.0
  H  H95  1  0.271500  0.916900  0.941500  1.0
  H  H96  1  0.916900  0.271500  0.058500  1.0
  H  H97  1  0.416900  0.771500  0.441500  1.0
  H  H98  1  0.771500  0.416900  0.558500  1.0
  H  H99  1  0.728500  0.083100  0.058500  1.0
  H  H100  1  0.083100  0.728500  0.941500  1.0
  H  H101  1  0.463400  0.145800  0.535700  1.0
  H  H102  1  0.145800  0.463400  0.464300  1.0
  H  H103  1  0.354200  0.036600  0.964300  1.0
  H  H104  1  0.036600  0.354200  0.035700  1.0
  H  H105  1  0.536600  0.854200  0.464300  1.0
  H  H106  1  0.854200  0.536600  0.535700  1.0
  H  H107  1  0.645800  0.963400  0.035700  1.0
  H  H108  1  0.963400  0.645800  0.964300  1.0
  H  H109  1  0.461000  0.287200  0.544800  1.0
  H  H110  1  0.287200  0.461000  0.455200  1.0
  H  H111  1  0.212800  0.039000  0.955200  1.0
  H  H112  1  0.039000  0.212800  0.044800  1.0
  H  H113  1  0.539000  0.712800  0.455200  1.0
  H  H114  1  0.712800  0.539000  0.544800  1.0
  H  H115  1  0.787200  0.961000  0.044800  1.0
  H  H116  1  0.961000  0.787200  0.955200  1.0
  H  H117  1  0.362700  0.308900  0.365900  1.0
  H  H118  1  0.308900  0.362700  0.634100  1.0
  H  H119  1  0.191100  0.137300  0.134100  1.0
  H  H120  1  0.137300  0.191100  0.865900  1.0
  H  H121  1  0.637300  0.691100  0.634100  1.0
  H  H122  1  0.691100  0.637300  0.365900  1.0
  H  H123  1  0.808900  0.862700  0.865900  1.0
  H  H124  1  0.862700  0.808900  0.134100  1.0
  H  H125  1  0.355700  0.166300  0.360500  1.0
  H  H126  1  0.166300  0.355700  0.639500  1.0
  H  H127  1  0.333700  0.144300  0.139500  1.0
  H  H128  1  0.144300  0.333700  0.860500  1.0
  H  H129  1  0.644300  0.833700  0.639500  1.0
  H  H130  1  0.833700  0.644300  0.360500  1.0
  H  H131  1  0.666300  0.855700  0.860500  1.0
  H  H132  1  0.855700  0.666300  0.139500  1.0
  H  H133  1  0.429000  0.247200  0.293900  1.0
  H  H134  1  0.247200  0.429000  0.706100  1.0
  H  H135  1  0.252800  0.071000  0.206100  1.0
  H  H136  1  0.071000  0.252800  0.793900  1.0
  H  H137  1  0.571000  0.752800  0.706100  1.0
  H  H138  1  0.752800  0.571000  0.293900  1.0
  H  H139  1  0.747200  0.929000  0.793900  1.0
  H  H140  1  0.929000  0.747200  0.206100  1.0
  N  N141  1  0.139400  0.860600  0.365600  1
  N  N142  1  0.860600  0.139400  0.634400  1
  N  N143  1  0.639400  0.360600  0.134400  1
  N  N144  1  0.360600  0.639400  0.865600  1
  N  N145  1  0.783330  0.976870  0.411900  1.0
  N  N146  1  0.976870  0.783330  0.588100  1.0
  N  N147  1  0.523130  0.716670  0.088100  1.0
  N  N148  1  0.716670  0.523130  0.911900  1.0
  N  N149  1  0.216670  0.023130  0.588100  1.0
  N  N150  1  0.023130  0.216670  0.411900  1.0
  N  N151  1  0.476870  0.283330  0.911900  1.0
  N  N152  1  0.283330  0.476870  0.088100  1.0
  O  O153  1  0.211300  0.788700  0.366200  1
  O  O154  1  0.788700  0.211300  0.633800  1
  O  O155  1  0.711300  0.288700  0.133800  1
  O  O156  1  0.288700  0.711300  0.866200  1
  O  O157  1  0.625900  0.374100  0.402300  1.0
  O  O158  1  0.374100  0.625900  0.597700  1.0
  O  O159  1  0.125900  0.874100  0.097700  1.0
  O  O160  1  0.874100  0.125900  0.902300  1.0
  O  O161  1  0.041000  0.817400  0.370800  1.0
  O  O162  1  0.817400  0.041000  0.629200  1.0
  O  O163  1  0.682600  0.459000  0.129200  1.0
  O  O164  1  0.459000  0.682600  0.870800  1.0
  O  O165  1  0.959000  0.182600  0.629200  1.0
  O  O166  1  0.182600  0.959000  0.370800  1.0
  O  O167  1  0.317400  0.541000  0.870800  1.0
  O  O168  1  0.541000  0.317400  0.129200  1.0
  Si  Si169  1  0.545590  0.243730  0.415400  1.0
  Si  Si170  1  0.243730  0.545590  0.584600  1.0
  Si  Si171  1  0.256270  0.954410  0.084600  1.0
  Si  Si172  1  0.954410  0.256270  0.915400  1.0
  Si  Si173  1  0.454410  0.756270  0.584600  1.0
  Si  Si174  1  0.756270  0.454410  0.415400  1.0
  Si  Si175  1  0.743730  0.045590  0.915400  1.0
  Si  Si176  1  0.045590  0.743730  0.084600  1.0
