# generated using pymatgen
data_Si2AgH20C15SN2O4F3
_symmetry_space_group_name_H-M   'P 1'
_cell_length_a   8.67710000
_cell_length_b   9.40560000
_cell_length_c   14.61890000
_cell_angle_alpha   79.92000000
_cell_angle_beta   76.93100000
_cell_angle_gamma   73.18000000
_symmetry_Int_Tables_number   1
_chemical_formula_structural   Si2AgH20C15SN2O4F3
_chemical_formula_sum   'Si4 Ag2 H40 C30 S2 N4 O8 F6'
_cell_volume   1104.76319305
_cell_formula_units_Z   2
loop_
 _symmetry_equiv_pos_site_id
 _symmetry_equiv_pos_as_xyz
  1  'x, y, z'
loop_
 _atom_site_type_symbol
 _atom_site_label
 _atom_site_symmetry_multiplicity
 _atom_site_fract_x
 _atom_site_fract_y
 _atom_site_fract_z
 _atom_site_occupancy
  Si  Si1  1  0.840750  0.270620  0.115110  1.0
  Si  Si2  1  0.159250  0.729380  0.884890  1.0
  Si  Si3  1  0.590770  0.079430  0.200490  1.0
  Si  Si4  1  0.409230  0.920570  0.799510  1.0
  Ag  Ag5  1  0.157950  0.069630  0.448160  1.0
  Ag  Ag6  1  0.842050  0.930370  0.551840  1.0
  H  H7  1  0.015900  0.116900  0.266400  1.0
  H  H8  1  0.984100  0.883100  0.733600  1.0
  H  H9  1  0.739300  0.529700  0.225100  1.0
  H  H10  1  0.260700  0.470300  0.774900  1.0
  H  H11  1  0.791700  0.578500  0.362400  1.0
  H  H12  1  0.208300  0.421500  0.637600  1.0
  H  H13  1  0.958400  0.396200  0.446800  1.0
  H  H14  1  0.041600  0.603800  0.553200  1.0
  H  H15  1  0.022000  0.179300  0.981400  1.0
  H  H16  1  0.978000  0.820700  0.018600  1.0
  H  H17  1  0.102900  0.268800  0.029100  1.0
  H  H18  1  0.897100  0.731200  0.970900  1.0
  H  H19  1  0.096300  0.105300  0.072000  1.0
  H  H20  1  0.903700  0.894700  0.928000  1.0
  H  H21  1  0.744900  0.831900  0.222000  1.0
  H  H22  1  0.255100  0.168100  0.778000  1.0
  H  H23  1  0.558300  0.837200  0.240300  1.0
  H  H24  1  0.441700  0.162800  0.759700  1.0
  H  H25  1  0.655800  0.854300  0.136500  1.0
  H  H26  1  0.344200  0.145700  0.863500  1.0
  H  H27  1  0.426200  0.152700  0.084600  1.0
  H  H28  1  0.573800  0.847300  0.915400  1.0
  H  H29  1  0.315800  0.136500  0.184800  1.0
  H  H30  1  0.684200  0.863500  0.815200  1.0
  H  H31  1  0.381700  0.279100  0.150500  1.0
  H  H32  1  0.618300  0.720900  0.849500  1.0
  H  H33  1  0.379900  0.317000  0.321400  1.0
  H  H34  1  0.620100  0.683000  0.678600  1.0
  H  H35  1  0.384500  0.375700  0.466300  1.0
  H  H36  1  0.615500  0.624300  0.533700  1.0
  H  H37  1  0.434200  0.774500  0.444400  1.0
  H  H38  1  0.565800  0.225500  0.555600  1.0
  H  H39  1  0.261500  0.046700  0.637200  1.0
  H  H40  1  0.738500  0.953300  0.362800  1.0
  H  H41  1  0.619500  0.481600  0.098100  1.0
  H  H42  1  0.380500  0.518400  0.901900  1.0
  H  H43  1  0.780200  0.513300  0.034400  1.0
  H  H44  1  0.219800  0.486700  0.965600  1.0
  H  H45  1  0.688900  0.415500  0.001300  1.0
  H  H46  1  0.311100  0.584500  0.998700  1.0
  C  C47  1  0.807500  0.283800  0.788300  1
  C  C48  1  0.192500  0.716200  0.211700  1
  C  C49  1  0.969500  0.211800  0.285500  1.0
  C  C50  1  0.030500  0.788200  0.714500  1.0
  C  C51  1  0.873300  0.316100  0.229500  1.0
  C  C52  1  0.126700  0.683900  0.770500  1.0
  C  C53  1  0.806300  0.455100  0.260100  1.0
  C  C54  1  0.193700  0.544900  0.739900  1.0
  C  C55  1  0.837400  0.484600  0.341700  1.0
  C  C56  1  0.162600  0.515400  0.658300  1.0
  C  C57  1  0.935800  0.374800  0.392200  1.0
  C  C58  1  0.064200  0.625200  0.607800  1.0
  C  C59  1  0.039100  0.197300  0.040500  1.0
  C  C60  1  0.960900  0.802700  0.959500  1.0
  C  C61  1  0.643800  0.876600  0.199700  1.0
  C  C62  1  0.356200  0.123400  0.800300  1.0
  C  C63  1  0.406600  0.173100  0.149000  1.0
  C  C64  1  0.593400  0.826900  0.851000  1.0
  C  C65  1  0.563000  0.126500  0.323400  1.0
  C  C66  1  0.437000  0.873500  0.676600  1.0
  C  C67  1  0.454400  0.254900  0.357400  1.0
  C  C68  1  0.545600  0.745100  0.642600  1.0
  C  C69  1  0.457200  0.289700  0.443800  1.0
  C  C70  1  0.542800  0.710300  0.556200  1.0
  C  C71  1  0.434600  0.800400  0.502900  1.0
  C  C72  1  0.565400  0.199600  0.497100  1.0
  C  C73  1  0.333700  0.958800  0.617000  1.0
  C  C74  1  0.666300  0.041200  0.383000  1.0
  C  C75  1  0.717600  0.440700  0.055000  1.0
  C  C76  1  0.282400  0.559300  0.945000  1.0
  S  S77  1  0.829330  0.256770  0.668110  1
  S  S78  1  0.170670  0.743230  0.331890  1
  N  N79  1  0.328500  0.925800  0.532470  1.0
  N  N80  1  0.671500  0.074200  0.467530  1.0
  N  N81  1  0.001400  0.237700  0.366500  1.0
  N  N82  1  0.998600  0.762300  0.633500  1.0
  O  O83  1  0.730700  0.385800  0.629200  1
  O  O84  1  0.269300  0.614200  0.370800  1
  O  O85  1  0.995000  0.236200  0.630500  1
  O  O86  1  0.005000  0.763800  0.369500  1
  O  O87  1  0.773300  0.124700  0.676900  1
  O  O88  1  0.226700  0.875300  0.323100  1
  O  O89  1  0.746400  0.139100  0.139590  1.0
  O  O90  1  0.253600  0.860900  0.860410  1.0
  F  F91  1  0.846600  0.404100  0.797500  1
  F  F92  1  0.153400  0.595900  0.202500  1
  F  F93  1  0.667000  0.295400  0.835100  1
  F  F94  1  0.333000  0.704600  0.164900  1
  F  F95  1  0.909700  0.174300  0.829000  1
  F  F96  1  0.090300  0.825700  0.171000  1
