# generated using pymatgen
data_Si2AgH20C14N2ClO5
_symmetry_space_group_name_H-M   'P 1'
_cell_length_a   8.68920000
_cell_length_b   13.29320000
_cell_length_c   17.30800000
_cell_angle_alpha   90.00000000
_cell_angle_beta   99.44200000
_cell_angle_gamma   90.00000000
_symmetry_Int_Tables_number   1
_chemical_formula_structural   Si2AgH20C14N2ClO5
_chemical_formula_sum   'Si8 Ag4 H80 C56 N8 Cl4 O20'
_cell_volume   1972.11507321
_cell_formula_units_Z   4
loop_
 _symmetry_equiv_pos_site_id
 _symmetry_equiv_pos_as_xyz
  1  'x, y, z'
loop_
 _atom_site_type_symbol
 _atom_site_label
 _atom_site_symmetry_multiplicity
 _atom_site_fract_x
 _atom_site_fract_y
 _atom_site_fract_z
 _atom_site_occupancy
  Si  Si1  1  0.275400  0.579960  0.093340  1.0
  Si  Si2  1  0.224600  0.079960  0.406660  1.0
  Si  Si3  1  0.724600  0.420040  0.906660  1.0
  Si  Si4  1  0.775400  0.920040  0.593340  1.0
  Si  Si5  1  0.040000  0.744920  0.125940  1.0
  Si  Si6  1  0.460000  0.244920  0.374060  1.0
  Si  Si7  1  0.960000  0.255080  0.874060  1.0
  Si  Si8  1  0.540000  0.755080  0.625940  1.0
  Ag  Ag9  1  0.629730  0.914710  0.986480  1.0
  Ag  Ag10  1  0.870270  0.414710  0.513520  1.0
  Ag  Ag11  1  0.370270  0.085290  0.013520  1.0
  Ag  Ag12  1  0.129730  0.585290  0.486480  1.0
  H  H13  1  0.471800  0.750500  0.071900  1.0
  H  H14  1  0.028200  0.250500  0.428100  1.0
  H  H15  1  0.528200  0.249500  0.928100  1.0
  H  H16  1  0.971800  0.749500  0.571900  1.0
  H  H17  1  0.211200  0.929200  0.100800  1.0
  H  H18  1  0.288800  0.429200  0.399200  1.0
  H  H19  1  0.788800  0.070800  0.899200  1.0
  H  H20  1  0.711200  0.570800  0.600800  1.0
  H  H21  1  0.237400  0.560200  0.919200  1.0
  H  H22  1  0.262600  0.060200  0.580800  1.0
  H  H23  1  0.762600  0.439800  0.080800  1.0
  H  H24  1  0.737400  0.939800  0.419200  1.0
  H  H25  1  0.310500  0.654200  0.819600  1.0
  H  H26  1  0.189500  0.154200  0.680400  1.0
  H  H27  1  0.689500  0.345800  0.180400  1.0
  H  H28  1  0.810500  0.845800  0.319600  1.0
  H  H29  1  0.460400  0.794200  0.848900  1.0
  H  H30  1  0.039600  0.294200  0.651100  1.0
  H  H31  1  0.539600  0.205800  0.151100  1.0
  H  H32  1  0.960400  0.705800  0.348900  1.0
  H  H33  1  0.932600  0.751200  0.955900  1.0
  H  H34  1  0.567400  0.251200  0.544100  1.0
  H  H35  1  0.067400  0.248800  0.044100  1.0
  H  H36  1  0.432600  0.748800  0.455900  1.0
  H  H37  1  0.453300  0.657400  0.191700  1.0
  H  H38  1  0.046700  0.157400  0.308300  1.0
  H  H39  1  0.546700  0.342600  0.808300  1.0
  H  H40  1  0.953300  0.842600  0.691700  1.0
  H  H41  1  0.517000  0.551500  0.172500  1.0
  H  H42  1  0.983000  0.051500  0.327500  1.0
  H  H43  1  0.483000  0.448500  0.827500  1.0
  H  H44  1  0.017000  0.948500  0.672500  1.0
  H  H45  1  0.386800  0.559900  0.225100  1.0
  H  H46  1  0.113200  0.059900  0.274900  1.0
  H  H47  1  0.613200  0.440100  0.774900  1.0
  H  H48  1  0.886800  0.940100  0.725100  1.0
  H  H49  1  0.781700  0.699700  0.076800  1.0
  H  H50  1  0.718300  0.199700  0.423200  1.0
  H  H51  1  0.218300  0.300300  0.923200  1.0
  H  H52  1  0.281700  0.800300  0.576800  1.0
  H  H53  1  0.783000  0.785700  0.138900  1.0
  H  H54  1  0.717000  0.285700  0.361100  1.0
  H  H55  1  0.217000  0.214300  0.861100  1.0
  H  H56  1  0.283000  0.714300  0.638900  1.0
  H  H57  1  0.818900  0.674600  0.166400  1.0
  H  H58  1  0.681100  0.174600  0.333600  1.0
  H  H59  1  0.181100  0.325400  0.833600  1.0
  H  H60  1  0.318900  0.825400  0.666400  1.0
  H  H61  1  0.140500  0.749500  0.260000  1.0
  H  H62  1  0.359500  0.249500  0.240000  1.0
  H  H63  1  0.859500  0.250500  0.740000  1.0
  H  H64  1  0.640500  0.750500  0.760000  1.0
  H  H65  1  0.082400  0.857000  0.231700  1.0
  H  H66  1  0.417600  0.357000  0.268300  1.0
  H  H67  1  0.917600  0.143000  0.768300  1.0
  H  H68  1  0.582400  0.643000  0.731700  1.0
  H  H69  1  0.243000  0.817100  0.214300  1.0
  H  H70  1  0.257000  0.317100  0.285700  1.0
  H  H71  1  0.757000  0.182900  0.785700  1.0
  H  H72  1  0.743000  0.682900  0.714300  1.0
  H  H73  1  0.182500  0.417100  0.110400  1.0
  H  H74  1  0.317500  0.917100  0.389600  1.0
  H  H75  1  0.817500  0.582900  0.889600  1.0
  H  H76  1  0.682500  0.082900  0.610400  1.0
  H  H77  1  0.312100  0.412600  0.057300  1.0
  H  H78  1  0.187900  0.912600  0.442700  1.0
  H  H79  1  0.687900  0.587400  0.942700  1.0
  H  H80  1  0.812100  0.087400  0.557300  1.0
  H  H81  1  0.142800  0.447300  0.021800  1.0
  H  H82  1  0.357200  0.947300  0.478200  1.0
  H  H83  1  0.857200  0.552700  0.978200  1.0
  H  H84  1  0.642800  0.052700  0.521800  1.0
  H  H85  1  0.991300  0.846100  0.852600  1.0
  H  H86  1  0.508700  0.346100  0.647400  1.0
  H  H87  1  0.008700  0.153900  0.147400  1.0
  H  H88  1  0.491300  0.653900  0.352600  1.0
  H  H89  1  0.161300  0.977700  0.876700  1.0
  H  H90  1  0.338700  0.477700  0.623300  1.0
  H  H91  1  0.838700  0.022300  0.123300  1.0
  H  H92  1  0.661300  0.522300  0.376700  1.0
  C  C93  1  0.438000  0.730200  0.020500  1.0
  C  C94  1  0.062000  0.230200  0.479500  1.0
  C  C95  1  0.562000  0.269800  0.979500  1.0
  C  C96  1  0.938000  0.769800  0.520500  1.0
  C  C97  1  0.166500  0.910700  0.050300  1.0
  C  C98  1  0.333500  0.410700  0.449700  1.0
  C  C99  1  0.833500  0.089300  0.949700  1.0
  C  C100  1  0.666500  0.589300  0.550300  1.0
  C  C101  1  0.067700  0.828900  0.042000  1.0
  C  C102  1  0.432300  0.328900  0.458000  1.0
  C  C103  1  0.932300  0.171100  0.958000  1.0
  C  C104  1  0.567700  0.671100  0.542000  1.0
  C  C105  1  0.345500  0.645100  0.008650  1.0
  C  C106  1  0.154500  0.145100  0.491350  1.0
  C  C107  1  0.654500  0.354900  0.991350  1.0
  C  C108  1  0.845500  0.854900  0.508650  1.0
  C  C109  1  0.298800  0.617200  0.931000  1.0
  C  C110  1  0.201200  0.117200  0.569000  1.0
  C  C111  1  0.701200  0.382800  0.069000  1.0
  C  C112  1  0.798800  0.882800  0.431000  1.0
  C  C113  1  0.342200  0.672900  0.871500  1.0
  C  C114  1  0.157800  0.172900  0.628500  1.0
  C  C115  1  0.657800  0.327100  0.128500  1.0
  C  C116  1  0.842200  0.827100  0.371500  1.0
  C  C117  1  0.432500  0.756200  0.889600  1.0
  C  C118  1  0.067500  0.256200  0.610400  1.0
  C  C119  1  0.567500  0.243800  0.110400  1.0
  C  C120  1  0.932500  0.743800  0.389600  1.0
  C  C121  1  0.001100  0.805200  0.965400  1.0
  C  C122  1  0.498900  0.305200  0.534600  1.0
  C  C123  1  0.998900  0.194800  0.034600  1.0
  C  C124  1  0.501100  0.694800  0.465400  1.0
  C  C125  1  0.426200  0.588200  0.181200  1.0
  C  C126  1  0.073800  0.088200  0.318800  1.0
  C  C127  1  0.573800  0.411800  0.818800  1.0
  C  C128  1  0.926200  0.911800  0.681200  1.0
  C  C129  1  0.830800  0.723700  0.127200  1.0
  C  C130  1  0.669200  0.223700  0.372800  1.0
  C  C131  1  0.169200  0.276300  0.872800  1.0
  C  C132  1  0.330800  0.776300  0.627200  1.0
  C  C133  1  0.138200  0.798500  0.219100  1.0
  C  C134  1  0.361800  0.298500  0.280900  1.0
  C  C135  1  0.861800  0.201500  0.780900  1.0
  C  C136  1  0.638200  0.701500  0.719100  1.0
  C  C137  1  0.221800  0.448500  0.067600  1.0
  C  C138  1  0.278200  0.948500  0.432400  1.0
  C  C139  1  0.778200  0.551500  0.932400  1.0
  C  C140  1  0.721800  0.051500  0.567600  1.0
  C  C141  1  0.036100  0.861600  0.903800  1.0
  C  C142  1  0.463900  0.361600  0.596200  1.0
  C  C143  1  0.963900  0.138400  0.096200  1.0
  C  C144  1  0.536100  0.638400  0.403800  1.0
  C  C145  1  0.137500  0.940400  0.918700  1.0
  C  C146  1  0.362500  0.440400  0.581300  1.0
  C  C147  1  0.862500  0.059600  0.081300  1.0
  C  C148  1  0.637500  0.559600  0.418700  1.0
  N  N149  1  0.482600  0.785600  0.963130  1.0
  N  N150  1  0.017400  0.285600  0.536870  1.0
  N  N151  1  0.517400  0.214400  0.036870  1.0
  N  N152  1  0.982600  0.714400  0.463130  1.0
  N  N153  1  0.203000  0.965800  0.990510  1.0
  N  N154  1  0.297000  0.465800  0.509490  1.0
  N  N155  1  0.797000  0.034200  0.009490  1.0
  N  N156  1  0.703000  0.534200  0.490510  1.0
  Cl  Cl157  1  0.536060  0.971450  0.210370  1
  Cl  Cl158  1  0.963940  0.471450  0.289630  1
  Cl  Cl159  1  0.463940  0.028550  0.789630  1
  Cl  Cl160  1  0.036060  0.528550  0.710370  1
  O  O161  1  0.678000  0.018200  0.239900  1
  O  O162  1  0.822000  0.518200  0.260100  1
  O  O163  1  0.322000  0.981800  0.760100  1
  O  O164  1  0.178000  0.481800  0.739900  1
  O  O165  1  0.409600  0.040900  0.197100  1
  O  O166  1  0.090400  0.540900  0.302900  1
  O  O167  1  0.590400  0.959100  0.802900  1
  O  O168  1  0.909600  0.459100  0.697100  1
  O  O169  1  0.545700  0.929900  0.137600  1
  O  O170  1  0.954300  0.429900  0.362400  1
  O  O171  1  0.454300  0.070100  0.862400  1
  O  O172  1  0.045700  0.570100  0.637600  1
  O  O173  1  0.503100  0.899000  0.261600  1
  O  O174  1  0.996900  0.399000  0.238400  1
  O  O175  1  0.496900  0.101000  0.738400  1
  O  O176  1  0.003100  0.601000  0.761600  1
  O  O177  1  0.117100  0.637970  0.107340  1.0
  O  O178  1  0.382900  0.137970  0.392660  1.0
  O  O179  1  0.882900  0.362030  0.892660  1.0
  O  O180  1  0.617100  0.862030  0.607340  1.0
