# generated using pymatgen
data_H39PdC60S3N7O10F9
_symmetry_space_group_name_H-M   'P 1'
_cell_length_a   12.70150000
_cell_length_b   13.92740000
_cell_length_c   35.09760000
_cell_angle_alpha   90.00000000
_cell_angle_beta   90.00000000
_cell_angle_gamma   115.94100000
_symmetry_Int_Tables_number   1
_chemical_formula_structural   H39PdC60S3N7O10F9
_chemical_formula_sum   'H156 Pd4 C240 S12 N28 O40 F36'
_cell_volume   5583.16552347
_cell_formula_units_Z   4
loop_
 _symmetry_equiv_pos_site_id
 _symmetry_equiv_pos_as_xyz
  1  'x, y, z'
loop_
 _atom_site_type_symbol
 _atom_site_label
 _atom_site_symmetry_multiplicity
 _atom_site_fract_x
 _atom_site_fract_y
 _atom_site_fract_z
 _atom_site_occupancy
  H  H1  1  0.510900  0.241600  0.568400  1
  H  H2  1  0.489100  0.258400  0.068400  1
  H  H3  1  0.489100  0.758400  0.431600  1
  H  H4  1  0.510900  0.741600  0.931600  1
  H  H5  1  0.420600  0.128500  0.585100  1
  H  H6  1  0.579400  0.371500  0.085100  1
  H  H7  1  0.579400  0.871500  0.414900  1
  H  H8  1  0.420600  0.628500  0.914900  1
  H  H9  1  0.386300  0.226200  0.584200  1
  H  H10  1  0.613700  0.273800  0.084200  1
  H  H11  1  0.613700  0.773800  0.415800  1
  H  H12  1  0.386300  0.726200  0.915800  1
  H  H13  1  0.747100  0.435200  0.284300  1
  H  H14  1  0.252900  0.064800  0.784300  1
  H  H15  1  0.252900  0.564800  0.715700  1
  H  H16  1  0.747100  0.935200  0.215700  1
  H  H17  1  0.740600  0.343600  0.255500  1
  H  H18  1  0.259400  0.156400  0.755500  1
  H  H19  1  0.259400  0.656400  0.744500  1
  H  H20  1  0.740600  0.843600  0.244500  1
  H  H21  1  0.845500  0.392700  0.285700  1
  H  H22  1  0.154500  0.107300  0.785700  1
  H  H23  1  0.154500  0.607300  0.714300  1
  H  H24  1  0.845500  0.892700  0.214300  1
  H  H25  1  0.221600  0.512000  0.623400  1
  H  H26  1  0.778400  0.988000  0.123400  1
  H  H27  1  0.778400  0.488000  0.376600  1
  H  H28  1  0.221600  0.012000  0.876600  1
  H  H29  1  0.211100  0.399600  0.638400  1
  H  H30  1  0.788900  0.100400  0.138400  1
  H  H31  1  0.788900  0.600400  0.361600  1
  H  H32  1  0.211100  0.899600  0.861600  1
  H  H33  1  0.134600  0.452000  0.657700  1
  H  H34  1  0.865400  0.048000  0.157700  1
  H  H35  1  0.865400  0.548000  0.342300  1
  H  H36  1  0.134600  0.952000  0.842300  1
  H  H37  1  0.035800  0.885800  0.315600  1.0
  H  H38  1  0.964200  0.614200  0.815600  1.0
  H  H39  1  0.964200  0.114200  0.684400  1.0
  H  H40  1  0.035800  0.385800  0.184400  1.0
  H  H41  1  0.854900  0.852300  0.342100  1.0
  H  H42  1  0.145100  0.647700  0.842100  1.0
  H  H43  1  0.145100  0.147700  0.657900  1.0
  H  H44  1  0.854900  0.352300  0.157900  1.0
  H  H45  1  0.833900  0.848900  0.408400  1.0
  H  H46  1  0.166100  0.651100  0.908400  1.0
  H  H47  1  0.166100  0.151100  0.591600  1.0
  H  H48  1  0.833900  0.348900  0.091600  1.0
  H  H49  1  0.178800  0.923900  0.418000  1.0
  H  H50  1  0.821200  0.576100  0.918000  1.0
  H  H51  1  0.821200  0.076100  0.582000  1.0
  H  H52  1  0.178800  0.423900  0.082000  1.0
  H  H53  1  0.807000  0.805300  0.539600  1.0
  H  H54  1  0.193000  0.694700  0.039600  1.0
  H  H55  1  0.193000  0.194700  0.460400  1.0
  H  H56  1  0.807000  0.305300  0.960400  1.0
  H  H57  1  0.796600  0.780200  0.605700  1.0
  H  H58  1  0.203400  0.719800  0.105700  1.0
  H  H59  1  0.203400  0.219800  0.394300  1.0
  H  H60  1  0.796600  0.280200  0.894300  1.0
  H  H61  1  0.966400  0.834800  0.642000  1.0
  H  H62  1  0.033600  0.665200  0.142000  1.0
  H  H63  1  0.033600  0.165200  0.358000  1.0
  H  H64  1  0.966400  0.334800  0.858000  1.0
  H  H65  1  0.162700  0.938900  0.545900  1.0
  H  H66  1  0.837300  0.561100  0.045900  1.0
  H  H67  1  0.837300  0.061100  0.454100  1.0
  H  H68  1  0.162700  0.438900  0.954100  1.0
  H  H69  1  0.615700  0.079300  0.733200  1.0
  H  H70  1  0.384300  0.420700  0.233200  1.0
  H  H71  1  0.384300  0.920700  0.266800  1.0
  H  H72  1  0.615700  0.579300  0.766800  1.0
  H  H73  1  0.433200  0.050000  0.757100  1.0
  H  H74  1  0.566800  0.450000  0.257100  1.0
  H  H75  1  0.566800  0.950000  0.242900  1.0
  H  H76  1  0.433200  0.550000  0.742900  1.0
  H  H77  1  0.274200  0.004800  0.715600  1.0
  H  H78  1  0.725800  0.495200  0.215600  1.0
  H  H79  1  0.725800  0.995200  0.284400  1.0
  H  H80  1  0.274200  0.504800  0.784400  1.0
  H  H81  1  0.489300  0.020100  0.628100  1.0
  H  H82  1  0.510700  0.479900  0.128100  1.0
  H  H83  1  0.510700  0.979900  0.371900  1.0
  H  H84  1  0.489300  0.520100  0.871900  1.0
  H  H85  1  0.242200  0.066800  0.283700  1.0
  H  H86  1  0.757800  0.433200  0.783700  1.0
  H  H87  1  0.757800  0.933200  0.716300  1.0
  H  H88  1  0.242200  0.566800  0.216300  1.0
  H  H89  1  0.289400  0.247700  0.276300  1.0
  H  H90  1  0.710600  0.252300  0.776300  1.0
  H  H91  1  0.710600  0.752300  0.723700  1.0
  H  H92  1  0.289400  0.747700  0.223700  1.0
  H  H93  1  0.395100  0.369300  0.324000  1.0
  H  H94  1  0.604900  0.130700  0.824000  1.0
  H  H95  1  0.604900  0.630700  0.676000  1.0
  H  H96  1  0.395100  0.869300  0.176000  1.0
  H  H97  1  0.400500  0.123300  0.384000  1.0
  H  H98  1  0.599500  0.376700  0.884000  1.0
  H  H99  1  0.599500  0.876700  0.616000  1.0
  H  H100  1  0.400500  0.623300  0.116000  1.0
  H  H101  1  0.580800  0.328000  0.483200  1.0
  H  H102  1  0.419200  0.172000  0.983200  1.0
  H  H103  1  0.419200  0.672000  0.516800  1.0
  H  H104  1  0.580800  0.828000  0.016800  1.0
  H  H105  1  0.781500  0.625700  0.523800  1.0
  H  H106  1  0.218500  0.874300  0.023800  1.0
  H  H107  1  0.218500  0.374300  0.476200  1.0
  H  H108  1  0.781500  0.125700  0.976200  1.0
  H  H109  1  0.747600  0.699300  0.467900  1.0
  H  H110  1  0.252400  0.800700  0.967900  1.0
  H  H111  1  0.252400  0.300700  0.532100  1.0
  H  H112  1  0.747600  0.199300  0.032100  1.0
  H  H113  1  0.628100  0.588300  0.420100  1.0
  H  H114  1  0.371900  0.911700  0.920100  1.0
  H  H115  1  0.371900  0.411700  0.579900  1.0
  H  H116  1  0.628100  0.088300  0.079900  1.0
  H  H117  1  0.851000  0.283400  0.697900  1.0
  H  H118  1  0.149000  0.216600  0.197900  1.0
  H  H119  1  0.149000  0.716600  0.302100  1.0
  H  H120  1  0.851000  0.783400  0.802100  1.0
  H  H121  1  0.899600  0.463700  0.689000  1.0
  H  H122  1  0.100400  0.036300  0.189000  1.0
  H  H123  1  0.100400  0.536300  0.311000  1.0
  H  H124  1  0.899600  0.963700  0.811000  1.0
  H  H125  1  0.841500  0.518600  0.633100  1.0
  H  H126  1  0.158500  0.981400  0.133100  1.0
  H  H127  1  0.158500  0.481400  0.366900  1.0
  H  H128  1  0.841500  0.018600  0.866900  1.0
  H  H129  1  0.694300  0.210400  0.597500  1.0
  H  H130  1  0.305700  0.289600  0.097500  1.0
  H  H131  1  0.305700  0.789600  0.402500  1.0
  H  H132  1  0.694300  0.710400  0.902500  1.0
  H  H133  1  0.589300  0.134100  0.416100  1.0
  H  H134  1  0.410700  0.365900  0.916100  1.0
  H  H135  1  0.410700  0.865900  0.583900  1.0
  H  H136  1  0.589300  0.634100  0.083900  1.0
  H  H137  1  0.768900  0.286300  0.391900  1.0
  H  H138  1  0.231100  0.213700  0.891900  1.0
  H  H139  1  0.231100  0.713700  0.608100  1.0
  H  H140  1  0.768900  0.786300  0.108100  1.0
  H  H141  1  0.954600  0.419700  0.403100  1.0
  H  H142  1  0.045400  0.080300  0.903100  1.0
  H  H143  1  0.045400  0.580300  0.596900  1.0
  H  H144  1  0.954600  0.919700  0.096900  1.0
  H  H145  1  0.036600  0.447000  0.464500  1.0
  H  H146  1  0.963400  0.053000  0.964500  1.0
  H  H147  1  0.963400  0.553000  0.535500  1.0
  H  H148  1  0.036600  0.947000  0.035500  1.0
  H  H149  1  0.935300  0.337600  0.514700  1.0
  H  H150  1  0.064700  0.162400  0.014700  1.0
  H  H151  1  0.064700  0.662400  0.485300  1.0
  H  H152  1  0.935300  0.837600  0.985300  1.0
  H  H153  1  0.757700  0.179300  0.537600  1.0
  H  H154  1  0.242300  0.320700  0.037600  1.0
  H  H155  1  0.242300  0.820700  0.462400  1.0
  H  H156  1  0.757700  0.679300  0.962400  1.0
  Pd  Pd157  1  0.724540  0.075560  0.657830  1.0
  Pd  Pd158  1  0.275460  0.424440  0.157830  1.0
  Pd  Pd159  1  0.275460  0.924440  0.342170  1.0
  Pd  Pd160  1  0.724540  0.575560  0.842170  1.0
  C  C161  1  0.024100  0.786400  0.736250  1
  C  C162  1  0.975900  0.713600  0.236250  1
  C  C163  1  0.975900  0.213600  0.263750  1
  C  C164  1  0.024100  0.286400  0.763750  1
  C  C165  1  0.528900  0.365500  0.682500  1
  C  C166  1  0.471100  0.134500  0.182500  1
  C  C167  1  0.471100  0.634500  0.317500  1
  C  C168  1  0.528900  0.865500  0.817500  1
  C  C169  1  0.378200  0.159300  0.533370  1
  C  C170  1  0.621800  0.340700  0.033370  1
  C  C171  1  0.621800  0.840700  0.466630  1
  C  C172  1  0.378200  0.659300  0.966630  1
  C  C173  1  0.427900  0.191500  0.570730  1
  C  C174  1  0.572100  0.308500  0.070730  1
  C  C175  1  0.572100  0.808500  0.429270  1
  C  C176  1  0.427900  0.691500  0.929270  1
  C  C177  1  0.692400  0.290900  0.309150  1
  C  C178  1  0.307600  0.209100  0.809150  1
  C  C179  1  0.307600  0.709100  0.690850  1
  C  C180  1  0.692400  0.790900  0.190850  1
  C  C181  1  0.762200  0.372300  0.281370  1
  C  C182  1  0.237800  0.127700  0.781370  1
  C  C183  1  0.237800  0.627700  0.718630  1
  C  C184  1  0.762200  0.872300  0.218630  1
  C  C185  1  0.075300  0.387600  0.606740  1
  C  C186  1  0.924700  0.112400  0.106740  1
  C  C187  1  0.924700  0.612400  0.393260  1
  C  C188  1  0.075300  0.887600  0.893260  1
  C  C189  1  0.168100  0.442100  0.633720  1
  C  C190  1  0.831900  0.057900  0.133720  1
  C  C191  1  0.831900  0.557900  0.366280  1
  C  C192  1  0.168100  0.942100  0.866280  1
  C  C193  1  0.534300  0.354500  0.702100  1
  C  C194  1  0.465700  0.145500  0.202100  1
  C  C195  1  0.465700  0.645500  0.297900  1
  C  C196  1  0.534300  0.854500  0.797900  1
  C  C197  1  0.027800  0.885800  0.342540  1.0
  C  C198  1  0.972200  0.614200  0.842540  1.0
  C  C199  1  0.972200  0.114200  0.657460  1.0
  C  C200  1  0.027800  0.385800  0.157460  1.0
  C  C201  1  0.920100  0.865500  0.358150  1.0
  C  C202  1  0.079900  0.634500  0.858150  1.0
  C  C203  1  0.079900  0.134500  0.641850  1.0
  C  C204  1  0.920100  0.365500  0.141850  1.0
  C  C205  1  0.907900  0.864600  0.397380  1.0
  C  C206  1  0.092100  0.635400  0.897380  1.0
  C  C207  1  0.092100  0.135400  0.602620  1.0
  C  C208  1  0.907900  0.364600  0.102620  1.0
  C  C209  1  0.005100  0.886900  0.420670  1.0
  C  C210  1  0.994900  0.613100  0.920670  1.0
  C  C211  1  0.994900  0.113100  0.579330  1.0
  C  C212  1  0.005100  0.386900  0.079330  1.0
  C  C213  1  0.111400  0.907700  0.402700  1.0
  C  C214  1  0.888600  0.592300  0.902700  1.0
  C  C215  1  0.888600  0.092300  0.597300  1.0
  C  C216  1  0.111400  0.407700  0.097300  1.0
  C  C217  1  0.998400  0.884200  0.461200  1.0
  C  C218  1  0.001600  0.615800  0.961200  1.0
  C  C219  1  0.001600  0.115800  0.538800  1.0
  C  C220  1  0.998400  0.384200  0.038800  1.0
  C  C221  1  0.993300  0.880100  0.495410  1.0
  C  C222  1  0.006700  0.619900  0.995410  1.0
  C  C223  1  0.006700  0.119900  0.504590  1.0
  C  C224  1  0.993300  0.380100  0.004590  1.0
  C  C225  1  0.986200  0.871400  0.536190  1.0
  C  C226  1  0.013800  0.628600  0.036190  1.0
  C  C227  1  0.013800  0.128600  0.463810  1.0
  C  C228  1  0.986200  0.371400  0.963810  1.0
  C  C229  1  0.876700  0.826300  0.554180  1.0
  C  C230  1  0.123300  0.673700  0.054180  1.0
  C  C231  1  0.123300  0.173700  0.445820  1.0
  C  C232  1  0.876700  0.326300  0.945820  1.0
  C  C233  1  0.870800  0.812600  0.593600  1.0
  C  C234  1  0.129200  0.687400  0.093600  1.0
  C  C235  1  0.129200  0.187400  0.406400  1.0
  C  C236  1  0.870800  0.312600  0.906400  1.0
  C  C237  1  0.971600  0.845700  0.615260  1.0
  C  C238  1  0.028400  0.654300  0.115260  1.0
  C  C239  1  0.028400  0.154300  0.384740  1.0
  C  C240  1  0.971600  0.345700  0.884740  1.0
  C  C241  1  0.081200  0.895000  0.597580  1.0
  C  C242  1  0.918800  0.605000  0.097580  1.0
  C  C243  1  0.918800  0.105000  0.402420  1.0
  C  C244  1  0.081200  0.395000  0.902420  1.0
  C  C245  1  0.088400  0.906800  0.557960  1.0
  C  C246  1  0.911600  0.593200  0.057960  1.0
  C  C247  1  0.911600  0.093200  0.442040  1.0
  C  C248  1  0.088400  0.406800  0.942040  1.0
  C  C249  1  0.551500  0.061300  0.716260  1.0
  C  C250  1  0.448500  0.438700  0.216260  1.0
  C  C251  1  0.448500  0.938700  0.283740  1.0
  C  C252  1  0.551500  0.561300  0.783740  1.0
  C  C253  1  0.443000  0.043500  0.730570  1.0
  C  C254  1  0.557000  0.456500  0.230570  1.0
  C  C255  1  0.557000  0.956500  0.269430  1.0
  C  C256  1  0.443000  0.543500  0.769430  1.0
  C  C257  1  0.348900  0.016300  0.706090  1.0
  C  C258  1  0.651100  0.483700  0.206090  1.0
  C  C259  1  0.651100  0.983700  0.293910  1.0
  C  C260  1  0.348900  0.516300  0.793910  1.0
  C  C261  1  0.365100  0.005900  0.667250  1.0
  C  C262  1  0.634900  0.494100  0.167250  1.0
  C  C263  1  0.634900  0.994100  0.332750  1.0
  C  C264  1  0.365100  0.505900  0.832750  1.0
  C  C265  1  0.476900  0.026000  0.654520  1.0
  C  C266  1  0.523100  0.474000  0.154520  1.0
  C  C267  1  0.523100  0.974000  0.345480  1.0
  C  C268  1  0.476900  0.526000  0.845480  1.0
  C  C269  1  0.268500  0.970700  0.641130  1.0
  C  C270  1  0.731500  0.529300  0.141130  1.0
  C  C271  1  0.731500  0.029300  0.358870  1.0
  C  C272  1  0.268500  0.470700  0.858870  1.0
  C  C273  1  0.185300  0.936100  0.620570  1.0
  C  C274  1  0.814700  0.563900  0.120570  1.0
  C  C275  1  0.814700  0.063900  0.379430  1.0
  C  C276  1  0.185300  0.436100  0.879430  1.0
  C  C277  1  0.285200  0.116000  0.303020  1.0
  C  C278  1  0.714800  0.384000  0.803020  1.0
  C  C279  1  0.714800  0.884000  0.696980  1.0
  C  C280  1  0.285200  0.616000  0.196980  1.0
  C  C281  1  0.313200  0.223700  0.298600  1.0
  C  C282  1  0.686800  0.276300  0.798600  1.0
  C  C283  1  0.686800  0.776300  0.701400  1.0
  C  C284  1  0.313200  0.723700  0.201400  1.0
  C  C285  1  0.375600  0.295500  0.326680  1.0
  C  C286  1  0.624400  0.204500  0.826680  1.0
  C  C287  1  0.624400  0.704500  0.673320  1.0
  C  C288  1  0.375600  0.795500  0.173320  1.0
  C  C289  1  0.409500  0.258400  0.359060  1.0
  C  C290  1  0.590500  0.241600  0.859060  1.0
  C  C291  1  0.590500  0.741600  0.640940  1.0
  C  C292  1  0.409500  0.758400  0.140940  1.0
  C  C293  1  0.378400  0.149500  0.361940  1.0
  C  C294  1  0.621600  0.350500  0.861940  1.0
  C  C295  1  0.621600  0.850500  0.638060  1.0
  C  C296  1  0.378400  0.649500  0.138060  1.0
  C  C297  1  0.473800  0.326500  0.389840  1.0
  C  C298  1  0.526200  0.173500  0.889840  1.0
  C  C299  1  0.526200  0.673500  0.610160  1.0
  C  C300  1  0.473800  0.826500  0.110160  1.0
  C  C301  1  0.525900  0.379700  0.416500  1.0
  C  C302  1  0.474100  0.120300  0.916500  1.0
  C  C303  1  0.474100  0.620300  0.583500  1.0
  C  C304  1  0.525900  0.879700  0.083500  1.0
  C  C305  1  0.593600  0.446700  0.447020  1.0
  C  C306  1  0.406400  0.053300  0.947020  1.0
  C  C307  1  0.406400  0.553300  0.552980  1.0
  C  C308  1  0.593600  0.946700  0.052980  1.0
  C  C309  1  0.614300  0.403300  0.480200  1.0
  C  C310  1  0.385700  0.096700  0.980200  1.0
  C  C311  1  0.385700  0.596700  0.519800  1.0
  C  C312  1  0.614300  0.903300  0.019800  1.0
  C  C313  1  0.683200  0.468800  0.508950  1.0
  C  C314  1  0.316800  0.031200  0.008950  1.0
  C  C315  1  0.316800  0.531200  0.491050  1.0
  C  C316  1  0.683200  0.968800  0.991050  1.0
  C  C317  1  0.733600  0.580300  0.504250  1.0
  C  C318  1  0.266400  0.919700  0.004250  1.0
  C  C319  1  0.266400  0.419700  0.495750  1.0
  C  C320  1  0.733600  0.080300  0.995750  1.0
  C  C321  1  0.713200  0.624000  0.471090  1.0
  C  C322  1  0.286800  0.876000  0.971090  1.0
  C  C323  1  0.286800  0.376000  0.528910  1.0
  C  C324  1  0.713200  0.124000  0.028910  1.0
  C  C325  1  0.642900  0.558200  0.442570  1.0
  C  C326  1  0.357100  0.941800  0.942570  1.0
  C  C327  1  0.357100  0.441800  0.557430  1.0
  C  C328  1  0.642900  0.058200  0.057430  1.0
  C  C329  1  0.827800  0.305500  0.675110  1.0
  C  C330  1  0.172200  0.194500  0.175110  1.0
  C  C331  1  0.172200  0.694500  0.324890  1.0
  C  C332  1  0.827800  0.805500  0.824890  1.0
  C  C333  1  0.857100  0.413000  0.669940  1.0
  C  C334  1  0.142900  0.087000  0.169940  1.0
  C  C335  1  0.142900  0.587000  0.330060  1.0
  C  C336  1  0.857100  0.913000  0.830060  1.0
  C  C337  1  0.823800  0.445500  0.636840  1.0
  C  C338  1  0.176200  0.054500  0.136840  1.0
  C  C339  1  0.176200  0.554500  0.363160  1.0
  C  C340  1  0.823800  0.945500  0.863160  1.0
  C  C341  1  0.763700  0.369900  0.608730  1.0
  C  C342  1  0.236300  0.130100  0.108730  1.0
  C  C343  1  0.236300  0.630100  0.391270  1.0
  C  C344  1  0.763700  0.869900  0.891270  1.0
  C  C345  1  0.736200  0.262800  0.616100  1.0
  C  C346  1  0.263800  0.237200  0.116100  1.0
  C  C347  1  0.263800  0.737200  0.383900  1.0
  C  C348  1  0.736200  0.762800  0.883900  1.0
  C  C349  1  0.731100  0.399400  0.573310  1.0
  C  C350  1  0.268900  0.100600  0.073310  1.0
  C  C351  1  0.268900  0.600600  0.426690  1.0
  C  C352  1  0.731100  0.899400  0.926690  1.0
  C  C353  1  0.706600  0.427800  0.543700  1.0
  C  C354  1  0.293400  0.072200  0.043700  1.0
  C  C355  1  0.293400  0.572200  0.456300  1.0
  C  C356  1  0.706600  0.927800  0.956300  1.0
  C  C357  1  0.563300  0.074100  0.469630  1.0
  C  C358  1  0.436700  0.425900  0.969630  1.0
  C  C359  1  0.436700  0.925900  0.530370  1.0
  C  C360  1  0.563300  0.574100  0.030370  1.0
  C  C361  1  0.624100  0.143200  0.440640  1.0
  C  C362  1  0.375900  0.356800  0.940640  1.0
  C  C363  1  0.375900  0.856800  0.559360  1.0
  C  C364  1  0.624100  0.643200  0.059360  1.0
  C  C365  1  0.736900  0.227200  0.446550  1.0
  C  C366  1  0.263100  0.272800  0.946550  1.0
  C  C367  1  0.263100  0.772800  0.553450  1.0
  C  C368  1  0.736900  0.727200  0.053450  1.0
  C  C369  1  0.801700  0.295500  0.416700  1.0
  C  C370  1  0.198300  0.204500  0.916700  1.0
  C  C371  1  0.198300  0.704500  0.583300  1.0
  C  C372  1  0.801700  0.795500  0.083300  1.0
  C  C373  1  0.911300  0.374800  0.423410  1.0
  C  C374  1  0.088700  0.125200  0.923410  1.0
  C  C375  1  0.088700  0.625200  0.576590  1.0
  C  C376  1  0.911300  0.874800  0.076590  1.0
  C  C377  1  0.960800  0.390700  0.460260  1.0
  C  C378  1  0.039200  0.109300  0.960260  1.0
  C  C379  1  0.039200  0.609300  0.539740  1.0
  C  C380  1  0.960800  0.890700  0.039740  1.0
  C  C381  1  0.901300  0.326200  0.489980  1.0
  C  C382  1  0.098700  0.173800  0.989980  1.0
  C  C383  1  0.098700  0.673800  0.510020  1.0
  C  C384  1  0.901300  0.826200  0.010020  1.0
  C  C385  1  0.787900  0.241900  0.483570  1.0
  C  C386  1  0.212100  0.258100  0.983570  1.0
  C  C387  1  0.212100  0.758100  0.516430  1.0
  C  C388  1  0.787900  0.741900  0.016430  1.0
  C  C389  1  0.724200  0.170300  0.512910  1.0
  C  C390  1  0.275800  0.329700  0.012910  1.0
  C  C391  1  0.275800  0.829700  0.487090  1.0
  C  C392  1  0.724200  0.670300  0.987090  1.0
  C  C393  1  0.614700  0.087600  0.506640  1.0
  C  C394  1  0.385300  0.412400  0.006640  1.0
  C  C395  1  0.385300  0.912400  0.493360  1.0
  C  C396  1  0.614700  0.587600  0.993360  1.0
  C  C397  1  0.446400  0.985900  0.461580  1.0
  C  C398  1  0.553600  0.514100  0.961580  1.0
  C  C399  1  0.553600  0.014100  0.538420  1.0
  C  C400  1  0.446400  0.485900  0.038420  1.0
  S  S401  1  0.904120  0.653120  0.730780  1
  S  S402  1  0.095880  0.846880  0.230780  1
  S  S403  1  0.095880  0.346880  0.269220  1
  S  S404  1  0.904120  0.153120  0.769220  1
  S  S405  1  0.377770  0.340670  0.677000  1
  S  S406  1  0.622230  0.159330  0.177000  1
  S  S407  1  0.622230  0.659330  0.323000  1
  S  S408  1  0.377770  0.840670  0.823000  1
  S  S409  1  0.412000  0.346300  0.673400  1
  S  S410  1  0.588000  0.153700  0.173400  1
  S  S411  1  0.588000  0.653700  0.326600  1
  S  S412  1  0.412000  0.846300  0.826600  1
  N  N413  1  0.339100  0.133500  0.503760  1
  N  N414  1  0.660900  0.366500  0.003760  1
  N  N415  1  0.660900  0.866500  0.496240  1
  N  N416  1  0.339100  0.633500  0.996240  1
  N  N417  1  0.639600  0.230900  0.331460  1
  N  N418  1  0.360400  0.269100  0.831460  1
  N  N419  1  0.360400  0.769100  0.668540  1
  N  N420  1  0.639600  0.730900  0.168540  1
  N  N421  1  0.001600  0.345300  0.585740  1
  N  N422  1  0.998400  0.154700  0.085740  1
  N  N423  1  0.998400  0.654700  0.414260  1
  N  N424  1  0.001600  0.845300  0.914260  1
  N  N425  1  0.121700  0.905580  0.364800  1.0
  N  N426  1  0.878300  0.594420  0.864800  1.0
  N  N427  1  0.878300  0.094420  0.635200  1.0
  N  N428  1  0.121700  0.405580  0.135200  1.0
  N  N429  1  0.567400  0.053440  0.678610  1.0
  N  N430  1  0.432600  0.446560  0.178610  1.0
  N  N431  1  0.432600  0.946560  0.321390  1.0
  N  N432  1  0.567400  0.553440  0.821390  1.0
  N  N433  1  0.318200  0.080540  0.334350  1.0
  N  N434  1  0.681800  0.419460  0.834350  1.0
  N  N435  1  0.681800  0.919460  0.665650  1.0
  N  N436  1  0.318200  0.580540  0.165650  1.0
  N  N437  1  0.767500  0.231710  0.648800  1.0
  N  N438  1  0.232500  0.268290  0.148800  1.0
  N  N439  1  0.232500  0.768290  0.351200  1.0
  N  N440  1  0.767500  0.731710  0.851200  1.0
  O  O441  1  0.955700  0.583700  0.741860  1
  O  O442  1  0.044300  0.916300  0.241860  1
  O  O443  1  0.044300  0.416300  0.258140  1
  O  O444  1  0.955700  0.083700  0.758140  1
  O  O445  1  0.818200  0.654100  0.757520  1
  O  O446  1  0.181800  0.845900  0.257520  1
  O  O447  1  0.181800  0.345900  0.242480  1
  O  O448  1  0.818200  0.154100  0.742480  1
  O  O449  1  0.872300  0.649300  0.691390  1
  O  O450  1  0.127700  0.850700  0.191390  1
  O  O451  1  0.127700  0.350700  0.308610  1
  O  O452  1  0.872300  0.149300  0.808610  1
  O  O453  1  0.352800  0.309200  0.637580  1
  O  O454  1  0.647200  0.190800  0.137580  1
  O  O455  1  0.647200  0.690800  0.362420  1
  O  O456  1  0.352800  0.809200  0.862420  1
  O  O457  1  0.316200  0.254000  0.702790  1
  O  O458  1  0.683800  0.246000  0.202790  1
  O  O459  1  0.683800  0.746000  0.297210  1
  O  O460  1  0.316200  0.754000  0.797210  1
  O  O461  1  0.379700  0.442500  0.685700  1
  O  O462  1  0.620300  0.057500  0.185700  1
  O  O463  1  0.620300  0.557500  0.314300  1
  O  O464  1  0.379700  0.942500  0.814300  1
  O  O465  1  0.453000  0.361000  0.635600  1
  O  O466  1  0.547000  0.139000  0.135600  1
  O  O467  1  0.547000  0.639000  0.364400  1
  O  O468  1  0.453000  0.861000  0.864400  1
  O  O469  1  0.327300  0.235900  0.681900  1
  O  O470  1  0.672700  0.264100  0.181900  1
  O  O471  1  0.672700  0.764100  0.318100  1
  O  O472  1  0.327300  0.735900  0.818100  1
  O  O473  1  0.381000  0.425200  0.689700  1
  O  O474  1  0.619000  0.074800  0.189700  1
  O  O475  1  0.619000  0.574800  0.310300  1
  O  O476  1  0.381000  0.925200  0.810300  1
  O  O477  1  0.402200  0.972960  0.429650  1.0
  O  O478  1  0.597800  0.527040  0.929650  1.0
  O  O479  1  0.597800  0.027040  0.570350  1.0
  O  O480  1  0.402200  0.472960  0.070350  1.0
  F  F481  1  0.112600  0.799400  0.713350  1
  F  F482  1  0.887400  0.700600  0.213350  1
  F  F483  1  0.887400  0.200600  0.286650  1
  F  F484  1  0.112600  0.299400  0.786650  1
  F  F485  1  0.064100  0.804300  0.771990  1
  F  F486  1  0.935900  0.695700  0.271990  1
  F  F487  1  0.935900  0.195700  0.228010  1
  F  F488  1  0.064100  0.304300  0.728010  1
  F  F489  1  0.990600  0.861200  0.727740  1
  F  F490  1  0.009400  0.638800  0.227740  1
  F  F491  1  0.009400  0.138800  0.272260  1
  F  F492  1  0.990600  0.361200  0.772260  1
  F  F493  1  0.547200  0.281400  0.673090  1
  F  F494  1  0.452800  0.218600  0.173090  1
  F  F495  1  0.452800  0.718600  0.326910  1
  F  F496  1  0.547200  0.781400  0.826910  1
  F  F497  1  0.567000  0.392900  0.717800  1
  F  F498  1  0.433000  0.107100  0.217800  1
  F  F499  1  0.433000  0.607100  0.282200  1
  F  F500  1  0.567000  0.892900  0.782200  1
  F  F501  1  0.596500  0.445200  0.659400  1
  F  F502  1  0.403500  0.054800  0.159400  1
  F  F503  1  0.403500  0.554800  0.340600  1
  F  F504  1  0.596500  0.945200  0.840600  1
  F  F505  1  0.570800  0.284000  0.690400  1
  F  F506  1  0.429200  0.216000  0.190400  1
  F  F507  1  0.429200  0.716000  0.309600  1
  F  F508  1  0.570800  0.784000  0.809600  1
  F  F509  1  0.505200  0.335300  0.738400  1
  F  F510  1  0.494800  0.164700  0.238400  1
  F  F511  1  0.494800  0.664700  0.261600  1
  F  F512  1  0.505200  0.835300  0.761600  1
  F  F513  1  0.619400  0.451300  0.699800  1
  F  F514  1  0.380600  0.048700  0.199800  1
  F  F515  1  0.380600  0.548700  0.300200  1
  F  F516  1  0.619400  0.951300  0.800200  1
