# generated using pymatgen
data_ZnH20C23O9
_symmetry_space_group_name_H-M   'P 1'
_cell_length_a   8.68000000
_cell_length_b   11.22670000
_cell_length_c   11.35020000
_cell_angle_alpha   85.63100000
_cell_angle_beta   81.78100000
_cell_angle_gamma   80.14400000
_symmetry_Int_Tables_number   1
_chemical_formula_structural   ZnH20C23O9
_chemical_formula_sum   'Zn2 H40 C46 O18'
_cell_volume   1077.01716043
_cell_formula_units_Z   2
loop_
 _symmetry_equiv_pos_site_id
 _symmetry_equiv_pos_as_xyz
  1  'x, y, z'
loop_
 _atom_site_type_symbol
 _atom_site_label
 _atom_site_symmetry_multiplicity
 _atom_site_fract_x
 _atom_site_fract_y
 _atom_site_fract_z
 _atom_site_occupancy
  Zn  Zn1  1  0.168790  0.328700  0.401160  1.0
  Zn  Zn2  1  0.831210  0.671300  0.598840  1.0
  H  H3  1  0.190800  0.947500  0.525400  1
  H  H4  1  0.809200  0.052500  0.474600  1
  H  H5  1  0.323500  0.858000  0.457000  1
  H  H6  1  0.676500  0.142000  0.543000  1
  H  H7  1  0.150600  0.834200  0.473900  1
  H  H8  1  0.849400  0.165800  0.526100  1
  H  H9  1  0.232000  0.904000  0.277000  1
  H  H10  1  0.768000  0.096000  0.723000  1
  H  H11  1  0.458600  0.027000  0.620700  1.0
  H  H12  1  0.541400  0.973000  0.379300  1.0
  H  H13  1  0.543500  0.890600  0.776000  1.0
  H  H14  1  0.456500  0.109400  0.224000  1.0
  H  H15  1  0.382700  0.891600  0.958400  1.0
  H  H16  1  0.617300  0.108400  0.041600  1.0
  H  H17  1  0.153900  0.027000  0.991500  1.0
  H  H18  1  0.846100  0.973000  0.008500  1.0
  H  H19  1  0.655500  0.338300  0.139300  1.0
  H  H20  1  0.344500  0.661700  0.860700  1.0
  H  H21  1  0.862600  0.426400  0.030800  1.0
  H  H22  1  0.137400  0.573600  0.969200  1.0
  H  H23  1  0.835900  0.635700  0.998700  1.0
  H  H24  1  0.164100  0.364300  0.001300  1.0
  H  H25  1  0.604900  0.759200  0.068400  1.0
  H  H26  1  0.395100  0.240800  0.931600  1.0
  H  H27  1  0.228900  0.475700  0.662500  1.0
  H  H28  1  0.771100  0.524300  0.337500  1.0
  H  H29  1  0.344400  0.559700  0.601000  1.0
  H  H30  1  0.655600  0.440300  0.399000  1.0
  H  H31  1  0.395900  0.420300  0.604100  1.0
  H  H32  1  0.604100  0.579700  0.395900  1.0
  H  H33  1  0.914600  0.165700  0.263100  1.0
  H  H34  1  0.085400  0.834300  0.736900  1.0
  H  H35  1  0.049600  0.166600  0.157600  1.0
  H  H36  1  0.950400  0.833400  0.842400  1.0
  H  H37  1  0.964700  0.287300  0.211400  1.0
  H  H38  1  0.035300  0.712700  0.788600  1.0
  H  H39  1  0.169000  0.542000  0.477000  1.0
  H  H40  1  0.831000  0.458000  0.523000  1.0
  H  H41  1  0.141000  0.136000  0.326000  1.0
  H  H42  1  0.859000  0.864000  0.674000  1.0
  C  C43  1  0.215500  0.894900  0.461100  1
  C  C44  1  0.784500  0.105100  0.538900  1
  C  C45  1  0.043900  0.269200  0.637000  1.0
  C  C46  1  0.956100  0.730800  0.363000  1.0
  C  C47  1  0.200400  0.191700  0.616800  1.0
  C  C48  1  0.799600  0.808300  0.383200  1.0
  C  C49  1  0.258100  0.107800  0.714700  1.0
  C  C50  1  0.741900  0.892200  0.285300  1.0
  C  C51  1  0.396200  0.027300  0.696500  1.0
  C  C52  1  0.603800  0.972700  0.303500  1.0
  C  C53  1  0.447200  0.946100  0.787900  1.0
  C  C54  1  0.552800  0.053900  0.212100  1.0
  C  C55  1  0.352200  0.947800  0.895600  1.0
  C  C56  1  0.647800  0.052200  0.104400  1.0
  C  C57  1  0.215600  0.027300  0.915200  1.0
  C  C58  1  0.784400  0.972700  0.084800  1.0
  C  C59  1  0.164600  0.108700  0.825200  1.0
  C  C60  1  0.835400  0.891300  0.174800  1.0
  C  C61  1  0.016200  0.198000  0.848100  1.0
  C  C62  1  0.983800  0.802000  0.151900  1.0
  C  C63  1  0.957700  0.272500  0.748900  1.0
  C  C64  1  0.042300  0.727500  0.251100  1.0
  C  C65  1  0.804800  0.351100  0.773800  1.0
  C  C66  1  0.195200  0.648900  0.226200  1.0
  C  C67  1  0.212600  0.525600  0.252000  1.0
  C  C68  1  0.787400  0.474400  0.748000  1.0
  C  C69  1  0.369400  0.446600  0.233300  1.0
  C  C70  1  0.630600  0.553400  0.766700  1.0
  C  C71  1  0.501400  0.498500  0.163000  1.0
  C  C72  1  0.498600  0.501500  0.837000  1.0
  C  C73  1  0.643800  0.423200  0.123300  1.0
  C  C74  1  0.356200  0.576800  0.876700  1.0
  C  C75  1  0.767100  0.475900  0.060500  1.0
  C  C76  1  0.232900  0.524100  0.939500  1.0
  C  C77  1  0.750600  0.600800  0.040800  1.0
  C  C78  1  0.249400  0.399200  0.959200  1.0
  C  C79  1  0.613400  0.673800  0.081000  1.0
  C  C80  1  0.386600  0.326200  0.919000  1.0
  C  C81  1  0.485500  0.622600  0.140600  1.0
  C  C82  1  0.514500  0.377400  0.859400  1.0
  C  C83  1  0.667100  0.297500  0.818600  1.0
  C  C84  1  0.332900  0.702500  0.181400  1.0
  C  C85  1  0.308100  0.484700  0.598100  1.0
  C  C86  1  0.691900  0.515300  0.401900  1.0
  C  C87  1  0.003000  0.205100  0.229800  1.0
  C  C88  1  0.997000  0.794900  0.770200  1.0
  O  O89  1  0.191000  0.960900  0.355300  1
  O  O90  1  0.809000  0.039100  0.644700  1
  O  O91  1  0.997400  0.330600  0.542600  1.0
  O  O92  1  0.002600  0.669400  0.457400  1.0
  O  O93  1  0.282100  0.198500  0.518900  1.0
  O  O94  1  0.717900  0.801500  0.481100  1.0
  O  O95  1  0.948600  0.207900  0.949000  1.0
  O  O96  1  0.051400  0.792100  0.051000  1.0
  O  O97  1  0.096300  0.468800  0.292700  1.0
  O  O98  1  0.903700  0.531200  0.707300  1.0
  O  O99  1  0.386400  0.343000  0.277500  1.0
  O  O100  1  0.613600  0.657000  0.722500  1.0
  O  O101  1  0.668600  0.185300  0.823000  1.0
  O  O102  1  0.331400  0.814700  0.177000  1.0
  O  O103  1  0.250600  0.480000  0.488800  1.0
  O  O104  1  0.749400  0.520000  0.511200  1.0
  O  O105  1  0.114100  0.192800  0.311600  1.0
  O  O106  1  0.885900  0.807200  0.688400  1.0
