# generated using pymatgen
data_NiH8C24O13
_symmetry_space_group_name_H-M   'P 1'
_cell_length_a   14.08800000
_cell_length_b   14.61800000
_cell_length_c   18.24000000
_cell_angle_alpha   109.81400000
_cell_angle_beta   103.78500000
_cell_angle_gamma   99.44000000
_symmetry_Int_Tables_number   1
_chemical_formula_structural   NiH8C24O13
_chemical_formula_sum   'Ni4 H32 C96 O52'
_cell_volume   3306.68581062
_cell_formula_units_Z   4
loop_
 _symmetry_equiv_pos_site_id
 _symmetry_equiv_pos_as_xyz
  1  'x, y, z'
loop_
 _atom_site_type_symbol
 _atom_site_label
 _atom_site_symmetry_multiplicity
 _atom_site_fract_x
 _atom_site_fract_y
 _atom_site_fract_z
 _atom_site_occupancy
  Ni  Ni1  1  0.661370  0.689730  0.373100  1.0
  Ni  Ni2  1  0.338630  0.310270  0.626900  1.0
  Ni  Ni3  1  0.678190  0.319350  0.000490  1.0
  Ni  Ni4  1  0.321810  0.680650  0.999510  1.0
  H  H5  1  0.434400  0.068300  0.001300  1.0
  H  H6  1  0.565600  0.931700  0.998700  1.0
  H  H7  1  0.333100  0.967800  0.043800  1.0
  H  H8  1  0.666900  0.032200  0.956200  1.0
  H  H9  1  0.364100  0.009100  0.184300  1.0
  H  H10  1  0.635900  0.990900  0.815700  1.0
  H  H11  1  0.487700  0.156900  0.284000  1.0
  H  H12  1  0.512300  0.843100  0.716000  1.0
  H  H13  1  0.997600  0.745200  0.518700  1.0
  H  H14  1  0.002400  0.254800  0.481300  1.0
  H  H15  1  0.160800  0.725800  0.552500  1.0
  H  H16  1  0.839200  0.274200  0.447500  1.0
  H  H17  1  0.193300  0.573000  0.488600  1.0
  H  H18  1  0.806700  0.427000  0.511400  1.0
  H  H19  1  0.058800  0.432700  0.383700  1.0
  H  H20  1  0.941200  0.567300  0.616300  1.0
  H  H21  1  0.714200  0.033600  0.509700  1.0
  H  H22  1  0.285800  0.966400  0.490300  1.0
  H  H23  1  0.695300  0.196100  0.541600  1.0
  H  H24  1  0.304700  0.803900  0.458400  1.0
  H  H25  1  0.545700  0.222100  0.476400  1.0
  H  H26  1  0.454300  0.777900  0.523600  1.0
  H  H27  1  0.413000  0.086200  0.377600  1.0
  H  H28  1  0.587000  0.913800  0.622400  1.0
  H  H29  1  0.931300  0.567200  0.003100  1.0
  H  H30  1  0.068700  0.432800  0.996900  1.0
  H  H31  1  0.035700  0.663600  0.958000  1.0
  H  H32  1  0.964300  0.336400  0.042000  1.0
  H  H33  1  0.002900  0.627900  0.820700  1.0
  H  H34  1  0.997100  0.372100  0.179300  1.0
  H  H35  1  0.869000  0.496800  0.724100  1.0
  H  H36  1  0.131000  0.503200  0.275900  1.0
  C  C37  1  0.662000  0.990000  0.175000  1
  C  C38  1  0.338000  0.010000  0.825000  1
  C  C39  1  0.686000  0.062000  0.267000  1
  C  C40  1  0.314000  0.938000  0.733000  1
  C  C41  1  0.778000  0.043000  0.313000  1
  C  C42  1  0.222000  0.957000  0.687000  1
  C  C43  1  0.853000  0.063000  0.265000  1
  C  C44  1  0.147000  0.937000  0.735000  1
  C  C45  1  0.718000  0.729000  0.682000  1
  C  C46  1  0.282000  0.271000  0.318000  1
  C  C47  1  0.828000  0.724000  0.688000  1
  C  C48  1  0.172000  0.276000  0.312000  1
  C  C49  1  0.886000  0.799000  0.665000  1
  C  C50  1  0.114000  0.201000  0.335000  1
  C  C51  1  0.815000  0.863000  0.660000  1
  C  C52  1  0.185000  0.137000  0.340000  1
  C  C53  1  0.667700  0.324200  0.153300  1.0
  C  C54  1  0.332300  0.675800  0.846700  1.0
  C  C55  1  0.583600  0.235500  0.090600  1.0
  C  C56  1  0.416400  0.764500  0.909400  1.0
  C  C57  1  0.519900  0.171500  0.116100  1.0
  C  C58  1  0.480100  0.828500  0.883900  1.0
  C  C59  1  0.444700  0.085900  0.058600  1.0
  C  C60  1  0.555300  0.914100  0.941400  1.0
  C  C61  1  0.384600  0.026500  0.084100  1.0
  C  C62  1  0.615400  0.973500  0.915900  1.0
  C  C63  1  0.403100  0.052800  0.168400  1.0
  C  C64  1  0.596900  0.947200  0.831600  1.0
  C  C65  1  0.475900  0.138100  0.226000  1.0
  C  C66  1  0.524100  0.861900  0.774000  1.0
  C  C67  1  0.536300  0.197700  0.199100  1.0
  C  C68  1  0.463700  0.802300  0.800900  1.0
  C  C69  1  0.619700  0.287800  0.262600  1.0
  C  C70  1  0.380300  0.712200  0.737400  1.0
  C  C71  1  0.682400  0.347700  0.234800  1.0
  C  C72  1  0.317600  0.652300  0.765200  1.0
  C  C73  1  0.766800  0.436100  0.298900  1.0
  C  C74  1  0.233200  0.563900  0.701100  1.0
  C  C75  1  0.746000  0.526500  0.333900  1.0
  C  C76  1  0.254000  0.473500  0.666100  1.0
  C  C77  1  0.830300  0.614500  0.400000  1.0
  C  C78  1  0.169700  0.385500  0.600000  1.0
  C  C79  1  0.933100  0.603300  0.426600  1.0
  C  C80  1  0.066900  0.396700  0.573400  1.0
  C  C81  1  0.012200  0.682700  0.489200  1.0
  C  C82  1  0.987800  0.317300  0.510800  1.0
  C  C83  1  0.106900  0.668900  0.509900  1.0
  C  C84  1  0.893100  0.331100  0.490100  1.0
  C  C85  1  0.126900  0.578000  0.471300  1.0
  C  C86  1  0.873100  0.422000  0.528700  1.0
  C  C87  1  0.046700  0.497600  0.409700  1.0
  C  C88  1  0.953300  0.502400  0.590300  1.0
  C  C89  1  0.952000  0.511100  0.386400  1.0
  C  C90  1  0.048000  0.488900  0.613600  1.0
  C  C91  1  0.868800  0.424300  0.320800  1.0
  C  C92  1  0.131200  0.575700  0.679200  1.0
  C  C93  1  0.500100  0.772200  0.332600  1.0
  C  C94  1  0.499900  0.227800  0.667400  1.0
  C  C95  1  0.586300  0.858600  0.398600  1.0
  C  C96  1  0.413700  0.141400  0.601400  1.0
  C  C97  1  0.575600  0.961800  0.421700  1.0
  C  C98  1  0.424400  0.038200  0.578300  1.0
  C  C99  1  0.653100  0.044600  0.481700  1.0
  C  C100  1  0.346900  0.955400  0.518300  1.0
  C  C101  1  0.641100  0.140500  0.501100  1.0
  C  C102  1  0.358900  0.859500  0.498900  1.0
  C  C103  1  0.553200  0.155700  0.462400  1.0
  C  C104  1  0.446800  0.844300  0.537600  1.0
  C  C105  1  0.474600  0.075100  0.404000  1.0
  C  C106  1  0.525400  0.924900  0.596000  1.0
  C  C107  1  0.483600  0.976800  0.381900  1.0
  C  C108  1  0.516400  0.023200  0.618100  1.0
  C  C109  1  0.399200  0.890500  0.317900  1.0
  C  C110  1  0.600800  0.109500  0.682100  1.0
  C  C111  1  0.410900  0.789000  0.296200  1.0
  C  C112  1  0.589100  0.211000  0.703800  1.0
  C  C113  1  0.328400  0.701900  0.232500  1.0
  C  C114  1  0.671600  0.298100  0.767500  1.0
  C  C115  1  0.689100  0.317100  0.849100  1.0
  C  C116  1  0.310900  0.682900  0.150900  1.0
  C  C117  1  0.772500  0.406500  0.912800  1.0
  C  C118  1  0.227500  0.593500  0.087200  1.0
  C  C119  1  0.839000  0.469400  0.888100  1.0
  C  C120  1  0.161000  0.530600  0.111900  1.0
  C  C121  1  0.919900  0.550200  0.945400  1.0
  C  C122  1  0.080100  0.449800  0.054600  1.0
  C  C123  1  0.978600  0.609200  0.919200  1.0
  C  C124  1  0.021400  0.390800  0.080800  1.0
  C  C125  1  0.960500  0.587800  0.838400  1.0
  C  C126  1  0.039500  0.412200  0.161600  1.0
  C  C127  1  0.882200  0.509300  0.781500  1.0
  C  C128  1  0.117800  0.490700  0.218500  1.0
  C  C129  1  0.819200  0.449100  0.804400  1.0
  C  C130  1  0.180800  0.550900  0.195600  1.0
  C  C131  1  0.267100  0.638900  0.258400  1.0
  C  C132  1  0.732900  0.361100  0.741600  1.0
  O  O133  1  0.833100  0.183800  0.133100  1
  O  O134  1  0.166900  0.816200  0.866900  1
  O  O135  1  0.745000  0.578800  0.167800  1
  O  O136  1  0.255000  0.421200  0.832200  1
  O  O137  1  0.652800  0.485200  0.469600  1
  O  O138  1  0.347200  0.514800  0.530400  1
  O  O139  1  0.511000  0.537000  0.144800  1
  O  O140  1  0.489000  0.463000  0.855200  1
  O  O141  1  0.454000  0.437000  0.267000  1
  O  O142  1  0.546000  0.563000  0.733000  1
  O  O143  1  0.404000  0.568200  0.414400  1
  O  O144  1  0.596000  0.431800  0.585600  1
  O  O145  1  0.570600  0.751000  0.166500  1
  O  O146  1  0.429400  0.249000  0.833500  1
  O  O147  1  0.168700  0.840900  0.134900  1
  O  O148  1  0.831300  0.159100  0.865100  1
  O  O149  1  0.774000  0.006000  0.179000  1
  O  O150  1  0.226000  0.994000  0.821000  1
  O  O151  1  0.712900  0.788000  0.628000  1
  O  O152  1  0.287100  0.212000  0.372000  1
  O  O153  1  0.721700  0.375200  0.124300  1.0
  O  O154  1  0.278300  0.624800  0.875700  1.0
  O  O155  1  0.571800  0.217600  0.017100  1.0
  O  O156  1  0.428200  0.782400  0.982900  1.0
  O  O157  1  0.629600  0.309600  0.336500  1.0
  O  O158  1  0.370400  0.690400  0.663500  1.0
  O  O159  1  0.659600  0.545300  0.315700  1.0
  O  O160  1  0.340400  0.454700  0.684300  1.0
  O  O161  1  0.810900  0.694300  0.429900  1.0
  O  O162  1  0.189100  0.305700  0.570100  1.0
  O  O163  1  0.887600  0.343200  0.287700  1.0
  O  O164  1  0.112400  0.656800  0.712300  1.0
  O  O165  1  0.520700  0.685200  0.315400  1.0
  O  O166  1  0.479300  0.314800  0.684600  1.0
  O  O167  1  0.663400  0.840700  0.429400  1.0
  O  O168  1  0.336600  0.159300  0.570600  1.0
  O  O169  1  0.321200  0.906600  0.285100  1.0
  O  O170  1  0.678800  0.093400  0.714900  1.0
  O  O171  1  0.635000  0.266200  0.876900  1.0
  O  O172  1  0.365000  0.733800  0.123100  1.0
  O  O173  1  0.783900  0.423800  0.986000  1.0
  O  O174  1  0.216100  0.576200  0.014000  1.0
  O  O175  1  0.281300  0.653200  0.331600  1.0
  O  O176  1  0.718700  0.346800  0.668400  1.0
  O  O177  1  0.617500  0.658000  0.464400  1.0
  O  O178  1  0.382500  0.342000  0.535600  1.0
  O  O179  1  0.715100  0.729600  0.287600  1.0
  O  O180  1  0.284900  0.270400  0.712400  1.0
  O  O181  1  0.580600  0.413100  0.999700  1.0
  O  O182  1  0.419400  0.586900  0.000300  1.0
  O  O183  1  0.772900  0.227400  0.000100  1.0
  O  O184  1  0.227100  0.772600  0.999900  1.0
