# generated using pymatgen
data_NiH8(C2O)12
_symmetry_space_group_name_H-M   'P 1'
_cell_length_a   14.20969599
_cell_length_b   14.20969599
_cell_length_c   18.13010000
_cell_angle_alpha   106.93853267
_cell_angle_beta   106.93853267
_cell_angle_gamma   98.36705804
_symmetry_Int_Tables_number   1
_chemical_formula_structural   NiH8(C2O)12
_chemical_formula_sum   'Ni4 H32 C96 O48'
_cell_volume   3242.10382582
_cell_formula_units_Z   4
loop_
 _symmetry_equiv_pos_site_id
 _symmetry_equiv_pos_as_xyz
  1  'x, y, z'
loop_
 _atom_site_type_symbol
 _atom_site_label
 _atom_site_symmetry_multiplicity
 _atom_site_fract_x
 _atom_site_fract_y
 _atom_site_fract_z
 _atom_site_occupancy
  C  C1  1  0.113100  0.393700  0.680300  1
  C  C2  1  0.393700  0.113100  0.680300  1
  C  C3  1  0.886900  0.606300  0.319700  1
  C  C4  1  0.606300  0.886900  0.319700  1
  C  C5  1  0.208100  0.470900  0.746600  1
  C  C6  1  0.470900  0.208100  0.746600  1
  C  C7  1  0.791900  0.529100  0.253400  1
  C  C8  1  0.529100  0.791900  0.253400  1
  C  C9  1  0.603400  0.402600  0.628000  1
  C  C10  1  0.402600  0.603400  0.628000  1
  C  C11  1  0.396600  0.597400  0.372000  1
  C  C12  1  0.597400  0.396600  0.372000  1
  C  C13  1  0.533000  0.385000  0.666000  1
  C  C14  1  0.385000  0.533000  0.666000  1
  C  C15  1  0.467000  0.615000  0.334000  1
  C  C16  1  0.615000  0.467000  0.334000  1
  C  C17  1  0.015200  0.264800  0.831800  1.0
  C  C18  1  0.264800  0.015200  0.831800  1.0
  C  C19  1  0.984800  0.735200  0.168200  1.0
  C  C20  1  0.735200  0.984800  0.168200  1.0
  C  C21  1  0.103400  0.353200  0.895300  1.0
  C  C22  1  0.353200  0.103400  0.895300  1.0
  C  C23  1  0.896600  0.646800  0.104700  1.0
  C  C24  1  0.646800  0.896600  0.104700  1.0
  C  C25  1  0.087800  0.457800  0.922300  1.0
  C  C26  1  0.457800  0.087800  0.922300  1.0
  C  C27  1  0.912200  0.542200  0.077700  1.0
  C  C28  1  0.542200  0.912200  0.077700  1.0
  C  C29  1  0.161500  0.533900  0.976500  1.0
  C  C30  1  0.533900  0.161500  0.976500  1.0
  C  C31  1  0.838500  0.466100  0.023500  1.0
  C  C32  1  0.466100  0.838500  0.023500  1.0
  C  C33  1  0.150700  0.630300  0.001700  1.0
  C  C34  1  0.630300  0.150700  0.001700  1.0
  C  C35  1  0.849300  0.369700  0.998300  1.0
  C  C36  1  0.369700  0.849300  0.998300  1.0
  C  C37  1  0.058900  0.643300  0.967500  1.0
  C  C38  1  0.643300  0.058900  0.967500  1.0
  C  C39  1  0.941100  0.356700  0.032500  1.0
  C  C40  1  0.356700  0.941100  0.032500  1.0
  C  C41  1  0.980200  0.565400  0.909400  1.0
  C  C42  1  0.565400  0.980200  0.909400  1.0
  C  C43  1  0.019800  0.434600  0.090600  1.0
  C  C44  1  0.434600  0.019800  0.090600  1.0
  C  C45  1  0.995700  0.467300  0.884300  1.0
  C  C46  1  0.467300  0.995700  0.884300  1.0
  C  C47  1  0.004300  0.532700  0.115700  1.0
  C  C48  1  0.532700  0.004300  0.115700  1.0
  C  C49  1  0.909700  0.382900  0.821300  1.0
  C  C50  1  0.382900  0.909700  0.821300  1.0
  C  C51  1  0.090300  0.617100  0.178700  1.0
  C  C52  1  0.617100  0.090300  0.178700  1.0
  C  C53  1  0.926500  0.280700  0.797600  1.0
  C  C54  1  0.280700  0.926500  0.797600  1.0
  C  C55  1  0.073500  0.719300  0.202400  1.0
  C  C56  1  0.719300  0.073500  0.202400  1.0
  C  C57  1  0.840000  0.195600  0.735700  1.0
  C  C58  1  0.195600  0.840000  0.735700  1.0
  C  C59  1  0.160000  0.804400  0.264300  1.0
  C  C60  1  0.804400  0.160000  0.264300  1.0
  C  C61  1  0.822000  0.177000  0.653400  1.0
  C  C62  1  0.177000  0.822000  0.653400  1.0
  C  C63  1  0.178000  0.823000  0.346600  1.0
  C  C64  1  0.823000  0.178000  0.346600  1.0
  C  C65  1  0.735300  0.089100  0.591200  1.0
  C  C66  1  0.089100  0.735300  0.591200  1.0
  C  C67  1  0.264700  0.910900  0.408800  1.0
  C  C68  1  0.910900  0.264700  0.408800  1.0
  C  C69  1  0.667200  0.029800  0.617500  1.0
  C  C70  1  0.029800  0.667200  0.617500  1.0
  C  C71  1  0.332800  0.970200  0.382500  1.0
  C  C72  1  0.970200  0.332800  0.382500  1.0
  C  C73  1  0.586600  0.951400  0.561200  1.0
  C  C74  1  0.951400  0.586600  0.561200  1.0
  C  C75  1  0.413400  0.048600  0.438800  1.0
  C  C76  1  0.048600  0.413400  0.438800  1.0
  C  C77  1  0.525600  0.895000  0.586600  1.0
  C  C78  1  0.895000  0.525600  0.586600  1.0
  C  C79  1  0.474400  0.105000  0.413400  1.0
  C  C80  1  0.105000  0.474400  0.413400  1.0
  C  C81  1  0.544200  0.916000  0.668000  1.0
  C  C82  1  0.916000  0.544200  0.668000  1.0
  C  C83  1  0.455800  0.084000  0.332000  1.0
  C  C84  1  0.084000  0.455800  0.332000  1.0
  C  C85  1  0.629800  0.993200  0.726300  1.0
  C  C86  1  0.993200  0.629800  0.726300  1.0
  C  C87  1  0.370200  0.006800  0.273700  1.0
  C  C88  1  0.006800  0.370200  0.273700  1.0
  C  C89  1  0.689400  0.050400  0.700800  1.0
  C  C90  1  0.050400  0.689400  0.700800  1.0
  C  C91  1  0.310600  0.949600  0.299200  1.0
  C  C92  1  0.949600  0.310600  0.299200  1.0
  C  C93  1  0.777800  0.136000  0.762700  1.0
  C  C94  1  0.136000  0.777800  0.762700  1.0
  C  C95  1  0.222200  0.864000  0.237300  1.0
  C  C96  1  0.864000  0.222200  0.237300  1.0
  H  H97  1  0.232100  0.524300  0.004500  1.0
  H  H98  1  0.524300  0.232100  0.004500  1.0
  H  H99  1  0.767900  0.475700  0.995500  1.0
  H  H100  1  0.475700  0.767900  0.995500  1.0
  H  H101  1  0.200900  0.686300  0.040200  1.0
  H  H102  1  0.686300  0.200900  0.040200  1.0
  H  H103  1  0.799100  0.313700  0.959800  1.0
  H  H104  1  0.313700  0.799100  0.959800  1.0
  H  H105  1  0.041800  0.715000  0.983100  1.0
  H  H106  1  0.715000  0.041800  0.983100  1.0
  H  H107  1  0.958200  0.285000  0.016900  1.0
  H  H108  1  0.285000  0.958200  0.016900  1.0
  H  H109  1  0.908900  0.573700  0.880700  1.0
  H  H110  1  0.573700  0.908900  0.880700  1.0
  H  H111  1  0.091100  0.426300  0.119300  1.0
  H  H112  1  0.426300  0.091100  0.119300  1.0
  H  H113  1  0.575600  0.935400  0.503500  1.0
  H  H114  1  0.935400  0.575600  0.503500  1.0
  H  H115  1  0.424400  0.064600  0.496500  1.0
  H  H116  1  0.064600  0.424400  0.496500  1.0
  H  H117  1  0.466600  0.842000  0.547500  1.0
  H  H118  1  0.842000  0.466600  0.547500  1.0
  H  H119  1  0.533400  0.158000  0.452500  1.0
  H  H120  1  0.158000  0.533400  0.452500  1.0
  H  H121  1  0.502600  0.876400  0.687400  1.0
  H  H122  1  0.876400  0.502600  0.687400  1.0
  H  H123  1  0.497400  0.123600  0.312600  1.0
  H  H124  1  0.123600  0.497400  0.312600  1.0
  H  H125  1  0.643500  0.007300  0.784200  1.0
  H  H126  1  0.007300  0.643500  0.784200  1.0
  H  H127  1  0.356500  0.992700  0.215800  1.0
  H  H128  1  0.992700  0.356500  0.215800  1.0
  Ni  Ni129  1  0.182280  0.182280  0.868350  1.0
  Ni  Ni130  1  0.817720  0.817720  0.131650  1.0
  Ni  Ni131  1  0.824800  0.175200  0.500000  1.0
  Ni  Ni132  1  0.175200  0.824800  0.500000  1.0
  O  O133  1  0.019400  0.019400  0.644400  1
  O  O134  1  0.980600  0.980600  0.355600  1
  O  O135  1  0.934400  0.088400  0.933300  1
  O  O136  1  0.088400  0.934400  0.933300  1
  O  O137  1  0.065600  0.911600  0.066700  1
  O  O138  1  0.911600  0.065600  0.066700  1
  O  O139  1  0.262000  0.262000  0.111000  1
  O  O140  1  0.738000  0.738000  0.889000  1
  O  O141  1  0.086100  0.297300  0.687300  1
  O  O142  1  0.297300  0.086100  0.687300  1
  O  O143  1  0.913900  0.702700  0.312700  1
  O  O144  1  0.702700  0.913900  0.312700  1
  O  O145  1  0.678600  0.336600  0.634900  1
  O  O146  1  0.336600  0.678600  0.634900  1
  O  O147  1  0.321400  0.663400  0.365100  1
  O  O148  1  0.663400  0.321400  0.365100  1
  O  O149  1  0.221500  0.221500  0.777900  1.0
  O  O150  1  0.778500  0.778500  0.222100  1.0
  O  O151  1  0.151400  0.151400  0.964100  1.0
  O  O152  1  0.848600  0.848600  0.035900  1.0
  O  O153  1  0.920600  0.079400  0.500000  1.0
  O  O154  1  0.079400  0.920600  0.500000  1.0
  O  O155  1  0.729300  0.270700  0.500000  1.0
  O  O156  1  0.270700  0.729300  0.500000  1.0
  O  O157  1  0.037600  0.179200  0.814000  1.0
  O  O158  1  0.179200  0.037600  0.814000  1.0
  O  O159  1  0.962400  0.820800  0.186000  1.0
  O  O160  1  0.820800  0.962400  0.186000  1.0
  O  O161  1  0.186800  0.333000  0.922600  1.0
  O  O162  1  0.333000  0.186800  0.922600  1.0
  O  O163  1  0.813200  0.667000  0.077400  1.0
  O  O164  1  0.667000  0.813200  0.077400  1.0
  O  O165  1  0.827900  0.402300  0.789300  1.0
  O  O166  1  0.402300  0.827900  0.789300  1.0
  O  O167  1  0.172100  0.597700  0.210700  1.0
  O  O168  1  0.597700  0.172100  0.210700  1.0
  O  O169  1  0.874500  0.225100  0.623700  1.0
  O  O170  1  0.225100  0.874500  0.623700  1.0
  O  O171  1  0.125500  0.774900  0.376300  1.0
  O  O172  1  0.774900  0.125500  0.376300  1.0
  O  O173  1  0.722000  0.072800  0.518200  1.0
  O  O174  1  0.072800  0.722000  0.518200  1.0
  O  O175  1  0.278000  0.927200  0.481800  1.0
  O  O176  1  0.927200  0.278000  0.481800  1.0
  O  O177  1  0.794500  0.151300  0.836600  1.0
  O  O178  1  0.151300  0.794500  0.836600  1.0
  O  O179  1  0.205500  0.848700  0.163400  1.0
  O  O180  1  0.848700  0.205500  0.163400  1.0
