# generated using pymatgen
data_Fe11H179C130N6(Cl3O2)12
_symmetry_space_group_name_H-M   'P 1'
_cell_length_a   14.67800000
_cell_length_b   15.11400000
_cell_length_c   40.00100000
_cell_angle_alpha   90.00000000
_cell_angle_beta   90.00000000
_cell_angle_gamma   111.20000000
_symmetry_Int_Tables_number   1
_chemical_formula_structural   Fe11H179C130N6(Cl3O2)12
_chemical_formula_sum   'Fe22 H358 C260 N12 Cl72 O48'
_cell_volume   8273.39808065
_cell_formula_units_Z   2
loop_
 _symmetry_equiv_pos_site_id
 _symmetry_equiv_pos_as_xyz
  1  'x, y, z'
loop_
 _atom_site_type_symbol
 _atom_site_label
 _atom_site_symmetry_multiplicity
 _atom_site_fract_x
 _atom_site_fract_y
 _atom_site_fract_z
 _atom_site_occupancy
  Fe  Fe1  1  0.185880  0.984800  0.546580  1
  Fe  Fe2  1  0.814120  0.015200  0.046580  1
  Fe  Fe3  1  0.802020  0.605320  0.540250  1
  Fe  Fe4  1  0.197980  0.394680  0.040250  1
  Fe  Fe5  1  0.200580  0.864110  0.273730  1
  Fe  Fe6  1  0.799420  0.135890  0.773730  1
  Fe  Fe7  1  0.813690  0.505040  0.306650  1
  Fe  Fe8  1  0.186310  0.494960  0.806650  1
  Fe  Fe9  1  0.260700  0.673400  0.595100  1
  Fe  Fe10  1  0.739300  0.326600  0.095100  1
  Fe  Fe11  1  0.974660  0.727010  0.415740  1
  Fe  Fe12  1  0.025340  0.272990  0.915740  1
  Fe  Fe13  1  0.113240  0.238660  0.415090  1
  Fe  Fe14  1  0.886760  0.761340  0.915090  1
  Fe  Fe15  1  0.500180  0.826140  0.405520  1
  Fe  Fe16  1  0.499820  0.173860  0.905520  1
  Fe  Fe17  1  0.887080  0.907580  0.217200  1
  Fe  Fe18  1  0.112920  0.092420  0.717200  1
  Fe  Fe19  1  0.216460  0.568750  0.200300  1
  Fe  Fe20  1  0.783540  0.431250  0.700300  1
  Fe  Fe21  1  0.245500  0.677400  0.599600  1
  Fe  Fe22  1  0.754500  0.322600  0.099600  1
  H  H23  1  0.350300  0.891300  0.474000  1
  H  H24  1  0.649700  0.108700  0.974000  1
  H  H25  1  0.445800  0.175800  0.514500  1
  H  H26  1  0.554200  0.824200  0.014500  1
  H  H27  1  0.535100  0.198400  0.488900  1
  H  H28  1  0.464900  0.801600  0.988900  1
  H  H29  1  0.509400  0.109300  0.513500  1
  H  H30  1  0.490600  0.890700  0.013500  1
  H  H31  1  0.497100  0.003200  0.464000  1
  H  H32  1  0.502900  0.996800  0.964000  1
  H  H33  1  0.525200  0.095200  0.440600  1
  H  H34  1  0.474800  0.904800  0.940600  1
  H  H35  1  0.428200  0.005400  0.433200  1
  H  H36  1  0.571800  0.994600  0.933200  1
  H  H37  1  0.322300  0.104900  0.436800  1
  H  H38  1  0.677700  0.895100  0.936800  1
  H  H39  1  0.421400  0.194800  0.441200  1
  H  H40  1  0.578600  0.805200  0.941200  1
  H  H41  1  0.335300  0.174900  0.468000  1
  H  H42  1  0.664700  0.825100  0.968000  1
  H  H43  1  0.245500  0.954000  0.651400  1
  H  H44  1  0.754500  0.046000  0.151400  1
  H  H45  1  0.553500  0.111700  0.607000  1
  H  H46  1  0.446500  0.888300  0.107000  1
  H  H47  1  0.476400  0.123300  0.580700  1
  H  H48  1  0.523600  0.876700  0.080700  1
  H  H49  1  0.486900  0.022400  0.585500  1
  H  H50  1  0.513100  0.977600  0.085500  1
  H  H51  1  0.468700  0.175700  0.653000  1
  H  H52  1  0.531300  0.824300  0.153000  1
  H  H53  1  0.353700  0.121900  0.658300  1
  H  H54  1  0.646300  0.878100  0.158300  1
  H  H55  1  0.393400  0.184500  0.625500  1
  H  H56  1  0.606600  0.815500  0.125500  1
  H  H57  1  0.495500  0.021800  0.659500  1
  H  H58  1  0.504500  0.978200  0.159500  1
  H  H59  1  0.432000  0.932300  0.637500  1
  H  H60  1  0.568000  0.067700  0.137500  1
  H  H61  1  0.380600  0.971900  0.666200  1
  H  H62  1  0.619400  0.028100  0.166200  1
  H  H63  1  0.052900  0.168900  0.504100  1
  H  H64  1  0.947100  0.831100  0.004100  1
  H  H65  1  0.158600  0.258500  0.598300  1
  H  H66  1  0.841400  0.741500  0.098300  1
  H  H67  1  0.247200  0.354400  0.589300  1
  H  H68  1  0.752800  0.645600  0.089300  1
  H  H69  1  0.264400  0.255700  0.590300  1
  H  H70  1  0.735600  0.744300  0.090300  1
  H  H71  1  0.328500  0.285200  0.532700  1
  H  H72  1  0.671500  0.714800  0.032700  1
  H  H73  1  0.309600  0.383000  0.531800  1
  H  H74  1  0.690400  0.617000  0.031800  1
  H  H75  1  0.263400  0.304600  0.503600  1
  H  H76  1  0.736600  0.695400  0.003600  1
  H  H77  1  0.106000  0.316900  0.515900  1
  H  H78  1  0.894000  0.683100  0.015900  1
  H  H79  1  0.142200  0.384400  0.547900  1
  H  H80  1  0.857800  0.615600  0.047900  1
  H  H81  1  0.054900  0.284000  0.551500  1
  H  H82  1  0.945100  0.716000  0.051500  1
  H  H83  1  0.956200  0.417200  0.517100  1
  H  H84  1  0.043800  0.582800  0.017100  1
  H  H85  1  0.892100  0.273800  0.525800  1
  H  H86  1  0.107900  0.726200  0.025800  1
  H  H87  1  0.794200  0.262200  0.505700  1
  H  H88  1  0.205800  0.737800  0.005700  1
  H  H89  1  0.792300  0.189100  0.534900  1
  H  H90  1  0.207700  0.810900  0.034900  1
  H  H91  1  0.658400  0.218100  0.559100  1
  H  H92  1  0.341600  0.781900  0.059100  1
  H  H93  1  0.660100  0.303000  0.534900  1
  H  H94  1  0.339900  0.697000  0.034900  1
  H  H95  1  0.670000  0.319400  0.574500  1
  H  H96  1  0.330000  0.680600  0.074500  1
  H  H97  1  0.823700  0.244700  0.591600  1
  H  H98  1  0.176300  0.755300  0.091600  1
  H  H99  1  0.818800  0.344800  0.602400  1
  H  H100  1  0.181200  0.655200  0.102400  1
  H  H101  1  0.913400  0.340700  0.583600  1
  H  H102  1  0.086600  0.659300  0.083600  1
  H  H103  1  0.720100  0.613600  0.643500  1
  H  H104  1  0.279900  0.386400  0.143500  1
  H  H105  1  0.488200  0.560300  0.570300  1
  H  H106  1  0.511800  0.439700  0.070300  1
  H  H107  1  0.422500  0.461300  0.586800  1
  H  H108  1  0.577500  0.538700  0.086800  1
  H  H109  1  0.510400  0.466400  0.562300  1
  H  H110  1  0.489600  0.533600  0.062300  1
  H  H111  1  0.494800  0.390100  0.633000  1
  H  H112  1  0.505200  0.609900  0.133000  1
  H  H113  1  0.608600  0.440900  0.641300  1
  H  H114  1  0.391400  0.559100  0.141300  1
  H  H115  1  0.575100  0.389900  0.606000  1
  H  H116  1  0.424900  0.610100  0.106000  1
  H  H117  1  0.534300  0.640900  0.626300  1
  H  H118  1  0.465700  0.359100  0.126300  1
  H  H119  1  0.572100  0.588800  0.655000  1
  H  H120  1  0.427900  0.411200  0.155000  1
  H  H121  1  0.460900  0.545100  0.642700  1
  H  H122  1  0.539100  0.454900  0.142700  1
  H  H123  1  0.657800  0.699300  0.461200  1
  H  H124  1  0.342200  0.300700  0.961200  1
  H  H125  1  0.654600  0.511800  0.424000  1
  H  H126  1  0.345400  0.488200  0.924000  1
  H  H127  1  0.591300  0.578100  0.420700  1
  H  H128  1  0.408700  0.421900  0.920700  1
  H  H129  1  0.539500  0.465400  0.417300  1
  H  H130  1  0.460500  0.534600  0.917300  1
  H  H131  1  0.605400  0.388100  0.471200  1
  H  H132  1  0.394600  0.611900  0.971200  1
  H  H133  1  0.490600  0.365800  0.467900  1
  H  H134  1  0.509400  0.634200  0.967900  1
  H  H135  1  0.545700  0.405900  0.502300  1
  H  H136  1  0.454300  0.594100  0.002300  1
  H  H137  1  0.425300  0.488600  0.465800  1
  H  H138  1  0.574700  0.511400  0.965800  1
  H  H139  1  0.493900  0.598400  0.466600  1
  H  H140  1  0.506100  0.401600  0.966600  1
  H  H141  1  0.478800  0.535500  0.499800  1
  H  H142  1  0.521200  0.464500  0.999800  1
  H  H143  1  0.077100  0.722200  0.518500  1
  H  H144  1  0.922900  0.277800  0.018500  1
  H  H145  1  0.319200  0.733300  0.471300  1
  H  H146  1  0.680800  0.266700  0.971300  1
  H  H147  1  0.251900  0.568200  0.465600  1
  H  H148  1  0.748100  0.431800  0.965600  1
  H  H149  1  0.098000  0.480300  0.486400  1
  H  H150  1  0.902000  0.519700  0.986400  1
  H  H151  1  0.986100  0.790700  0.597700  1
  H  H152  1  0.013900  0.209300  0.097700  1
  H  H153  1  0.112100  0.888100  0.685000  1
  H  H154  1  0.887900  0.111900  0.185000  1
  H  H155  1  0.972100  0.781100  0.711600  1
  H  H156  1  0.027900  0.218900  0.211600  1
  H  H157  1  0.841900  0.682300  0.679800  1
  H  H158  1  0.158100  0.317700  0.179800  1
  H  H159  1  0.919300  0.865600  0.512500  1
  H  H160  1  0.080700  0.134400  0.012500  1
  H  H161  1  0.923200  0.104800  0.470400  1
  H  H162  1  0.076800  0.895200  0.970400  1
  H  H163  1  0.783500  0.016100  0.439800  1
  H  H164  1  0.216500  0.983900  0.939800  1
  H  H165  1  0.708000  0.852600  0.448600  1
  H  H166  1  0.292000  0.147400  0.948600  1
  H  H167  1  0.144600  0.881600  0.168600  1
  H  H168  1  0.855400  0.118400  0.668600  1
  H  H169  1  0.235800  0.154400  0.165100  1
  H  H170  1  0.764200  0.845600  0.665100  1
  H  H171  1  0.184400  0.119600  0.200500  1
  H  H172  1  0.815600  0.880400  0.700500  1
  H  H173  1  0.145500  0.055800  0.167900  1
  H  H174  1  0.854500  0.944200  0.667900  1
  H  H175  1  0.397500  0.166400  0.192400  1
  H  H176  1  0.602500  0.833600  0.692400  1
  H  H177  1  0.400400  0.076000  0.212500  1
  H  H178  1  0.599600  0.924000  0.712500  1
  H  H179  1  0.335700  0.133800  0.226100  1
  H  H180  1  0.664300  0.866200  0.726100  1
  H  H181  1  0.341500  0.076700  0.139800  1
  H  H182  1  0.658500  0.923300  0.639800  1
  H  H183  1  0.247400  0.980800  0.140000  1
  H  H184  1  0.752600  0.019200  0.640000  1
  H  H185  1  0.347200  0.983000  0.156800  1
  H  H186  1  0.652800  0.017000  0.656800  1
  H  H187  1  0.401600  0.742700  0.312700  1
  H  H188  1  0.598400  0.257300  0.812700  1
  H  H189  1  0.487100  0.727100  0.249500  1
  H  H190  1  0.512900  0.272900  0.749500  1
  H  H191  1  0.564700  0.808800  0.227700  1
  H  H192  1  0.435300  0.191200  0.727700  1
  H  H193  1  0.450300  0.778200  0.220200  1
  H  H194  1  0.549700  0.221800  0.720200  1
  H  H195  1  0.545400  0.811400  0.303500  1
  H  H196  1  0.454600  0.188600  0.803500  1
  H  H197  1  0.554700  0.919600  0.307800  1
  H  H198  1  0.445300  0.080400  0.807800  1
  H  H199  1  0.629300  0.893800  0.284100  1
  H  H200  1  0.370700  0.106200  0.784100  1
  H  H201  1  0.465900  0.946600  0.226700  1
  H  H202  1  0.534100  0.053400  0.726700  1
  H  H203  1  0.579500  0.977700  0.235600  1
  H  H204  1  0.420500  0.022300  0.735600  1
  H  H205  1  0.507400  0.002400  0.260700  1
  H  H206  1  0.492600  0.997600  0.760700  1
  H  H207  1  0.131200  0.056100  0.339900  1
  H  H208  1  0.868800  0.943900  0.839900  1
  H  H209  1  0.268300  0.204400  0.339400  1
  H  H210  1  0.731700  0.795600  0.839400  1
  H  H211  1  0.357100  0.226200  0.365200  1
  H  H212  1  0.642900  0.773800  0.865200  1
  H  H213  1  0.253200  0.146700  0.373800  1
  H  H214  1  0.746800  0.853300  0.873800  1
  H  H215  1  0.428300  0.102600  0.301100  1
  H  H216  1  0.571700  0.897400  0.801100  1
  H  H217  1  0.459500  0.201900  0.320400  1
  H  H218  1  0.540500  0.798100  0.820400  1
  H  H219  1  0.372400  0.173800  0.293700  1
  H  H220  1  0.627600  0.826200  0.793700  1
  H  H221  1  0.326800  0.012000  0.377700  1
  H  H222  1  0.673200  0.988000  0.877700  1
  H  H223  1  0.424200  0.104800  0.377300  1
  H  H224  1  0.575800  0.895200  0.877300  1
  H  H225  1  0.411400  0.020900  0.351200  1
  H  H226  1  0.588600  0.979100  0.851200  1
  H  H227  1  0.790200  0.387000  0.207700  1
  H  H228  1  0.209800  0.613000  0.707700  1
  H  H229  1  0.772100  0.199200  0.294200  1
  H  H230  1  0.227900  0.800800  0.794200  1
  H  H231  1  0.674600  0.119000  0.280500  1
  H  H232  1  0.325400  0.881000  0.780500  1
  H  H233  1  0.668300  0.209000  0.300100  1
  H  H234  1  0.331700  0.791000  0.800100  1
  H  H235  1  0.582300  0.253600  0.254100  1
  H  H236  1  0.417700  0.746400  0.754100  1
  H  H237  1  0.580100  0.162600  0.233200  1
  H  H238  1  0.419900  0.837400  0.733200  1
  H  H239  1  0.624600  0.266000  0.216800  1
  H  H240  1  0.375400  0.734000  0.716800  1
  H  H241  1  0.774100  0.237200  0.204000  1
  H  H242  1  0.225900  0.762800  0.704000  1
  H  H243  1  0.739800  0.136600  0.222500  1
  H  H244  1  0.260200  0.863400  0.722500  1
  H  H245  1  0.840100  0.218600  0.233000  1
  H  H246  1  0.159900  0.781400  0.733000  1
  H  H247  1  0.938200  0.383200  0.382800  1
  H  H248  1  0.061800  0.616800  0.882800  1
  H  H249  1  0.728800  0.171600  0.399600  1
  H  H250  1  0.271200  0.828400  0.899600  1
  H  H251  1  0.836700  0.236900  0.388200  1
  H  H252  1  0.163300  0.763100  0.888200  1
  H  H253  1  0.750300  0.202500  0.361300  1
  H  H254  1  0.249700  0.797500  0.861300  1
  H  H255  1  0.623500  0.352500  0.388100  1
  H  H256  1  0.376500  0.647500  0.888100  1
  H  H257  1  0.596400  0.246900  0.402100  1
  H  H258  1  0.403600  0.753100  0.902100  1
  H  H259  1  0.617400  0.267900  0.363100  1
  H  H260  1  0.382600  0.732100  0.863100  1
  H  H261  1  0.763500  0.405800  0.430800  1
  H  H262  1  0.236500  0.594200  0.930800  1
  H  H263  1  0.837500  0.349800  0.431700  1
  H  H264  1  0.162500  0.650200  0.931700  1
  H  H265  1  0.726000  0.297400  0.442700  1
  H  H266  1  0.274000  0.702600  0.942700  1
  H  H267  1  0.628300  0.671100  0.320300  1
  H  H268  1  0.371700  0.328900  0.820300  1
  H  H269  1  0.475800  0.607900  0.309900  1
  H  H270  1  0.524200  0.392100  0.809900  1
  H  H271  1  0.392800  0.521400  0.291900  1
  H  H272  1  0.607200  0.478600  0.791900  1
  H  H273  1  0.489300  0.582700  0.271800  1
  H  H274  1  0.510700  0.417300  0.771800  1
  H  H275  1  0.413400  0.373200  0.282200  1
  H  H276  1  0.586600  0.626800  0.782200  1
  H  H277  1  0.512900  0.358400  0.291700  1
  H  H278  1  0.487100  0.641600  0.791700  1
  H  H279  1  0.509600  0.422700  0.260200  1
  H  H280  1  0.490400  0.577300  0.760200  1
  H  H281  1  0.496400  0.515500  0.355800  1
  H  H282  1  0.503600  0.484500  0.855800  1
  H  H283  1  0.521000  0.421700  0.350100  1
  H  H284  1  0.479000  0.578300  0.850100  1
  H  H285  1  0.413300  0.420300  0.342700  1
  H  H286  1  0.586700  0.579700  0.842700  1
  H  H287  1  0.993000  0.658100  0.236800  1
  H  H288  1  0.007000  0.341900  0.736800  1
  H  H289  1  0.042500  0.746500  0.142900  1
  H  H290  1  0.957500  0.253500  0.642900  1
  H  H291  1  0.918400  0.606200  0.125900  1
  H  H292  1  0.081600  0.393800  0.625900  1
  H  H293  1  0.832000  0.492200  0.165800  1
  H  H294  1  0.168000  0.507800  0.665800  1
  H  H295  1  0.089900  0.621500  0.320200  1
  H  H296  1  0.910100  0.378500  0.820200  1
  H  H297  1  0.347300  0.632900  0.353400  1
  H  H298  1  0.652700  0.367100  0.853400  1
  H  H299  1  0.271700  0.506200  0.388000  1
  H  H300  1  0.728300  0.493800  0.888000  1
  H  H301  1  0.099200  0.435700  0.389300  1
  H  H302  1  0.900800  0.564300  0.889300  1
  H  H303  1  0.939900  0.777300  0.313000  1
  H  H304  1  0.060100  0.222700  0.813000  1
  H  H305  1  0.965600  0.037500  0.340700  1
  H  H306  1  0.034400  0.962500  0.840700  1
  H  H307  1  0.795200  0.981000  0.350100  1
  H  H308  1  0.204800  0.019000  0.850100  1
  H  H309  1  0.701100  0.821500  0.340500  1
  H  H310  1  0.298900  0.178500  0.840500  1
  H  H311  1  0.954200  0.001800  0.619400  1
  H  H312  1  0.045800  0.998200  0.119400  1
  H  H313  1  0.005100  0.020500  0.583400  1
  H  H314  1  0.994900  0.979500  0.083400  1
  H  H315  1  0.590800  0.894300  0.577200  1
  H  H316  1  0.409200  0.105700  0.077200  1
  H  H317  1  0.522600  0.861600  0.545200  1
  H  H318  1  0.477400  0.138400  0.045200  1
  H  H319  1  0.648000  0.685000  0.218300  1
  H  H320  1  0.352000  0.315000  0.718300  1
  H  H321  1  0.557400  0.622400  0.195800  1
  H  H322  1  0.442600  0.377600  0.695800  1
  H  H323  1  0.173600  0.406200  0.271300  1
  H  H324  1  0.826400  0.593800  0.771300  1
  H  H325  1  0.159800  0.364300  0.308500  1
  H  H326  1  0.840200  0.635700  0.808500  1
  H  H327  1  0.400100  0.190700  0.626800  1
  H  H328  1  0.599900  0.809300  0.126800  1
  H  H329  1  0.435400  0.180400  0.589700  1
  H  H330  1  0.564600  0.819600  0.089700  1
  H  H331  1  0.511500  0.203000  0.620000  1
  H  H332  1  0.488500  0.797000  0.120000  1
  H  H333  1  0.415600  0.976000  0.659500  1
  H  H334  1  0.584400  0.024000  0.159500  1
  H  H335  1  0.385800  0.064500  0.669400  1
  H  H336  1  0.614200  0.935500  0.169400  1
  H  H337  1  0.498000  0.079600  0.662800  1
  H  H338  1  0.502000  0.920400  0.162800  1
  H  H339  1  0.474600  0.962900  0.602400  1
  H  H340  1  0.525400  0.037100  0.102400  1
  H  H341  1  0.555900  0.067200  0.605400  1
  H  H342  1  0.444100  0.932800  0.105400  1
  H  H343  1  0.480800  0.041500  0.574800  1
  H  H344  1  0.519200  0.958500  0.074800  1
  H  H345  1  0.342400  0.131400  0.231900  1
  H  H346  1  0.657600  0.868600  0.731900  1
  H  H347  1  0.241100  0.146900  0.226800  1
  H  H348  1  0.758900  0.853100  0.726800  1
  H  H349  1  0.332300  0.201000  0.203200  1
  H  H350  1  0.667700  0.799000  0.703200  1
  H  H351  1  0.327900  0.994100  0.157800  1
  H  H352  1  0.672100  0.005900  0.657800  1
  H  H353  1  0.393500  0.032900  0.190400  1
  H  H354  1  0.606500  0.967100  0.690400  1
  H  H355  1  0.389400  0.105200  0.161700  1
  H  H356  1  0.610600  0.894800  0.661700  1
  H  H357  1  0.176400  0.026800  0.149500  1
  H  H358  1  0.823600  0.973200  0.649500  1
  H  H359  1  0.238200  0.138000  0.152700  1
  H  H360  1  0.761800  0.862000  0.652700  1
  H  H361  1  0.145000  0.089500  0.176100  1
  H  H362  1  0.855000  0.910500  0.676100  1
  H  H363  1  0.497300  0.995900  0.245900  1
  H  H364  1  0.502700  0.004100  0.745900  1
  H  H365  1  0.475400  0.911700  0.219300  1
  H  H366  1  0.524600  0.088300  0.719300  1
  H  H367  1  0.584400  0.965500  0.232500  1
  H  H368  1  0.415600  0.034500  0.732500  1
  H  H369  1  0.490000  0.760700  0.235300  1
  H  H370  1  0.510000  0.239300  0.735300  1
  H  H371  1  0.510900  0.740600  0.273200  1
  H  H372  1  0.489100  0.259400  0.773200  1
  H  H373  1  0.596500  0.812100  0.250900  1
  H  H374  1  0.403500  0.187900  0.750900  1
  H  H375  1  0.531000  0.970900  0.305000  1
  H  H376  1  0.469000  0.029100  0.805000  1
  H  H377  1  0.623800  0.948300  0.292400  1
  H  H378  1  0.376200  0.051700  0.792400  1
  H  H379  1  0.544000  0.874400  0.315900  1
  H  H380  1  0.456000  0.125600  0.815900  1
  C  C381  1  0.230700  0.845400  0.504550  1
  C  C382  1  0.769300  0.154600  0.004550  1
  C  C383  1  0.309700  0.912200  0.487890  1
  C  C384  1  0.690300  0.087800  0.987890  1
  C  C385  1  0.329800  0.011300  0.491600  1
  C  C386  1  0.670200  0.988700  0.991600  1
  C  C387  1  0.412700  0.084900  0.473660  1
  C  C388  1  0.587300  0.915100  0.973660  1
  C  C389  1  0.482000  0.147800  0.500000  1
  C  C390  1  0.518000  0.852200  0.000000  1
  C  C391  1  0.471100  0.043400  0.450800  1
  C  C392  1  0.528900  0.956600  0.950800  1
  C  C393  1  0.369000  0.145300  0.453100  1
  C  C394  1  0.631000  0.854700  0.953100  1
  C  C395  1  0.141700  0.910800  0.615480  1
  C  C396  1  0.858300  0.089200  0.115480  1
  C  C397  1  0.234400  0.956900  0.628080  1
  C  C398  1  0.765600  0.043100  0.128080  1
  C  C399  1  0.312500  0.007900  0.607220  1
  C  C400  1  0.687500  0.992100  0.107220  1
  C  C401  1  0.411900  0.055600  0.623900  1
  C  C402  1  0.588100  0.944400  0.123900  1
  C  C403  1  0.488900  0.080400  0.596900  1
  C  C404  1  0.511100  0.919600  0.096900  1
  C  C405  1  0.406400  0.142100  0.641800  1
  C  C406  1  0.593600  0.857900  0.141800  1
  C  C407  1  0.431700  0.989600  0.649000  1
  C  C408  1  0.568300  0.010400  0.149000  1
  C  C409  1  0.028700  0.030700  0.512960  1
  C  C410  1  0.971300  0.969300  0.012960  1
  C  C411  1  0.073800  0.127400  0.517200  1
  C  C412  1  0.926200  0.872600  0.017200  1
  C  C413  1  0.149800  0.166100  0.540370  1
  C  C414  1  0.850200  0.833900  0.040370  1
  C  C415  1  0.191200  0.271200  0.548220  1
  C  C416  1  0.808800  0.728800  0.048220  1
  C  C417  1  0.217700  0.286300  0.584700  1
  C  C418  1  0.782300  0.713700  0.084700  1
  C  C419  1  0.280900  0.314800  0.527300  1
  C  C420  1  0.719100  0.685200  0.027300  1
  C  C421  1  0.116800  0.318400  0.540100  1
  C  C422  1  0.883200  0.681600  0.040100  1
  C  C423  1  0.970000  0.554900  0.518740  1
  C  C424  1  0.030000  0.445100  0.018740  1
  C  C425  1  0.926000  0.459300  0.525000  1
  C  C426  1  0.074000  0.540700  0.025000  1
  C  C427  1  0.838600  0.422600  0.542500  1
  C  C428  1  0.161400  0.577400  0.042500  1
  C  C429  1  0.797400  0.318100  0.552600  1
  C  C430  1  0.202600  0.681900  0.052600  1
  C  C431  1  0.821100  0.255300  0.527600  1
  C  C432  1  0.178900  0.744700  0.027600  1
  C  C433  1  0.686500  0.286800  0.555500  1
  C  C434  1  0.313500  0.713200  0.055500  1
  C  C435  1  0.842100  0.311500  0.585300  1
  C  C436  1  0.157900  0.688500  0.085300  1
  C  C437  1  0.830700  0.670200  0.610390  1
  C  C438  1  0.169300  0.329800  0.110390  1
  C  C439  1  0.736000  0.619800  0.620400  1
  C  C440  1  0.264000  0.380200  0.120400  1
  C  C441  1  0.661900  0.577100  0.596200  1
  C  C442  1  0.338100  0.422900  0.096200  1
  C  C443  1  0.557200  0.520600  0.608900  1
  C  C444  1  0.442800  0.479400  0.108900  1
  C  C445  1  0.488600  0.500400  0.579500  1
  C  C446  1  0.511400  0.499600  0.079500  1
  C  C447  1  0.559100  0.426800  0.623600  1
  C  C448  1  0.440900  0.573200  0.123600  1
  C  C449  1  0.528500  0.579200  0.635600  1
  C  C450  1  0.471500  0.420800  0.135600  1
  C  C451  1  0.770300  0.742400  0.492960  1
  C  C452  1  0.229700  0.257600  0.992960  1
  C  C453  1  0.693100  0.677600  0.477080  1
  C  C454  1  0.306900  0.322400  0.977080  1
  C  C455  1  0.662800  0.577600  0.483450  1
  C  C456  1  0.337200  0.422400  0.983450  1
  C  C457  1  0.572500  0.509100  0.466000  1
  C  C458  1  0.427500  0.490900  0.966000  1
  C  C459  1  0.591100  0.516800  0.428700  1
  C  C460  1  0.408900  0.483200  0.928700  1
  C  C461  1  0.551700  0.408300  0.477900  1
  C  C462  1  0.448300  0.591700  0.977900  1
  C  C463  1  0.484800  0.535200  0.475400  1
  C  C464  1  0.515200  0.464800  0.975400  1
  C  C465  1  0.202500  0.742500  0.496700  1
  C  C466  1  0.797500  0.257500  0.996700  1
  C  C467  1  0.256300  0.698100  0.480100  1
  C  C468  1  0.743700  0.301900  0.980100  1
  C  C469  1  0.215400  0.600100  0.476700  1
  C  C470  1  0.784600  0.399900  0.976700  1
  C  C471  1  0.124200  0.547400  0.488800  1
  C  C472  1  0.875800  0.452600  0.988800  1
  C  C473  1  0.071200  0.595100  0.504770  1
  C  C474  1  0.928800  0.404900  0.004770  1
  C  C475  1  0.062200  0.849300  0.637760  1
  C  C476  1  0.937800  0.150700  0.137760  1
  C  C477  1  0.059000  0.847300  0.672180  1
  C  C478  1  0.941000  0.152700  0.172180  1
  C  C479  1  0.975700  0.783800  0.687920  1
  C  C480  1  0.024300  0.216200  0.187920  1
  C  C481  1  0.898500  0.724800  0.669010  1
  C  C482  1  0.101500  0.275200  0.169010  1
  C  C483  1  0.903600  0.727400  0.635760  1
  C  C484  1  0.096400  0.272600  0.135760  1
  C  C485  1  0.935400  0.990500  0.493530  1
  C  C486  1  0.064600  0.009500  0.993530  1
  C  C487  1  0.894800  0.037900  0.472800  1
  C  C488  1  0.105200  0.962100  0.972800  1
  C  C489  1  0.810700  0.985100  0.455400  1
  C  C490  1  0.189300  0.014900  0.955400  1
  C  C491  1  0.765800  0.888000  0.460500  1
  C  C492  1  0.234200  0.112000  0.960500  1
  C  C493  1  0.807100  0.843300  0.483110  1
  C  C494  1  0.192900  0.156700  0.983110  1
  C  C495  1  0.103700  0.799200  0.208970  1
  C  C496  1  0.896300  0.200800  0.708970  1
  C  C497  1  0.152800  0.880300  0.192090  1
  C  C498  1  0.847200  0.119700  0.692090  1
  C  C499  1  0.215700  0.962900  0.208200  1
  C  C500  1  0.784300  0.037100  0.708200  1
  C  C501  1  0.273200  0.048400  0.186100  1
  C  C502  1  0.726800  0.951600  0.686100  1
  C  C503  1  0.203600  0.099000  0.179300  1
  C  C504  1  0.796400  0.901000  0.679300  1
  C  C505  1  0.359200  0.111700  0.206000  1
  C  C506  1  0.640800  0.888300  0.706000  1
  C  C507  1  0.305200  0.019600  0.152700  1
  C  C508  1  0.694800  0.980400  0.652700  1
  C  C509  1  0.258400  0.723600  0.310110  1
  C  C510  1  0.741600  0.276400  0.810110  1
  C  C511  1  0.355500  0.762300  0.301210  1
  C  C512  1  0.644500  0.237700  0.801210  1
  C  C513  1  0.387900  0.829700  0.275560  1
  C  C514  1  0.612100  0.170300  0.775560  1
  C  C515  1  0.493200  0.862100  0.262700  1
  C  C516  1  0.506800  0.137900  0.762700  1
  C  C517  1  0.499400  0.787300  0.237800  1
  C  C518  1  0.500600  0.212700  0.737800  1
  C  C519  1  0.561700  0.873000  0.292100  1
  C  C520  1  0.438300  0.127000  0.792100  1
  C  C521  1  0.513000  0.955400  0.244900  1
  C  C522  1  0.487000  0.044600  0.744900  1
  C  C523  1  0.073500  0.931500  0.315940  1
  C  C524  1  0.926500  0.068500  0.815940  1
  C  C525  1  0.147100  0.009300  0.327890  1
  C  C526  1  0.852900  0.990700  0.827890  1
  C  C527  1  0.246100  0.022100  0.322910  1
  C  C528  1  0.753900  0.977900  0.822910  1
  C  C529  1  0.330600  0.102200  0.338920  1
  C  C530  1  0.669400  0.897800  0.838920  1
  C  C531  1  0.299600  0.176500  0.355900  1
  C  C532  1  0.700400  0.823500  0.855900  1
  C  C533  1  0.404400  0.149400  0.311000  1
  C  C534  1  0.595600  0.850600  0.811000  1
  C  C535  1  0.377300  0.056000  0.363400  1
  C  C536  1  0.622700  0.944000  0.863400  1
  C  C537  1  0.858200  0.505100  0.234460  1
  C  C538  1  0.141800  0.494900  0.734460  1
  C  C539  1  0.805100  0.411100  0.229800  1
  C  C540  1  0.194900  0.588900  0.729800  1
  C  C541  1  0.771300  0.348000  0.257800  1
  C  C542  1  0.228700  0.652000  0.757800  1
  C  C543  1  0.718400  0.241200  0.251300  1
  C  C544  1  0.281600  0.758800  0.751300  1
  C  C545  1  0.707400  0.187200  0.284500  1
  C  C546  1  0.292600  0.812800  0.784500  1
  C  C547  1  0.617200  0.229800  0.237600  1
  C  C548  1  0.382800  0.770200  0.737600  1
  C  C549  1  0.773000  0.205200  0.225400  1
  C  C550  1  0.227000  0.794800  0.725400  1
  C  C551  1  0.969700  0.486700  0.348750  1
  C  C552  1  0.030300  0.513300  0.848750  1
  C  C553  1  0.909900  0.416100  0.368340  1
  C  C554  1  0.090100  0.583900  0.868340  1
  C  C555  1  0.806600  0.389600  0.368010  1
  C  C556  1  0.193400  0.610400  0.868010  1
  C  C557  1  0.742800  0.311900  0.391500  1
  C  C558  1  0.257200  0.688100  0.891500  1
  C  C559  1  0.766800  0.222600  0.384500  1
  C  C560  1  0.233200  0.777400  0.884500  1
  C  C561  1  0.635600  0.293200  0.385700  1
  C  C562  1  0.364400  0.706800  0.885700  1
  C  C563  1  0.769800  0.344100  0.427400  1
  C  C564  1  0.230200  0.655900  0.927400  1
  C  C565  1  0.768800  0.678100  0.319050  1
  C  C566  1  0.231200  0.321900  0.819050  1
  C  C567  1  0.668600  0.635300  0.315920  1
  C  C568  1  0.331400  0.364700  0.815920  1
  C  C569  1  0.624500  0.537700  0.306140  1
  C  C570  1  0.375500  0.462300  0.806140  1
  C  C571  1  0.513100  0.489600  0.305200  1
  C  C572  1  0.486900  0.510400  0.805200  1
  C  C573  1  0.463400  0.556300  0.293700  1
  C  C574  1  0.536600  0.443700  0.793700  1
  C  C575  1  0.484700  0.403400  0.282900  1
  C  C576  1  0.515300  0.596600  0.782900  1
  C  C577  1  0.483200  0.459000  0.341800  1
  C  C578  1  0.516800  0.541000  0.841800  1
  C  C579  1  0.027500  0.716700  0.191840  1
  C  C580  1  0.972500  0.283300  0.691840  1
  C  C581  1  0.007100  0.700900  0.159000  1
  C  C582  1  0.992900  0.299100  0.659000  1
  C  C583  1  0.933800  0.617200  0.149000  1
  C  C584  1  0.066200  0.382800  0.649000  1
  C  C585  1  0.882500  0.549200  0.172500  1
  C  C586  1  0.117500  0.450800  0.672500  1
  C  C587  1  0.906400  0.566400  0.204960  1
  C  C588  1  0.093600  0.433600  0.704960  1
  C  C589  1  0.222900  0.639400  0.333260  1
  C  C590  1  0.777100  0.360600  0.833260  1
  C  C591  1  0.278000  0.604500  0.353670  1
  C  C592  1  0.722000  0.395500  0.853670  1
  C  C593  1  0.233400  0.529900  0.374000  1
  C  C594  1  0.766600  0.470100  0.874000  1
  C  C595  1  0.130900  0.486900  0.374590  1
  C  C596  1  0.869100  0.513100  0.874590  1
  C  C597  1  0.077900  0.520900  0.353390  1
  C  C598  1  0.922100  0.479100  0.853390  1
  C  C599  1  0.969400  0.909600  0.325690  1
  C  C600  1  0.030600  0.090400  0.825690  1
  C  C601  1  0.926900  0.972700  0.336900  1
  C  C602  1  0.073100  0.027300  0.836900  1
  C  C603  1  0.825500  0.938900  0.342500  1
  C  C604  1  0.174500  0.061100  0.842500  1
  C  C605  1  0.769700  0.844200  0.336900  1
  C  C606  1  0.230300  0.155800  0.836900  1
  C  C607  1  0.814100  0.783500  0.325990  1
  C  C608  1  0.185900  0.216500  0.825990  1
  C  C609  1  0.942700  0.008800  0.595300  1
  C  C610  1  0.057300  0.991200  0.095300  1
  C  C611  1  0.590500  0.878100  0.553200  1
  C  C612  1  0.409500  0.121900  0.053200  1
  C  C613  1  0.627400  0.636300  0.200500  1
  C  C614  1  0.372600  0.363700  0.700500  1
  C  C615  1  0.137800  0.349700  0.285000  1
  C  C616  1  0.862200  0.650300  0.785000  1
  C  C617  1  0.417900  0.062300  0.619000  1
  C  C618  1  0.582100  0.937700  0.119000  1
  C  C619  1  0.443500  0.168700  0.613400  1
  C  C620  1  0.556500  0.831300  0.113400  1
  C  C621  1  0.430400  0.043900  0.656000  1
  C  C622  1  0.569600  0.956100  0.156000  1
  C  C623  1  0.488600  0.030600  0.598600  1
  C  C624  1  0.511400  0.969400  0.098600  1
  C  C625  1  0.265200  0.059800  0.191100  1
  C  C626  1  0.734800  0.940200  0.691100  1
  C  C627  1  0.298000  0.142000  0.215400  1
  C  C628  1  0.702000  0.858000  0.715400  1
  C  C629  1  0.351700  0.046800  0.173700  1
  C  C630  1  0.648300  0.953200  0.673700  1
  C  C631  1  0.200500  0.080000  0.165100  1
  C  C632  1  0.799500  0.920000  0.665100  1
  C  C633  1  0.497000  0.871200  0.267100  1
  C  C634  1  0.503000  0.128800  0.767100  1
  C  C635  1  0.515000  0.942000  0.238700  1
  C  C636  1  0.485000  0.058000  0.738700  1
  C  C637  1  0.526200  0.788800  0.255600  1
  C  C638  1  0.473800  0.211200  0.755600  1
  C  C639  1  0.554000  0.921000  0.297800  1
  C  C640  1  0.446000  0.079000  0.797800  1
  N  N641  1  0.113200  0.690300  0.507810  1
  N  N642  1  0.886800  0.309700  0.007810  1
  N  N643  1  0.984000  0.789200  0.621210  1
  N  N644  1  0.016000  0.210800  0.121210  1
  N  N645  1  0.890000  0.896200  0.497900  1
  N  N646  1  0.110000  0.103800  0.997900  1
  N  N647  1  0.977100  0.647900  0.213830  1
  N  N648  1  0.022900  0.352100  0.713830  1
  N  N649  1  0.127000  0.597100  0.334050  1
  N  N650  1  0.873000  0.402900  0.834050  1
  N  N651  1  0.910600  0.819400  0.320790  1
  N  N652  1  0.089400  0.180600  0.820790  1
  Cl  Cl653  1  0.275900  0.563300  0.563500  1
  Cl  Cl654  1  0.724100  0.436700  0.063500  1
  Cl  Cl655  1  0.320300  0.670500  0.644590  1
  Cl  Cl656  1  0.679700  0.329500  0.144590  1
  Cl  Cl657  1  0.103900  0.648600  0.597300  1
  Cl  Cl658  1  0.896100  0.351400  0.097300  1
  Cl  Cl659  1  0.340900  0.808600  0.571950  1
  Cl  Cl660  1  0.659100  0.191400  0.071950  1
  Cl  Cl661  1  0.957100  0.584940  0.432930  1
  Cl  Cl662  1  0.042900  0.415060  0.932930  1
  Cl  Cl663  1  0.831560  0.733000  0.403380  1
  Cl  Cl664  1  0.168440  0.267000  0.903380  1
  Cl  Cl665  1  0.040520  0.828710  0.455540  1
  Cl  Cl666  1  0.959480  0.171290  0.955540  1
  Cl  Cl667  1  0.068830  0.761470  0.371700  1
  Cl  Cl668  1  0.931170  0.238530  0.871700  1
  Cl  Cl669  1  0.100700  0.094980  0.427630  1
  Cl  Cl670  1  0.899300  0.905020  0.927630  1
  Cl  Cl671  1  0.263280  0.339130  0.421620  1
  Cl  Cl672  1  0.736720  0.660870  0.921620  1
  Cl  Cl673  1  0.017780  0.288990  0.446960  1
  Cl  Cl674  1  0.982220  0.711010  0.946960  1
  Cl  Cl675  1  0.061430  0.237340  0.363810  1
  Cl  Cl676  1  0.938570  0.762660  0.863810  1
  Cl  Cl677  1  0.511660  0.803110  0.459330  1
  Cl  Cl678  1  0.488340  0.196890  0.959330  1
  Cl  Cl679  1  0.351270  0.816730  0.395510  1
  Cl  Cl680  1  0.648730  0.183270  0.895510  1
  Cl  Cl681  1  0.611720  0.961490  0.390420  1
  Cl  Cl682  1  0.388280  0.038510  0.890420  1
  Cl  Cl683  1  0.531000  0.712930  0.378630  1
  Cl  Cl684  1  0.469000  0.287070  0.878630  1
  Cl  Cl685  1  0.010810  0.013030  0.242340  1
  Cl  Cl686  1  0.989190  0.986970  0.742340  1
  Cl  Cl687  1  0.762650  0.953630  0.221110  1
  Cl  Cl688  1  0.237350  0.046370  0.721110  1
  Cl  Cl689  1  0.919340  0.899880  0.163950  1
  Cl  Cl690  1  0.080660  0.100120  0.663950  1
  Cl  Cl691  1  0.850100  0.769210  0.241330  1
  Cl  Cl692  1  0.149900  0.230790  0.741330  1
  Cl  Cl693  1  0.294900  0.711200  0.183160  1
  Cl  Cl694  1  0.705100  0.288800  0.683160  1
  Cl  Cl695  1  0.142100  0.570500  0.248130  1
  Cl  Cl696  1  0.857900  0.429500  0.748130  1
  Cl  Cl697  1  0.308600  0.483500  0.209170  1
  Cl  Cl698  1  0.691400  0.516500  0.709170  1
  Cl  Cl699  1  0.104900  0.499820  0.163400  1
  Cl  Cl700  1  0.895100  0.500180  0.663400  1
  Cl  Cl701  1  0.908000  0.106050  0.589880  1
  Cl  Cl702  1  0.092000  0.893950  0.089880  1
  Cl  Cl703  1  0.856080  0.903390  0.580720  1
  Cl  Cl704  1  0.143920  0.096610  0.080720  1
  Cl  Cl705  1  0.658800  0.977200  0.533270  1
  Cl  Cl706  1  0.341200  0.022800  0.033270  1
  Cl  Cl707  1  0.616800  0.780400  0.550840  1
  Cl  Cl708  1  0.383200  0.219600  0.050840  1
  Cl  Cl709  1  0.642600  0.534800  0.214250  1
  Cl  Cl710  1  0.357400  0.465200  0.714250  1
  Cl  Cl711  1  0.695100  0.680300  0.164670  1
  Cl  Cl712  1  0.304900  0.319700  0.664670  1
  Cl  Cl713  1  0.168300  0.255500  0.271430  1
  Cl  Cl714  1  0.831700  0.744500  0.771430  1
  Cl  Cl715  1  0.014000  0.329700  0.282940  1
  Cl  Cl716  1  0.986000  0.670300  0.782940  1
  Cl  Cl717  1  0.255700  0.539000  0.596100  1
  Cl  Cl718  1  0.744300  0.461000  0.096100  1
  Cl  Cl719  1  0.283700  0.729100  0.650400  1
  Cl  Cl720  1  0.716300  0.270900  0.150400  1
  Cl  Cl721  1  0.095900  0.664600  0.590800  1
  Cl  Cl722  1  0.904100  0.335400  0.090800  1
  Cl  Cl723  1  0.344600  0.776100  0.564900  1
  Cl  Cl724  1  0.655400  0.223900  0.064900  1
  O  O725  1  0.175000  0.862400  0.525730  1
  O  O726  1  0.825000  0.137600  0.025730  1
  O  O727  1  0.278100  0.043200  0.509650  1
  O  O728  1  0.721900  0.956800  0.009650  1
  O  O729  1  0.113000  0.913400  0.585230  1
  O  O730  1  0.887000  0.086600  0.085230  1
  O  O731  1  0.303500  0.017100  0.576180  1
  O  O732  1  0.696500  0.982900  0.076180  1
  O  O733  1  0.056200  0.967400  0.525860  1
  O  O734  1  0.943800  0.032600  0.025860  1
  O  O735  1  0.187900  0.115600  0.556200  1
  O  O736  1  0.812100  0.884400  0.056200  1
  O  O737  1  0.934100  0.619300  0.524150  1
  O  O738  1  0.065900  0.380700  0.024150  1
  O  O739  1  0.791500  0.474000  0.552560  1
  O  O740  1  0.208500  0.526000  0.052560  1
  O  O741  1  0.863300  0.678700  0.580640  1
  O  O742  1  0.136700  0.321300  0.080640  1
  O  O743  1  0.677200  0.579200  0.565780  1
  O  O744  1  0.322800  0.420800  0.065780  1
  O  O745  1  0.820600  0.725500  0.517030  1
  O  O746  1  0.179400  0.274500  0.017030  1
  O  O747  1  0.710300  0.544000  0.502610  1
  O  O748  1  0.289700  0.456000  0.002610  1
  O  O749  1  0.112200  0.784200  0.240220  1
  O  O750  1  0.887800  0.215800  0.740220  1
  O  O751  1  0.229700  0.966800  0.239070  1
  O  O752  1  0.770300  0.033200  0.739070  1
  O  O753  1  0.189400  0.749300  0.300100  1
  O  O754  1  0.810600  0.250700  0.800100  1
  O  O755  1  0.332100  0.862600  0.260590  1
  O  O756  1  0.667900  0.137400  0.760590  1
  O  O757  1  0.082400  0.866800  0.297060  1
  O  O758  1  0.917600  0.133200  0.797060  1
  O  O759  1  0.271400  0.965100  0.305490  1
  O  O760  1  0.728600  0.034900  0.805490  1
  O  O761  1  0.875600  0.550100  0.262380  1
  O  O762  1  0.124400  0.449900  0.762380  1
  O  O763  1  0.781200  0.374700  0.286880  1
  O  O764  1  0.218800  0.625300  0.786880  1
  O  O765  1  0.943400  0.531200  0.325590  1
  O  O766  1  0.056600  0.468800  0.825590  1
  O  O767  1  0.764100  0.430300  0.349530  1
  O  O768  1  0.235900  0.569700  0.849530  1
  O  O769  1  0.831900  0.639200  0.316240  1
  O  O770  1  0.168100  0.360800  0.816240  1
  O  O771  1  0.673900  0.488400  0.298950  1
  O  O772  1  0.326100  0.511600  0.798950  1
