# generated using pymatgen
data_CuH24C13(NO2)2
_symmetry_space_group_name_H-M   'P 1'
_cell_length_a   10.45400000
_cell_length_b   11.17700000
_cell_length_c   14.53800000
_cell_angle_alpha   95.03000000
_cell_angle_beta   90.00000000
_cell_angle_gamma   90.00000000
_symmetry_Int_Tables_number   1
_chemical_formula_structural   CuH24C13(NO2)2
_chemical_formula_sum   'Cu4 H96 C52 N8 O16'
_cell_volume   1692.14152313
_cell_formula_units_Z   4
loop_
 _symmetry_equiv_pos_site_id
 _symmetry_equiv_pos_as_xyz
  1  'x, y, z'
loop_
 _atom_site_type_symbol
 _atom_site_label
 _atom_site_symmetry_multiplicity
 _atom_site_fract_x
 _atom_site_fract_y
 _atom_site_fract_z
 _atom_site_occupancy
  Cu  Cu1  1  0.014500  0.085870  0.210380  1.0
  Cu  Cu2  1  0.514500  0.414130  0.789620  1.0
  Cu  Cu3  1  0.985500  0.914130  0.789620  1.0
  Cu  Cu4  1  0.485500  0.585870  0.210380  1.0
  H  H5  1  0.677800  0.330000  0.328800  1.0
  H  H6  1  0.177800  0.170000  0.671200  1.0
  H  H7  1  0.322200  0.670000  0.671200  1.0
  H  H8  1  0.822200  0.830000  0.328800  1.0
  H  H9  1  0.575400  0.189100  0.415100  1.0
  H  H10  1  0.075400  0.310900  0.584900  1.0
  H  H11  1  0.424600  0.810900  0.584900  1.0
  H  H12  1  0.924600  0.689100  0.415100  1.0
  H  H13  1  0.593700  0.132600  0.314700  1.0
  H  H14  1  0.093700  0.367400  0.685300  1.0
  H  H15  1  0.406300  0.867400  0.685300  1.0
  H  H16  1  0.906300  0.632600  0.314700  1.0
  H  H17  1  0.685400  0.098100  0.392000  1.0
  H  H18  1  0.185400  0.401900  0.608000  1.0
  H  H19  1  0.314600  0.901900  0.608000  1.0
  H  H20  1  0.814600  0.598100  0.392000  1.0
  H  H21  1  0.740800  0.345000  0.484500  1.0
  H  H22  1  0.240800  0.155000  0.515500  1.0
  H  H23  1  0.259200  0.655000  0.515500  1.0
  H  H24  1  0.759200  0.845000  0.484500  1.0
  H  H25  1  0.848600  0.251700  0.461500  1.0
  H  H26  1  0.348600  0.248300  0.538500  1.0
  H  H27  1  0.151400  0.748300  0.538500  1.0
  H  H28  1  0.651400  0.751700  0.461500  1.0
  H  H29  1  0.856400  0.377600  0.424500  1.0
  H  H30  1  0.356400  0.122400  0.575500  1.0
  H  H31  1  0.143600  0.622400  0.575500  1.0
  H  H32  1  0.643600  0.877600  0.424500  1.0
  H  H33  1  0.340800  0.802700  0.216400  1.0
  H  H34  1  0.840800  0.697300  0.783600  1.0
  H  H35  1  0.659200  0.197300  0.783600  1.0
  H  H36  1  0.159200  0.302700  0.216400  1.0
  H  H37  1  0.242700  0.671300  0.313700  1.0
  H  H38  1  0.742700  0.828700  0.686300  1.0
  H  H39  1  0.757300  0.328700  0.686300  1.0
  H  H40  1  0.257300  0.171300  0.313700  1.0
  H  H41  1  0.129900  0.760700  0.330500  1.0
  H  H42  1  0.629900  0.739300  0.669500  1.0
  H  H43  1  0.870100  0.239300  0.669500  1.0
  H  H44  1  0.370100  0.260700  0.330500  1.0
  H  H45  1  0.150500  0.694000  0.233500  1.0
  H  H46  1  0.650500  0.806000  0.766500  1.0
  H  H47  1  0.849500  0.306000  0.766500  1.0
  H  H48  1  0.349500  0.194000  0.233500  1.0
  H  H49  1  0.403200  0.830200  0.370100  1.0
  H  H50  1  0.903200  0.669800  0.629900  1.0
  H  H51  1  0.596800  0.169800  0.629900  1.0
  H  H52  1  0.096800  0.330200  0.370100  1.0
  H  H53  1  0.406700  0.952100  0.326500  1.0
  H  H54  1  0.906700  0.547900  0.673500  1.0
  H  H55  1  0.593300  0.047900  0.673500  1.0
  H  H56  1  0.093300  0.452100  0.326500  1.0
  H  H57  1  0.293800  0.922600  0.390000  1.0
  H  H58  1  0.793800  0.577400  0.610000  1.0
  H  H59  1  0.706200  0.077400  0.610000  1.0
  H  H60  1  0.206200  0.422600  0.390000  1.0
  H  H61  1  0.398700  0.911400  0.112600  1.0
  H  H62  1  0.898700  0.588600  0.887400  1.0
  H  H63  1  0.601300  0.088600  0.887400  1.0
  H  H64  1  0.101300  0.411400  0.112600  1.0
  H  H65  1  0.345800  0.988200  0.037300  1.0
  H  H66  1  0.845800  0.511800  0.962700  1.0
  H  H67  1  0.654200  0.011800  0.962700  1.0
  H  H68  1  0.154200  0.488200  0.037300  1.0
  H  H69  1  0.203600  0.815900  0.996100  1.0
  H  H70  1  0.703600  0.684100  0.003900  1.0
  H  H71  1  0.796400  0.184100  0.003900  1.0
  H  H72  1  0.296400  0.315900  0.996100  1.0
  H  H73  1  0.299800  0.743500  0.050700  1.0
  H  H74  1  0.799800  0.756500  0.949300  1.0
  H  H75  1  0.700200  0.256500  0.949300  1.0
  H  H76  1  0.200200  0.243500  0.050700  1.0
  H  H77  1  0.816700  0.391600  0.114700  1.0
  H  H78  1  0.316700  0.108400  0.885300  1.0
  H  H79  1  0.183300  0.608400  0.885300  1.0
  H  H80  1  0.683300  0.891600  0.114700  1.0
  H  H81  1  0.760200  0.424300  0.212300  1.0
  H  H82  1  0.260200  0.075700  0.787700  1.0
  H  H83  1  0.239800  0.575700  0.787700  1.0
  H  H84  1  0.739800  0.924300  0.212300  1.0
  H  H85  1  0.464400  0.808400  0.950100  1.0
  H  H86  1  0.964400  0.691600  0.049900  1.0
  H  H87  1  0.535600  0.191600  0.049900  1.0
  H  H88  1  0.035600  0.308400  0.950100  1.0
  H  H89  1  0.358500  0.859000  0.889700  1.0
  H  H90  1  0.858500  0.641000  0.110300  1.0
  H  H91  1  0.641500  0.141000  0.110300  1.0
  H  H92  1  0.141500  0.359000  0.889700  1.0
  H  H93  1  0.393600  0.614100  0.911800  1.0
  H  H94  1  0.893600  0.885900  0.088200  1.0
  H  H95  1  0.606400  0.385900  0.088200  1.0
  H  H96  1  0.106400  0.114100  0.911800  1.0
  H  H97  1  0.422200  0.673200  0.821400  1.0
  H  H98  1  0.922200  0.826800  0.178600  1.0
  H  H99  1  0.577800  0.326800  0.178600  1.0
  H  H100  1  0.077800  0.173200  0.821400  1.0
  C  C101  1  0.843500  0.260100  0.199600  1.0
  C  C102  1  0.343500  0.239900  0.800400  1.0
  C  C103  1  0.156500  0.739900  0.800400  1.0
  C  C104  1  0.656500  0.760100  0.199600  1.0
  C  C105  1  0.217000  0.967700  0.139600  1.0
  C  C106  1  0.717000  0.532300  0.860400  1.0
  C  C107  1  0.783000  0.032300  0.860400  1.0
  C  C108  1  0.283000  0.467700  0.139600  1.0
  C  C109  1  0.727200  0.263100  0.349800  1.0
  C  C110  1  0.227200  0.236900  0.650200  1.0
  C  C111  1  0.272800  0.736900  0.650200  1.0
  C  C112  1  0.772800  0.763100  0.349800  1.0
  C  C113  1  0.638100  0.163500  0.370300  1.0
  C  C114  1  0.138100  0.336500  0.629700  1.0
  C  C115  1  0.361900  0.836500  0.629700  1.0
  C  C116  1  0.861900  0.663500  0.370300  1.0
  C  C117  1  0.798800  0.314000  0.435300  1.0
  C  C118  1  0.298800  0.186000  0.564700  1.0
  C  C119  1  0.201200  0.686000  0.564700  1.0
  C  C120  1  0.701200  0.814000  0.435300  1.0
  C  C121  1  0.277900  0.833900  0.261000  1.0
  C  C122  1  0.777900  0.666100  0.739000  1.0
  C  C123  1  0.722100  0.166100  0.739000  1.0
  C  C124  1  0.222100  0.333900  0.261000  1.0
  C  C125  1  0.193000  0.733000  0.286000  1.0
  C  C126  1  0.693000  0.767000  0.714000  1.0
  C  C127  1  0.807000  0.267000  0.714000  1.0
  C  C128  1  0.307000  0.233000  0.286000  1.0
  C  C129  1  0.351200  0.890100  0.341800  1.0
  C  C130  1  0.851200  0.609900  0.658200  1.0
  C  C131  1  0.648800  0.109900  0.658200  1.0
  C  C132  1  0.148800  0.390100  0.341800  1.0
  C  C133  1  0.322400  0.926400  0.074700  1.0
  C  C134  1  0.822400  0.573600  0.925300  1.0
  C  C135  1  0.677600  0.073600  0.925300  1.0
  C  C136  1  0.177600  0.426400  0.074700  1.0
  C  C137  1  0.290000  0.813100  0.014100  1.0
  C  C138  1  0.790000  0.686900  0.985900  1.0
  C  C139  1  0.710000  0.186900  0.985900  1.0
  C  C140  1  0.210000  0.313100  0.014100  1.0
  C  C141  1  0.375800  0.795900  0.930500  1.0
  C  C142  1  0.875800  0.704100  0.069500  1.0
  C  C143  1  0.624200  0.204100  0.069500  1.0
  C  C144  1  0.124200  0.295900  0.930500  1.0
  C  C145  1  0.767500  0.359600  0.162700  1.0
  C  C146  1  0.267500  0.140400  0.837300  1.0
  C  C147  1  0.232500  0.640400  0.837300  1.0
  C  C148  1  0.732500  0.859600  0.162700  1.0
  C  C149  1  0.364100  0.675000  0.874100  1.0
  C  C150  1  0.864100  0.825000  0.125900  1.0
  C  C151  1  0.635900  0.325000  0.125900  1.0
  C  C152  1  0.135900  0.175000  0.874100  1.0
  N  N153  1  0.819500  0.219300  0.279400  1.0
  N  N154  1  0.319500  0.280700  0.720600  1.0
  N  N155  1  0.180500  0.780700  0.720600  1.0
  N  N156  1  0.680500  0.719300  0.279400  1.0
  N  N157  1  0.200600  0.924000  0.219700  1.0
  N  N158  1  0.700600  0.576000  0.780300  1.0
  N  N159  1  0.799400  0.076000  0.780300  1.0
  N  N160  1  0.299400  0.424000  0.219700  1.0
  O  O161  1  0.892600  0.124600  0.303500  1.0
  O  O162  1  0.392600  0.375400  0.696500  1.0
  O  O163  1  0.107400  0.875400  0.696500  1.0
  O  O164  1  0.607400  0.624600  0.303500  1.0
  O  O165  1  0.933700  0.211800  0.150600  1.0
  O  O166  1  0.433700  0.288200  0.849400  1.0
  O  O167  1  0.066300  0.788200  0.849400  1.0
  O  O168  1  0.566300  0.711800  0.150600  1.0
  O  O169  1  0.100600  0.969000  0.273500  1.0
  O  O170  1  0.600600  0.531000  0.726500  1.0
  O  O171  1  0.899400  0.031000  0.726500  1.0
  O  O172  1  0.399400  0.469000  0.273500  1.0
  O  O173  1  0.138400  0.046700  0.115500  1.0
  O  O174  1  0.638400  0.453300  0.884500  1.0
  O  O175  1  0.861600  0.953300  0.884500  1.0
  O  O176  1  0.361600  0.546700  0.115500  1.0
