# generated using pymatgen
data_H42PdC42(NO)6
_symmetry_space_group_name_H-M   'P 1'
_cell_length_a   17.62689536
_cell_length_b   17.62689536
_cell_length_c   17.62689536
_cell_angle_alpha   104.16505565
_cell_angle_beta   104.16505565
_cell_angle_gamma   104.16505565
_symmetry_Int_Tables_number   1
_chemical_formula_structural   H42PdC42(NO)6
_chemical_formula_sum   'H126 Pd3 C126 N18 O18'
_cell_volume   4871.07152346
_cell_formula_units_Z   3
loop_
 _symmetry_equiv_pos_site_id
 _symmetry_equiv_pos_as_xyz
  1  'x, y, z'
loop_
 _atom_site_type_symbol
 _atom_site_label
 _atom_site_symmetry_multiplicity
 _atom_site_fract_x
 _atom_site_fract_y
 _atom_site_fract_z
 _atom_site_occupancy
  C  C1  1  0.650700  0.994200  0.452800  1.0
  C  C2  1  0.452800  0.650700  0.994200  1.0
  C  C3  1  0.994200  0.452800  0.650700  1.0
  C  C4  1  0.612400  0.936900  0.485700  1.0
  C  C5  1  0.485700  0.612400  0.936900  1.0
  C  C6  1  0.936900  0.485700  0.612400  1.0
  C  C7  1  0.546100  0.948000  0.516000  1.0
  C  C8  1  0.516000  0.546100  0.948000  1.0
  C  C9  1  0.948000  0.516000  0.546100  1.0
  C  C10  1  0.524700  0.019100  0.516400  1.0
  C  C11  1  0.516400  0.524700  0.019100  1.0
  C  C12  1  0.019100  0.516400  0.524700  1.0
  C  C13  1  0.570800  0.079700  0.486800  1.0
  C  C14  1  0.486800  0.570800  0.079700  1.0
  C  C15  1  0.079700  0.486800  0.570800  1.0
  C  C16  1  0.543800  0.152000  0.485600  1.0
  C  C17  1  0.485600  0.543800  0.152000  1.0
  C  C18  1  0.152000  0.485600  0.543800  1.0
  C  C19  1  0.457000  0.130200  0.435500  1.0
  C  C20  1  0.435500  0.457000  0.130200  1.0
  C  C21  1  0.130200  0.435500  0.457000  1.0
  C  C22  1  0.434400  0.232000  0.373100  1.0
  C  C23  1  0.373100  0.434400  0.232000  1.0
  C  C24  1  0.232000  0.373100  0.434400  1.0
  C  C25  1  0.392430  0.296770  0.363800  1.0
  C  C26  1  0.363800  0.392430  0.296770  1.0
  C  C27  1  0.296770  0.363800  0.392430  1.0
  C  C28  1  0.337810  0.308500  0.404890  1.0
  C  C29  1  0.404890  0.337810  0.308500  1.0
  C  C30  1  0.308500  0.404890  0.337810  1.0
  C  C31  1  0.866800  0.208500  0.408200  1.0
  C  C32  1  0.408200  0.866800  0.208500  1.0
  C  C33  1  0.208500  0.408200  0.866800  1.0
  C  C34  1  0.922800  0.249000  0.374700  1.0
  C  C35  1  0.374700  0.922800  0.249000  1.0
  C  C36  1  0.249000  0.374700  0.922800  1.0
  C  C37  1  0.911200  0.312200  0.341400  1.0
  C  C38  1  0.341400  0.911200  0.312200  1.0
  C  C39  1  0.312200  0.341400  0.911200  1.0
  C  C40  1  0.840300  0.332300  0.343000  1.0
  C  C41  1  0.343000  0.840300  0.332300  1.0
  C  C42  1  0.332300  0.343000  0.840300  1.0
  C  C43  1  0.780900  0.289500  0.372000  1.0
  C  C44  1  0.372000  0.780900  0.289500  1.0
  C  C45  1  0.289500  0.372000  0.780900  1.0
  C  C46  1  0.706500  0.314900  0.373600  1.0
  C  C47  1  0.373600  0.706500  0.314900  1.0
  C  C48  1  0.314900  0.373600  0.706500  1.0
  C  C49  1  0.729600  0.404500  0.424100  1.0
  C  C50  1  0.424100  0.729600  0.404500  1.0
  C  C51  1  0.404500  0.424100  0.729600  1.0
  C  C52  1  0.628000  0.425100  0.487400  1.0
  C  C53  1  0.487400  0.628000  0.425100  1.0
  C  C54  1  0.425100  0.487400  0.628000  1.0
  C  C55  1  0.562450  0.467710  0.495940  1.0
  C  C56  1  0.495940  0.562450  0.467710  1.0
  C  C57  1  0.467710  0.495940  0.562450  1.0
  C  C58  1  0.549980  0.523320  0.457300  1.0
  C  C59  1  0.457300  0.549980  0.523320  1.0
  C  C60  1  0.523320  0.457300  0.549980  1.0
  C  C61  1  0.808200  0.168500  0.599800  1.0
  C  C62  1  0.599800  0.808200  0.168500  1.0
  C  C63  1  0.168500  0.599800  0.808200  1.0
  C  C64  1  0.838200  0.199500  0.684300  1.0
  C  C65  1  0.684300  0.838200  0.199500  1.0
  C  C66  1  0.199500  0.684300  0.838200  1.0
  C  C67  1  0.825900  0.269800  0.721400  1.0
  C  C68  1  0.721400  0.825900  0.269800  1.0
  C  C69  1  0.269800  0.721400  0.825900  1.0
  C  C70  1  0.786400  0.313200  0.679100  1.0
  C  C71  1  0.679100  0.786400  0.313200  1.0
  C  C72  1  0.313200  0.679100  0.786400  1.0
  C  C73  1  0.756900  0.279800  0.596500  1.0
  C  C74  1  0.596500  0.756900  0.279800  1.0
  C  C75  1  0.279800  0.596500  0.756900  1.0
  C  C76  1  0.771800  0.388000  0.720900  1.0
  C  C77  1  0.720900  0.771800  0.388000  1.0
  C  C78  1  0.388000  0.720900  0.771800  1.0
  C  C79  1  0.682200  0.364800  0.736500  1.0
  C  C80  1  0.736500  0.682200  0.364800  1.0
  C  C81  1  0.364800  0.736500  0.682200  1.0
  C  C82  1  0.681600  0.442800  0.795900  1.0
  C  C83  1  0.795900  0.681600  0.442800  1.0
  C  C84  1  0.442800  0.795900  0.681600  1.0
  C  C85  1  0.654400  0.566100  0.769400  1.0
  C  C86  1  0.769400  0.654400  0.566100  1.0
  C  C87  1  0.566100  0.769400  0.654400  1.0
  C  C88  1  0.662220  0.619760  0.716620  1.0
  C  C89  1  0.716620  0.662220  0.619760  1.0
  C  C90  1  0.619760  0.716620  0.662220  1.0
  C  C91  1  0.711400  0.613200  0.668300  1.0
  C  C92  1  0.668300  0.711400  0.613200  1.0
  C  C93  1  0.613200  0.668300  0.711400  1.0
  C  C94  1  0.691100  0.051800  0.260000  1.0
  C  C95  1  0.260000  0.691100  0.051800  1.0
  C  C96  1  0.051800  0.260000  0.691100  1.0
  C  C97  1  0.659900  0.020700  0.174400  1.0
  C  C98  1  0.174400  0.659900  0.020700  1.0
  C  C99  1  0.020700  0.174400  0.659900  1.0
  C  C100  1  0.589900  0.035200  0.138100  1.0
  C  C101  1  0.138100  0.589900  0.035200  1.0
  C  C102  1  0.035200  0.138100  0.589900  1.0
  C  C103  1  0.545900  0.073000  0.181200  1.0
  C  C104  1  0.181200  0.545900  0.073000  1.0
  C  C105  1  0.073000  0.181200  0.545900  1.0
  C  C106  1  0.580100  0.104400  0.263200  1.0
  C  C107  1  0.263200  0.580100  0.104400  1.0
  C  C108  1  0.104400  0.263200  0.580100  1.0
  C  C109  1  0.471900  0.087700  0.140000  1.0
  C  C110  1  0.140000  0.471900  0.087700  1.0
  C  C111  1  0.087700  0.140000  0.471900  1.0
  C  C112  1  0.492900  0.175500  0.119100  1.0
  C  C113  1  0.119100  0.492900  0.175500  1.0
  C  C114  1  0.175500  0.119100  0.492900  1.0
  C  C115  1  0.420100  0.182800  0.065200  1.0
  C  C116  1  0.065200  0.420100  0.182800  1.0
  C  C117  1  0.182800  0.065200  0.420100  1.0
  C  C118  1  0.295000  0.204800  0.090600  1.0
  C  C119  1  0.090600  0.295000  0.204800  1.0
  C  C120  1  0.204800  0.090600  0.295000  1.0
  C  C121  1  0.240820  0.197340  0.143540  1.0
  C  C122  1  0.143540  0.240820  0.197340  1.0
  C  C123  1  0.197340  0.143540  0.240820  1.0
  C  C124  1  0.247900  0.149300  0.192000  1.0
  C  C125  1  0.192000  0.247900  0.149300  1.0
  C  C126  1  0.149300  0.192000  0.247900  1.0
  H  H127  1  0.412000  0.224200  0.472600  1.0
  H  H128  1  0.472600  0.412000  0.224200  1.0
  H  H129  1  0.224200  0.472600  0.412000  1.0
  H  H130  1  0.637400  0.450100  0.389100  1.0
  H  H131  1  0.389100  0.637400  0.450100  1.0
  H  H132  1  0.450100  0.389100  0.637400  1.0
  H  H133  1  0.691000  0.984200  0.427900  1.0
  H  H134  1  0.427900  0.691000  0.984200  1.0
  H  H135  1  0.984200  0.427900  0.691000  1.0
  H  H136  1  0.630300  0.890600  0.488000  1.0
  H  H137  1  0.488000  0.630300  0.890600  1.0
  H  H138  1  0.890600  0.488000  0.630300  1.0
  H  H139  1  0.517400  0.907800  0.535400  1.0
  H  H140  1  0.535400  0.517400  0.907800  1.0
  H  H141  1  0.907800  0.535400  0.517400  1.0
  H  H142  1  0.480700  0.028000  0.535600  1.0
  H  H143  1  0.535600  0.480700  0.028000  1.0
  H  H144  1  0.028000  0.535600  0.480700  1.0
  H  H145  1  0.551700  0.184500  0.543000  1.0
  H  H146  1  0.543000  0.551700  0.184500  1.0
  H  H147  1  0.184500  0.543000  0.551700  1.0
  H  H148  1  0.579200  0.187600  0.463500  1.0
  H  H149  1  0.463500  0.579200  0.187600  1.0
  H  H150  1  0.187600  0.463500  0.579200  1.0
  H  H151  1  0.449000  0.097400  0.378200  1.0
  H  H152  1  0.378200  0.449000  0.097400  1.0
  H  H153  1  0.097400  0.378200  0.449000  1.0
  H  H154  1  0.421500  0.095100  0.457800  1.0
  H  H155  1  0.457800  0.421500  0.095100  1.0
  H  H156  1  0.095100  0.457800  0.421500  1.0
  H  H157  1  0.328200  0.278800  0.441800  1.0
  H  H158  1  0.441800  0.328200  0.278800  1.0
  H  H159  1  0.278800  0.441800  0.328200  1.0
  H  H160  1  0.876900  0.167900  0.432400  1.0
  H  H161  1  0.432400  0.876900  0.167900  1.0
  H  H162  1  0.167900  0.432400  0.876900  1.0
  H  H163  1  0.970600  0.233200  0.374500  1.0
  H  H164  1  0.374500  0.970600  0.233200  1.0
  H  H165  1  0.233200  0.374500  0.970600  1.0
  H  H166  1  0.949700  0.339100  0.319200  1.0
  H  H167  1  0.319200  0.949700  0.339100  1.0
  H  H168  1  0.339100  0.319200  0.949700  1.0
  H  H169  1  0.831500  0.376500  0.324100  1.0
  H  H170  1  0.324100  0.831500  0.376500  1.0
  H  H171  1  0.376500  0.324100  0.831500  1.0
  H  H172  1  0.672300  0.279800  0.397000  1.0
  H  H173  1  0.397000  0.672300  0.279800  1.0
  H  H174  1  0.279800  0.397000  0.672300  1.0
  H  H175  1  0.672700  0.305900  0.316200  1.0
  H  H176  1  0.316200  0.672700  0.305900  1.0
  H  H177  1  0.305900  0.316200  0.672700  1.0
  H  H178  1  0.763700  0.413300  0.481100  1.0
  H  H179  1  0.481100  0.763700  0.413300  1.0
  H  H180  1  0.413300  0.481100  0.763700  1.0
  H  H181  1  0.763600  0.439300  0.400300  1.0
  H  H182  1  0.400300  0.763600  0.439300  1.0
  H  H183  1  0.439300  0.400300  0.763600  1.0
  H  H184  1  0.580700  0.534600  0.421600  1.0
  H  H185  1  0.421600  0.580700  0.534600  1.0
  H  H186  1  0.534600  0.421600  0.580700  1.0
  H  H187  1  0.818800  0.120200  0.573300  1.0
  H  H188  1  0.573300  0.818800  0.120200  1.0
  H  H189  1  0.120200  0.573300  0.818800  1.0
  H  H190  1  0.866800  0.172300  0.715900  1.0
  H  H191  1  0.715900  0.866800  0.172300  1.0
  H  H192  1  0.172300  0.715900  0.866800  1.0
  H  H193  1  0.845500  0.290800  0.780100  1.0
  H  H194  1  0.780100  0.845500  0.290800  1.0
  H  H195  1  0.290800  0.780100  0.845500  1.0
  H  H196  1  0.729900  0.309200  0.566500  1.0
  H  H197  1  0.566500  0.729900  0.309200  1.0
  H  H198  1  0.309200  0.566500  0.729900  1.0
  H  H199  1  0.772800  0.425000  0.686800  1.0
  H  H200  1  0.686800  0.772800  0.425000  1.0
  H  H201  1  0.425000  0.686800  0.772800  1.0
  H  H202  1  0.816500  0.417600  0.774700  1.0
  H  H203  1  0.774700  0.816500  0.417600  1.0
  H  H204  1  0.417600  0.774700  0.816500  1.0
  H  H205  1  0.636500  0.347100  0.683800  1.0
  H  H206  1  0.683800  0.636500  0.347100  1.0
  H  H207  1  0.347100  0.683800  0.636500  1.0
  H  H208  1  0.675900  0.319600  0.760700  1.0
  H  H209  1  0.760700  0.675900  0.319600  1.0
  H  H210  1  0.319600  0.760700  0.675900  1.0
  H  H211  1  0.630400  0.432500  0.811200  1.0
  H  H212  1  0.811200  0.630400  0.432500  1.0
  H  H213  1  0.432500  0.811200  0.630400  1.0
  H  H214  1  0.730000  0.463500  0.846800  1.0
  H  H215  1  0.846800  0.730000  0.463500  1.0
  H  H216  1  0.463500  0.846800  0.730000  1.0
  H  H217  1  0.741600  0.575500  0.668600  1.0
  H  H218  1  0.668600  0.741600  0.575500  1.0
  H  H219  1  0.575500  0.668600  0.741600  1.0
  H  H220  1  0.739900  0.042500  0.287400  1.0
  H  H221  1  0.287400  0.739900  0.042500  1.0
  H  H222  1  0.042500  0.287400  0.739900  1.0
  H  H223  1  0.686000  0.990800  0.142800  1.0
  H  H224  1  0.142800  0.686000  0.990800  1.0
  H  H225  1  0.990800  0.142800  0.686000  1.0
  H  H226  1  0.569900  0.018200  0.079400  1.0
  H  H227  1  0.079400  0.569900  0.018200  1.0
  H  H228  1  0.018200  0.079400  0.569900  1.0
  H  H229  1  0.553000  0.134200  0.293500  1.0
  H  H230  1  0.293500  0.553000  0.134200  1.0
  H  H231  1  0.134200  0.293500  0.553000  1.0
  H  H232  1  0.436500  0.089200  0.175700  1.0
  H  H233  1  0.175700  0.436500  0.089200  1.0
  H  H234  1  0.089200  0.175700  0.436500  1.0
  H  H235  1  0.440700  0.041400  0.087900  1.0
  H  H236  1  0.087900  0.440700  0.041400  1.0
  H  H237  1  0.041400  0.087900  0.440700  1.0
  H  H238  1  0.514800  0.222500  0.171400  1.0
  H  H239  1  0.171400  0.514800  0.222500  1.0
  H  H240  1  0.222500  0.171400  0.514800  1.0
  H  H241  1  0.536100  0.178500  0.092100  1.0
  H  H242  1  0.092100  0.536100  0.178500  1.0
  H  H243  1  0.178500  0.092100  0.536100  1.0
  H  H244  1  0.400200  0.139000  0.010700  1.0
  H  H245  1  0.010700  0.400200  0.139000  1.0
  H  H246  1  0.139000  0.010700  0.400200  1.0
  H  H247  1  0.433100  0.237300  0.056800  1.0
  H  H248  1  0.056800  0.433100  0.237300  1.0
  H  H249  1  0.237300  0.056800  0.433100  1.0
  H  H250  1  0.286700  0.120000  0.192700  1.0
  H  H251  1  0.192700  0.286700  0.120000  1.0
  H  H252  1  0.120000  0.192700  0.286700  1.0
  N  N253  1  0.629670  0.065430  0.456300  1.0
  N  N254  1  0.456300  0.629670  0.065430  1.0
  N  N255  1  0.065430  0.456300  0.629670  1.0
  N  N256  1  0.430540  0.201580  0.433780  1.0
  N  N257  1  0.433780  0.430540  0.201580  1.0
  N  N258  1  0.201580  0.433780  0.430540  1.0
  N  N259  1  0.795700  0.231020  0.404280  1.0
  N  N260  1  0.404280  0.795700  0.231020  1.0
  N  N261  1  0.231020  0.404280  0.795700  1.0
  N  N262  1  0.659570  0.430460  0.427070  1.0
  N  N263  1  0.427070  0.659570  0.430460  1.0
  N  N264  1  0.430460  0.427070  0.659570  1.0
  N  N265  1  0.762400  0.204140  0.549660  1.0
  N  N266  1  0.549660  0.762400  0.204140  1.0
  N  N267  1  0.204140  0.549660  0.762400  1.0
  N  N268  1  0.654090  0.095860  0.307250  1.0
  N  N269  1  0.307250  0.654090  0.095860  1.0
  N  N270  1  0.095860  0.307250  0.654090  1.0
  O  O271  1  0.467360  0.207930  0.319810  1.0
  O  O272  1  0.319810  0.467360  0.207930  1.0
  O  O273  1  0.207930  0.319810  0.467360  1.0
  O  O274  1  0.651130  0.393150  0.538220  1.0
  O  O275  1  0.538220  0.651130  0.393150  1.0
  O  O276  1  0.393150  0.538220  0.651130  1.0
  O  O277  1  0.684910  0.503510  0.748680  1.0
  O  O278  1  0.748680  0.684910  0.503510  1.0
  O  O279  1  0.503510  0.748680  0.684910  1.0
  O  O280  1  0.617610  0.571030  0.819560  1.0
  O  O281  1  0.819560  0.617610  0.571030  1.0
  O  O282  1  0.571030  0.819560  0.617610  1.0
  O  O283  1  0.353280  0.173030  0.109090  1.0
  O  O284  1  0.109090  0.353280  0.173030  1.0
  O  O285  1  0.173030  0.109090  0.353280  1.0
  O  O286  1  0.289850  0.243350  0.040100  1.0
  O  O287  1  0.040100  0.289850  0.243350  1.0
  O  O288  1  0.243350  0.040100  0.289850  1.0
  Pd  Pd289  1  0.708871  0.151118  0.430071  1.0
  Pd  Pd290  1  0.430071  0.708871  0.151118  1.0
  Pd  Pd291  1  0.151118  0.430071  0.708871  1.0
