# generated using pymatgen
data_H42PdC42(NO)6
_symmetry_space_group_name_H-M   'P 1'
_cell_length_a   17.52704812
_cell_length_b   17.52704812
_cell_length_c   17.52704812
_cell_angle_alpha   104.53199845
_cell_angle_beta   104.53199845
_cell_angle_gamma   104.53199845
_symmetry_Int_Tables_number   1
_chemical_formula_structural   H42PdC42(NO)6
_chemical_formula_sum   'H126 Pd3 C126 N18 O18'
_cell_volume   4753.78959691
_cell_formula_units_Z   3
loop_
 _symmetry_equiv_pos_site_id
 _symmetry_equiv_pos_as_xyz
  1  'x, y, z'
loop_
 _atom_site_type_symbol
 _atom_site_label
 _atom_site_symmetry_multiplicity
 _atom_site_fract_x
 _atom_site_fract_y
 _atom_site_fract_z
 _atom_site_occupancy
  C  C1  1  0.163400  0.822600  0.360400  1.0
  C  C2  1  0.360400  0.163400  0.822600  1.0
  C  C3  1  0.822600  0.360400  0.163400  1.0
  C  C4  1  0.201300  0.878000  0.328600  1.0
  C  C5  1  0.328600  0.201300  0.878000  1.0
  C  C6  1  0.878000  0.328600  0.201300  1.0
  C  C7  1  0.266300  0.864800  0.294800  1.0
  C  C8  1  0.294800  0.266300  0.864800  1.0
  C  C9  1  0.864800  0.294800  0.266300  1.0
  C  C10  1  0.285100  0.791500  0.293500  1.0
  C  C11  1  0.293500  0.285100  0.791500  1.0
  C  C12  1  0.791500  0.293500  0.285100  1.0
  C  C13  1  0.239100  0.732600  0.322800  1.0
  C  C14  1  0.322800  0.239100  0.732600  1.0
  C  C15  1  0.732600  0.322800  0.239100  1.0
  C  C16  1  0.266900  0.658400  0.325100  1.0
  C  C17  1  0.325100  0.266900  0.658400  1.0
  C  C18  1  0.658400  0.325100  0.266900  1.0
  C  C19  1  0.354500  0.681000  0.373300  1.0
  C  C20  1  0.373300  0.354500  0.681000  1.0
  C  C21  1  0.681000  0.373300  0.354500  1.0
  C  C22  1  0.382800  0.583300  0.445400  1.0
  C  C23  1  0.445400  0.382800  0.583300  1.0
  C  C24  1  0.583300  0.445400  0.382800  1.0
  C  C25  1  0.422500  0.519000  0.452900  1.0
  C  C26  1  0.452900  0.422500  0.519000  1.0
  C  C27  1  0.519000  0.452900  0.422500  1.0
  C  C28  1  0.478600  0.505370  0.410130  1.0
  C  C29  1  0.410130  0.478600  0.505370  1.0
  C  C30  1  0.505370  0.410130  0.478600  1.0
  C  C31  1  0.947800  0.604300  0.404900  1.0
  C  C32  1  0.404900  0.947800  0.604300  1.0
  C  C33  1  0.604300  0.404900  0.947800  1.0
  C  C34  1  0.890000  0.568000  0.437800  1.0
  C  C35  1  0.437800  0.890000  0.568000  1.0
  C  C36  1  0.568000  0.437800  0.890000  1.0
  C  C37  1  0.903900  0.503800  0.474600  1.0
  C  C38  1  0.474600  0.903900  0.503800  1.0
  C  C39  1  0.503800  0.474600  0.903900  1.0
  C  C40  1  0.975400  0.479900  0.473200  1.0
  C  C41  1  0.473200  0.975400  0.479900  1.0
  C  C42  1  0.479900  0.473200  0.975400  1.0
  C  C43  1  0.032033  0.525233  0.442733  1.0
  C  C44  1  0.442733  0.032033  0.525233  1.0
  C  C45  1  0.525233  0.442733  0.032033  1.0
  C  C46  1  0.106300  0.496800  0.438800  1.0
  C  C47  1  0.438800  0.106300  0.496800  1.0
  C  C48  1  0.496800  0.438800  0.106300  1.0
  C  C49  1  0.086800  0.413000  0.393600  1.0
  C  C50  1  0.393600  0.086800  0.413000  1.0
  C  C51  1  0.413000  0.393600  0.086800  1.0
  C  C52  1  0.182700  0.385800  0.323700  1.0
  C  C53  1  0.323700  0.182700  0.385800  1.0
  C  C54  1  0.385800  0.323700  0.182700  1.0
  C  C55  1  0.248950  0.344350  0.315700  1.0
  C  C56  1  0.315700  0.248950  0.344350  1.0
  C  C57  1  0.344350  0.315700  0.248950  1.0
  C  C58  1  0.289100  0.357400  0.262800  1.0
  C  C59  1  0.262800  0.289100  0.357400  1.0
  C  C60  1  0.357400  0.262800  0.289100  1.0
  C  C61  1  0.122500  0.761700  0.554300  1.0
  C  C62  1  0.554300  0.122500  0.761700  1.0
  C  C63  1  0.761700  0.554300  0.122500  1.0
  C  C64  1  0.155500  0.792700  0.641500  1.0
  C  C65  1  0.641500  0.155500  0.792700  1.0
  C  C66  1  0.792700  0.641500  0.155500  1.0
  C  C67  1  0.223900  0.781900  0.679900  1.0
  C  C68  1  0.679900  0.223900  0.781900  1.0
  C  C69  1  0.781900  0.679900  0.223900  1.0
  C  C70  1  0.267900  0.740900  0.638200  1.0
  C  C71  1  0.638200  0.267900  0.740900  1.0
  C  C72  1  0.740900  0.638200  0.267900  1.0
  C  C73  1  0.233800  0.714800  0.554100  1.0
  C  C74  1  0.554100  0.233800  0.714800  1.0
  C  C75  1  0.714800  0.554100  0.233800  1.0
  C  C76  1  0.342300  0.725600  0.677200  1.0
  C  C77  1  0.677200  0.342300  0.725600  1.0
  C  C78  1  0.725600  0.677200  0.342300  1.0
  C  C79  1  0.321700  0.639200  0.695700  1.0
  C  C80  1  0.695700  0.321700  0.639200  1.0
  C  C81  1  0.639200  0.695700  0.321700  1.0
  C  C82  1  0.393700  0.627400  0.745600  1.0
  C  C83  1  0.745600  0.393700  0.627400  1.0
  C  C84  1  0.627400  0.745600  0.393700  1.0
  C  C85  1  0.519500  0.609300  0.724600  1.0
  C  C86  1  0.724600  0.519500  0.609300  1.0
  C  C87  1  0.609300  0.724600  0.519500  1.0
  C  C88  1  0.576500  0.620200  0.674100  1.0
  C  C89  1  0.674100  0.576500  0.620200  1.0
  C  C90  1  0.620200  0.674100  0.576500  1.0
  C  C91  1  0.569600  0.668100  0.625600  1.0
  C  C92  1  0.625600  0.569600  0.668100  1.0
  C  C93  1  0.668100  0.625600  0.569600  1.0
  C  C94  1  0.001300  0.641400  0.211100  1.0
  C  C95  1  0.211100  0.001300  0.641400  1.0
  C  C96  1  0.641400  0.211100  0.001300  1.0
  C  C97  1  0.974700  0.612500  0.127700  1.0
  C  C98  1  0.127700  0.974700  0.612500  1.0
  C  C99  1  0.612500  0.127700  0.974700  1.0
  C  C100  1  0.984300  0.540600  0.085900  1.0
  C  C101  1  0.085900  0.984300  0.540600  1.0
  C  C102  1  0.540600  0.085900  0.984300  1.0
  C  C103  1  0.025600  0.498800  0.128100  1.0
  C  C104  1  0.128100  0.025600  0.498800  1.0
  C  C105  1  0.498800  0.128100  0.025600  1.0
  C  C106  1  0.053200  0.532700  0.212700  1.0
  C  C107  1  0.212700  0.053200  0.532700  1.0
  C  C108  1  0.532700  0.212700  0.053200  1.0
  C  C109  1  0.039300  0.421300  0.086300  1.0
  C  C110  1  0.086300  0.039300  0.421300  1.0
  C  C111  1  0.421300  0.086300  0.039300  1.0
  C  C112  1  0.125100  0.443200  0.070100  1.0
  C  C113  1  0.070100  0.125100  0.443200  1.0
  C  C114  1  0.443200  0.070100  0.125100  1.0
  C  C115  1  0.136200  0.370400  0.016900  1.0
  C  C116  1  0.016900  0.136200  0.370400  1.0
  C  C117  1  0.370400  0.016900  0.136200  1.0
  C  C118  1  0.158500  0.246700  0.041500  1.0
  C  C119  1  0.041500  0.158500  0.246700  1.0
  C  C120  1  0.246700  0.041500  0.158500  1.0
  C  C121  1  0.146200  0.189700  0.091600  1.0
  C  C122  1  0.091600  0.146200  0.189700  1.0
  C  C123  1  0.189700  0.091600  0.146200  1.0
  C  C124  1  0.096300  0.195400  0.140900  1.0
  C  C125  1  0.140900  0.096300  0.195400  1.0
  C  C126  1  0.195400  0.140900  0.096300  1.0
  H  H127  1  0.403200  0.588200  0.342700  1.0
  H  H128  1  0.342700  0.403200  0.588200  1.0
  H  H129  1  0.588200  0.342700  0.403200  1.0
  H  H130  1  0.175800  0.361400  0.422800  1.0
  H  H131  1  0.422800  0.175800  0.361400  1.0
  H  H132  1  0.361400  0.422800  0.175800  1.0
  H  H133  1  0.123400  0.833200  0.385600  1.0
  H  H134  1  0.385600  0.123400  0.833200  1.0
  H  H135  1  0.833200  0.385600  0.123400  1.0
  H  H136  1  0.185200  0.925700  0.328200  1.0
  H  H137  1  0.328200  0.185200  0.925700  1.0
  H  H138  1  0.925700  0.328200  0.185200  1.0
  H  H139  1  0.295200  0.904400  0.274600  1.0
  H  H140  1  0.274600  0.295200  0.904400  1.0
  H  H141  1  0.904400  0.274600  0.295200  1.0
  H  H142  1  0.328300  0.781100  0.273300  1.0
  H  H143  1  0.273300  0.328300  0.781100  1.0
  H  H144  1  0.781100  0.273300  0.328300  1.0
  H  H145  1  0.232600  0.624100  0.349300  1.0
  H  H146  1  0.349300  0.232600  0.624100  1.0
  H  H147  1  0.624100  0.349300  0.232600  1.0
  H  H148  1  0.256700  0.623700  0.267100  1.0
  H  H149  1  0.267100  0.256700  0.623700  1.0
  H  H150  1  0.623700  0.267100  0.256700  1.0
  H  H151  1  0.364800  0.718400  0.430300  1.0
  H  H152  1  0.430300  0.364800  0.718400  1.0
  H  H153  1  0.718400  0.430300  0.364800  1.0
  H  H154  1  0.388400  0.713500  0.347400  1.0
  H  H155  1  0.347400  0.388400  0.713500  1.0
  H  H156  1  0.713500  0.347400  0.388400  1.0
  H  H157  1  0.487400  0.534000  0.372100  1.0
  H  H158  1  0.372100  0.487400  0.534000  1.0
  H  H159  1  0.534000  0.372100  0.487400  1.0
  H  H160  1  0.938500  0.644400  0.379200  1.0
  H  H161  1  0.379200  0.938500  0.644400  1.0
  H  H162  1  0.644400  0.379200  0.938500  1.0
  H  H163  1  0.841900  0.584100  0.436500  1.0
  H  H164  1  0.436500  0.841900  0.584100  1.0
  H  H165  1  0.584100  0.436500  0.841900  1.0
  H  H166  1  0.865900  0.478900  0.498800  1.0
  H  H167  1  0.498800  0.865900  0.478900  1.0
  H  H168  1  0.478900  0.498800  0.865900  1.0
  H  H169  1  0.984500  0.435600  0.491900  1.0
  H  H170  1  0.491900  0.984500  0.435600  1.0
  H  H171  1  0.435600  0.491900  0.984500  1.0
  H  H172  1  0.139500  0.531300  0.413700  1.0
  H  H173  1  0.413700  0.139500  0.531300  1.0
  H  H174  1  0.531300  0.413700  0.139500  1.0
  H  H175  1  0.142100  0.508200  0.496600  1.0
  H  H176  1  0.496600  0.142100  0.508200  1.0
  H  H177  1  0.508200  0.496600  0.142100  1.0
  H  H178  1  0.049300  0.402000  0.336500  1.0
  H  H179  1  0.336500  0.049300  0.402000  1.0
  H  H180  1  0.402000  0.336500  0.049300  1.0
  H  H181  1  0.054300  0.379300  0.419600  1.0
  H  H182  1  0.419600  0.054300  0.379300  1.0
  H  H183  1  0.379300  0.419600  0.054300  1.0
  H  H184  1  0.279800  0.395500  0.234300  1.0
  H  H185  1  0.234300  0.279800  0.395500  1.0
  H  H186  1  0.395500  0.234300  0.279800  1.0
  H  H187  1  0.072300  0.769600  0.527000  1.0
  H  H188  1  0.527000  0.072300  0.769600  1.0
  H  H189  1  0.769600  0.527000  0.072300  1.0
  H  H190  1  0.128200  0.821700  0.672800  1.0
  H  H191  1  0.672800  0.128200  0.821700  1.0
  H  H192  1  0.821700  0.672800  0.128200  1.0
  H  H193  1  0.244900  0.802900  0.739300  1.0
  H  H194  1  0.739300  0.244900  0.802900  1.0
  H  H195  1  0.802900  0.739300  0.244900  1.0
  H  H196  1  0.263700  0.689400  0.523200  1.0
  H  H197  1  0.523200  0.263700  0.689400  1.0
  H  H198  1  0.689400  0.523200  0.263700  1.0
  H  H199  1  0.375400  0.772100  0.730500  1.0
  H  H200  1  0.730500  0.375400  0.772100  1.0
  H  H201  1  0.772100  0.730500  0.375400  1.0
  H  H202  1  0.376800  0.724400  0.640300  1.0
  H  H203  1  0.640300  0.376800  0.724400  1.0
  H  H204  1  0.724400  0.640300  0.376800  1.0
  H  H205  1  0.280000  0.636900  0.724700  1.0
  H  H206  1  0.724700  0.280000  0.636900  1.0
  H  H207  1  0.636900  0.724700  0.280000  1.0
  H  H208  1  0.296300  0.592500  0.641800  1.0
  H  H209  1  0.641800  0.296300  0.592500  1.0
  H  H210  1  0.592500  0.641800  0.296300  1.0
  H  H211  1  0.378300  0.570600  0.749400  1.0
  H  H212  1  0.749400  0.378300  0.570600  1.0
  H  H213  1  0.570600  0.749400  0.378300  1.0
  H  H214  1  0.415100  0.668700  0.802900  1.0
  H  H215  1  0.802900  0.415100  0.668700  1.0
  H  H216  1  0.668700  0.802900  0.415100  1.0
  H  H217  1  0.530800  0.697400  0.624900  1.0
  H  H218  1  0.624900  0.530800  0.697400  1.0
  H  H219  1  0.697400  0.624900  0.530800  1.0
  H  H220  1  0.989200  0.688600  0.238700  1.0
  H  H221  1  0.238700  0.989200  0.688600  1.0
  H  H222  1  0.688600  0.238700  0.989200  1.0
  H  H223  1  0.948700  0.642100  0.097100  1.0
  H  H224  1  0.097100  0.948700  0.642100  1.0
  H  H225  1  0.642100  0.097100  0.948700  1.0
  H  H226  1  0.962100  0.519100  0.026700  1.0
  H  H227  1  0.026700  0.962100  0.519100  1.0
  H  H228  1  0.519100  0.026700  0.962100  1.0
  H  H229  1  0.080100  0.503600  0.243400  1.0
  H  H230  1  0.243400  0.080100  0.503600  1.0
  H  H231  1  0.503600  0.243400  0.080100  1.0
  H  H232  1  0.993300  0.389700  0.032500  1.0
  H  H233  1  0.032500  0.993300  0.389700  1.0
  H  H234  1  0.389700  0.032500  0.993300  1.0
  H  H235  1  0.039300  0.385600  0.122000  1.0
  H  H236  1  0.122000  0.039300  0.385600  1.0
  H  H237  1  0.385600  0.122000  0.039300  1.0
  H  H238  1  0.128700  0.486800  0.043300  1.0
  H  H239  1  0.043300  0.128700  0.486800  1.0
  H  H240  1  0.486800  0.043300  0.128700  1.0
  H  H241  1  0.171200  0.466600  0.124500  1.0
  H  H242  1  0.124500  0.171200  0.466600  1.0
  H  H243  1  0.466600  0.124500  0.171200  1.0
  H  H244  1  0.191800  0.385800  0.010100  1.0
  H  H245  1  0.010100  0.191800  0.385800  1.0
  H  H246  1  0.385800  0.010100  0.191800  1.0
  H  H247  1  0.092500  0.347700  0.960900  1.0
  H  H248  1  0.960900  0.092500  0.347700  1.0
  H  H249  1  0.347700  0.960900  0.092500  1.0
  H  H250  1  0.065700  0.233000  0.140800  1.0
  H  H251  1  0.140800  0.065700  0.233000  1.0
  H  H252  1  0.233000  0.140800  0.065700  1.0
  N  N253  1  0.183600  0.748900  0.356300  1.0
  N  N254  1  0.356300  0.183600  0.748900  1.0
  N  N255  1  0.748900  0.356300  0.183600  1.0
  N  N256  1  0.384080  0.611760  0.380860  1.0
  N  N257  1  0.380860  0.384080  0.611760  1.0
  N  N258  1  0.611760  0.380860  0.384080  1.0
  N  N259  1  0.017160  0.583350  0.409290  1.0
  N  N260  1  0.409290  0.017160  0.583350  1.0
  N  N261  1  0.583350  0.409290  0.017160  1.0
  N  N262  1  0.153630  0.382540  0.385730  1.0
  N  N263  1  0.385730  0.153630  0.382540  1.0
  N  N264  1  0.382540  0.385730  0.153630  1.0
  N  N265  1  0.160130  0.720730  0.507540  1.0
  N  N266  1  0.507540  0.160130  0.720730  1.0
  N  N267  1  0.720730  0.507540  0.160130  1.0
  N  N268  1  0.045670  0.604870  0.258160  1.0
  N  N269  1  0.258160  0.045670  0.604870  1.0
  N  N270  1  0.604870  0.258160  0.045670  1.0
  O  O271  1  0.349040  0.606710  0.494150  1.0
  O  O272  1  0.494150  0.349040  0.606710  1.0
  O  O273  1  0.606710  0.494150  0.349040  1.0
  O  O274  1  0.158860  0.415680  0.271160  1.0
  O  O275  1  0.271160  0.158860  0.415680  1.0
  O  O276  1  0.415680  0.271160  0.158860  1.0
  O  O277  1  0.459460  0.639200  0.704940  1.0
  O  O278  1  0.704940  0.459460  0.639200  1.0
  O  O279  1  0.639200  0.704940  0.459460  1.0
  O  O280  1  0.525170  0.571820  0.773810  1.0
  O  O281  1  0.773810  0.525170  0.571820  1.0
  O  O282  1  0.571820  0.773810  0.525170  1.0
  O  O283  1  0.128310  0.307280  0.061810  1.0
  O  O284  1  0.061810  0.128310  0.307280  1.0
  O  O285  1  0.307280  0.061810  0.128310  1.0
  O  O286  1  0.193830  0.240220  0.992850  1.0
  O  O287  1  0.992850  0.193830  0.240220  1.0
  O  O288  1  0.240220  0.992850  0.193830  1.0
  Pd  Pd289  1  0.103808  0.662988  0.383464  1.0
  Pd  Pd290  1  0.383464  0.103808  0.662988  1.0
  Pd  Pd291  1  0.662988  0.383464  0.103808  1.0
