# generated using pymatgen
data_H44PdC42N8O13
_symmetry_space_group_name_H-M   'P 1'
_cell_length_a   16.96280000
_cell_length_b   21.82220000
_cell_length_c   21.82500000
_cell_angle_alpha   106.74600000
_cell_angle_beta   97.83700000
_cell_angle_gamma   97.83300000
_symmetry_Int_Tables_number   1
_chemical_formula_structural   H44PdC42N8O13
_chemical_formula_sum   'H264 Pd6 C252 N48 O78'
_cell_volume   7531.59016248
_cell_formula_units_Z   6
loop_
 _symmetry_equiv_pos_site_id
 _symmetry_equiv_pos_as_xyz
  1  'x, y, z'
loop_
 _atom_site_type_symbol
 _atom_site_label
 _atom_site_symmetry_multiplicity
 _atom_site_fract_x
 _atom_site_fract_y
 _atom_site_fract_z
 _atom_site_occupancy
  H  H1  1  0.886800  0.282300  0.696400  1
  H  H2  1  0.113200  0.717700  0.303600  1
  H  H3  1  0.847800  0.247600  0.730400  1
  H  H4  1  0.152200  0.752400  0.269600  1
  H  H5  1  0.382700  0.179000  0.768700  1
  H  H6  1  0.617300  0.821000  0.231300  1
  H  H7  1  0.332600  0.209000  0.807100  1
  H  H8  1  0.667400  0.791000  0.192900  1
  H  H9  1  0.704600  0.531600  0.968300  1
  H  H10  1  0.295400  0.468400  0.031700  1
  H  H11  1  0.757600  0.510600  0.928100  1
  H  H12  1  0.242400  0.489400  0.071900  1
  H  H13  1  0.825300  0.195100  0.103300  1
  H  H14  1  0.174700  0.804900  0.896700  1
  H  H15  1  0.745300  0.041700  0.299800  1
  H  H16  1  0.254700  0.958300  0.700200  1
  H  H17  1  0.558200  0.264100  0.274700  1
  H  H18  1  0.441800  0.735900  0.725300  1
  H  H19  1  0.676400  0.396300  0.305400  1
  H  H20  1  0.323600  0.603700  0.694600  1
  H  H21  1  0.941500  0.223300  0.234800  1
  H  H22  1  0.058500  0.776700  0.765200  1
  H  H23  1  0.757000  0.202600  0.459400  1
  H  H24  1  0.243000  0.797400  0.540600  1
  H  H25  1  0.846800  0.463900  0.967700  1
  H  H26  1  0.153200  0.536100  0.032300  1
  H  H27  1  0.963700  0.445200  0.933000  1
  H  H28  1  0.036300  0.554800  0.067000  1
  H  H29  1  0.032200  0.375400  0.967800  1
  H  H30  1  0.967800  0.624600  0.032200  1
  H  H31  1  0.986500  0.325000  0.043100  1
  H  H32  1  0.013500  0.675000  0.956900  1
  H  H33  1  0.803300  0.348800  0.105500  1
  H  H34  1  0.196700  0.651200  0.894500  1
  H  H35  1  0.888000  0.329200  0.126500  1
  H  H36  1  0.112000  0.670800  0.873500  1
  H  H37  1  0.762000  0.252400  0.019300  1
  H  H38  1  0.238000  0.747600  0.980700  1
  H  H39  1  0.851300  0.235600  0.025600  1
  H  H40  1  0.148700  0.764400  0.974400  1
  H  H41  1  0.790900  0.126400  0.146900  1
  H  H42  1  0.209100  0.873600  0.853100  1
  H  H43  1  0.063900  0.855000  0.242100  1
  H  H44  1  0.936100  0.145000  0.757900  1
  H  H45  1  0.995400  0.762600  0.253400  1
  H  H46  1  0.004600  0.237400  0.746600  1
  H  H47  1  0.884000  0.773000  0.305600  1
  H  H48  1  0.116000  0.227000  0.694400  1
  H  H49  1  0.822500  0.863200  0.312500  1
  H  H50  1  0.177500  0.136800  0.687500  1
  H  H51  1  0.887200  0.001500  0.347400  1
  H  H52  1  0.112800  0.998500  0.652600  1
  H  H53  1  0.916300  0.005400  0.281500  1
  H  H54  1  0.083700  0.994600  0.718500  1
  H  H55  1  0.792200  0.933700  0.220700  1
  H  H56  1  0.207800  0.066300  0.779300  1
  H  H57  1  0.762900  0.936900  0.288200  1
  H  H58  1  0.237100  0.063100  0.711800  1
  H  H59  1  0.667500  0.098200  0.285800  1
  H  H60  1  0.332500  0.901800  0.714200  1
  H  H61  1  0.261200  0.213600  0.474800  1
  H  H62  1  0.738800  0.786400  0.525200  1
  H  H63  1  0.162300  0.247500  0.411900  1
  H  H64  1  0.837700  0.752500  0.588100  1
  H  H65  1  0.195700  0.288300  0.333900  1
  H  H66  1  0.804300  0.711700  0.666100  1
  H  H67  1  0.331800  0.308900  0.323300  1
  H  H68  1  0.668200  0.691100  0.676700  1
  H  H69  1  0.490700  0.253600  0.405300  1
  H  H70  1  0.509300  0.746400  0.594700  1
  H  H71  1  0.483300  0.317600  0.384400  1
  H  H72  1  0.516700  0.682400  0.615600  1
  H  H73  1  0.428900  0.188000  0.298600  1
  H  H74  1  0.571100  0.812000  0.701400  1
  H  H75  1  0.422700  0.251900  0.277900  1
  H  H76  1  0.577300  0.748100  0.722100  1
  H  H77  1  0.625000  0.235800  0.202000  1
  H  H78  1  0.375000  0.764200  0.798000  1
  H  H79  1  0.649700  0.531900  0.039900  1
  H  H80  1  0.350300  0.468100  0.960100  1
  H  H81  1  0.530200  0.562400  0.063000  1
  H  H82  1  0.469800  0.437600  0.937000  1
  H  H83  1  0.460800  0.519400  0.132200  1
  H  H84  1  0.539200  0.480600  0.867800  1
  H  H85  1  0.518600  0.454100  0.175900  1
  H  H86  1  0.481400  0.545900  0.824100  1
  H  H87  1  0.609500  0.373000  0.167900  1
  H  H88  1  0.390500  0.627000  0.832100  1
  H  H89  1  0.695300  0.392800  0.149100  1
  H  H90  1  0.304700  0.607200  0.850900  1
  H  H91  1  0.735800  0.478800  0.245100  1
  H  H92  1  0.264200  0.521200  0.754900  1
  H  H93  1  0.646700  0.471600  0.261800  1
  H  H94  1  0.353300  0.528400  0.738200  1
  H  H95  1  0.873500  0.298900  0.264200  1
  H  H96  1  0.126500  0.701100  0.735800  1
  H  H97  1  0.235200  0.021000  0.280200  1
  H  H98  1  0.764800  0.979000  0.719800  1
  H  H99  1  0.338300  0.085300  0.255500  1
  H  H100  1  0.661700  0.914700  0.744500  1
  H  H101  1  0.303300  0.161200  0.209700  1
  H  H102  1  0.696700  0.838800  0.790300  1
  H  H103  1  0.174200  0.179400  0.194600  1
  H  H104  1  0.825800  0.820600  0.805400  1
  H  H105  1  0.017200  0.117900  0.181300  1
  H  H106  1  0.982800  0.882100  0.818700  1
  H  H107  1  0.006900  0.095100  0.243800  1
  H  H108  1  0.993100  0.904900  0.756200  1
  H  H109  1  0.071000  0.199800  0.311500  1
  H  H110  1  0.929000  0.800200  0.688500  1
  H  H111  1  0.077800  0.222100  0.248500  1
  H  H112  1  0.922200  0.777900  0.751500  1
  H  H113  1  0.835200  0.214700  0.400600  1
  H  H114  1  0.164800  0.785300  0.599400  1
  H  H115  1  0.427900  0.252900  0.637300  1
  H  H116  1  0.572100  0.747100  0.362700  1
  H  H117  1  0.501400  0.244000  0.732400  1
  H  H118  1  0.498600  0.756000  0.267600  1
  H  H119  1  0.620100  0.200700  0.731200  1
  H  H120  1  0.379900  0.799300  0.268800  1
  H  H121  1  0.672700  0.180200  0.633900  1
  H  H122  1  0.327300  0.819800  0.366100  1
  H  H123  1  0.580600  0.213900  0.493000  1
  H  H124  1  0.419400  0.786100  0.507000  1
  H  H125  1  0.612200  0.150200  0.501200  1
  H  H126  1  0.387800  0.849800  0.498800  1
  H  H127  1  0.706100  0.279200  0.564900  1
  H  H128  1  0.293900  0.720800  0.435100  1
  H  H129  1  0.737700  0.212800  0.562100  1
  H  H130  1  0.262300  0.787200  0.437900  1
  H  H131  1  0.707000  0.348600  0.374300  1
  H  H132  1  0.293000  0.651400  0.625700  1
  H  H133  1  0.670300  0.411200  0.919600  1
  H  H134  1  0.329700  0.588800  0.080400  1
  H  H135  1  0.568900  0.333500  0.844500  1
  H  H136  1  0.431100  0.666500  0.155500  1
  H  H137  1  0.496700  0.250800  0.869100  1
  H  H138  1  0.503300  0.749200  0.130900  1
  H  H139  1  0.638100  0.317900  0.046700  1
  H  H140  1  0.361900  0.682100  0.953300  1
  H  H141  1  0.552000  0.194100  0.990100  1
  H  H142  1  0.448000  0.805900  0.009900  1
  H  H143  1  0.467100  0.200100  0.952500  1
  H  H144  1  0.532900  0.799900  0.047500  1
  H  H145  1  0.536500  0.273800  0.087100  1
  H  H146  1  0.463500  0.726200  0.912900  1
  H  H147  1  0.454900  0.286000  0.049900  1
  H  H148  1  0.545100  0.714000  0.950100  1
  H  H149  1  0.427900  0.215900  0.117700  1
  H  H150  1  0.572100  0.784100  0.882300  1
  H  H151  1  0.384600  0.181200  0.042900  1
  H  H152  1  0.615400  0.818800  0.957100  1
  H  H153  1  0.580800  0.077900  0.029400  1
  H  H154  1  0.419200  0.922100  0.970600  1
  H  H155  1  0.146900  0.925000  0.159800  1
  H  H156  1  0.853100  0.075000  0.840200  1
  H  H157  1  0.118900  0.890300  0.049000  1
  H  H158  1  0.881100  0.109700  0.951000  1
  H  H159  1  0.998900  0.899300  0.985000  1
  H  H160  1  0.001100  0.100700  0.015000  1
  H  H161  1  0.925200  0.974500  0.156100  1
  H  H162  1  0.074800  0.025500  0.843900  1
  H  H163  1  0.839300  0.982300  0.051100  1
  H  H164  1  0.160700  0.017700  0.948900  1
  H  H165  1  0.896000  0.990700  0.999900  1
  H  H166  1  0.104000  0.009300  0.000100  1
  H  H167  1  0.816200  0.874500  0.001200  1
  H  H168  1  0.183800  0.125500  0.998800  1
  H  H169  1  0.864900  0.888300  0.947000  1
  H  H170  1  0.135100  0.111700  0.053000  1
  H  H171  1  0.731900  0.882900  0.909300  1
  H  H172  1  0.268100  0.117100  0.090700  1
  H  H173  1  0.774800  0.957800  0.929100  1
  H  H174  1  0.225200  0.042200  0.070900  1
  H  H175  1  0.650800  0.931700  0.084700  1
  H  H176  1  0.349200  0.068300  0.915300  1
  H  H177  1  0.357600  0.128200  0.542500  1
  H  H178  1  0.642400  0.871800  0.457500  1
  H  H179  1  0.332800  0.014500  0.510600  1
  H  H180  1  0.667200  0.985500  0.489400  1
  H  H181  1  0.373500  0.957700  0.416700  1
  H  H182  1  0.626500  0.042300  0.583300  1
  H  H183  1  0.465100  0.127400  0.397400  1
  H  H184  1  0.534900  0.872600  0.602600  1
  H  H185  1  0.409300  0.959700  0.307100  1
  H  H186  1  0.590700  0.040300  0.692900  1
  H  H187  1  0.452700  0.027400  0.301700  1
  H  H188  1  0.547300  0.972600  0.698300  1
  H  H189  1  0.529200  0.963400  0.381700  1
  H  H190  1  0.470800  0.036600  0.618300  1
  H  H191  1  0.571000  0.023000  0.361700  1
  H  H192  1  0.429000  0.977000  0.638300  1
  H  H193  1  0.609900  0.926500  0.302200  1
  H  H194  1  0.390100  0.073500  0.697800  1
  H  H195  1  0.516100  0.893400  0.272200  1
  H  H196  1  0.483900  0.106600  0.727800  1
  H  H197  1  0.496100  0.041100  0.177200  1
  H  H198  1  0.503900  0.958900  0.822800  1
  H  H199  1  0.820200  0.580000  0.087400  1
  H  H200  1  0.179800  0.420000  0.912600  1
  H  H201  1  0.930000  0.651500  0.157200  1
  H  H202  1  0.070000  0.348500  0.842800  1
  H  H203  1  0.000200  0.630300  0.246100  1
  H  H204  1  0.999800  0.369700  0.753900  1
  H  H205  1  0.860600  0.451000  0.181200  1
  H  H206  1  0.139400  0.549000  0.818800  1
  H  H207  1  0.953400  0.512600  0.310400  1
  H  H208  1  0.046600  0.487400  0.689600  1
  H  H209  1  0.037200  0.549600  0.300700  1
  H  H210  1  0.962800  0.450400  0.699300  1
  H  H211  1  0.962500  0.417000  0.226100  1
  H  H212  1  0.037500  0.583000  0.773900  1
  H  H213  1  0.044400  0.453900  0.213800  1
  H  H214  1  0.955600  0.546100  0.786200  1
  H  H215  1  0.072200  0.386100  0.281800  1
  H  H216  1  0.927800  0.613900  0.718200  1
  H  H217  1  0.113100  0.461100  0.318600  1
  H  H218  1  0.886900  0.538900  0.681400  1
  H  H219  1  0.006300  0.322700  0.465100  1
  H  H220  1  0.993700  0.677300  0.534900  1
  H  H221  1  0.145300  0.956600  0.376000  1
  H  H222  1  0.854700  0.043400  0.624000  1
  H  H223  1  0.170800  0.991800  0.487700  1
  H  H224  1  0.829200  0.008200  0.512300  1
  H  H225  1  0.126900  0.080700  0.545000  1
  H  H226  1  0.873100  0.919300  0.455000  1
  H  H227  1  0.041500  0.108400  0.375200  1
  H  H228  1  0.958500  0.891600  0.624800  1
  H  H229  1  0.088200  0.191100  0.540800  1
  H  H230  1  0.911800  0.808900  0.459200  1
  H  H231  1  0.046400  0.195800  0.472400  1
  H  H232  1  0.953600  0.804200  0.527600  1
  H  H233  1  0.968900  0.116300  0.536200  1
  H  H234  1  0.031100  0.883700  0.463800  1
  H  H235  1  0.928100  0.135100  0.475200  1
  H  H236  1  0.071900  0.864900  0.524800  1
  H  H237  1  0.890000  0.196800  0.570100  1
  H  H238  1  0.110000  0.803200  0.429900  1
  H  H239  1  0.983500  0.225100  0.603500  1
  H  H240  1  0.016500  0.774900  0.396500  1
  H  H241  1  0.852800  0.416800  0.569500  1
  H  H242  1  0.147200  0.583200  0.430500  1
  H  H243  1  0.356200  0.341000  0.574000  1
  H  H244  1  0.643800  0.659000  0.426000  1
  H  H245  1  0.385000  0.454800  0.617100  1
  H  H246  1  0.615000  0.545200  0.382900  1
  H  H247  1  0.496000  0.516300  0.589800  1
  H  H248  1  0.504000  0.483700  0.410200  1
  H  H249  1  0.572900  0.340500  0.526800  1
  H  H250  1  0.427100  0.659500  0.473200  1
  H  H251  1  0.655100  0.445800  0.507200  1
  H  H252  1  0.344900  0.554200  0.492800  1
  H  H253  1  0.598200  0.497600  0.500100  1
  H  H254  1  0.401800  0.502400  0.499900  1
  H  H255  1  0.678900  0.496300  0.618300  1
  H  H256  1  0.321100  0.503700  0.381700  1
  H  H257  1  0.632700  0.551600  0.604700  1
  H  H258  1  0.367300  0.448400  0.395300  1
  H  H259  1  0.732500  0.573500  0.541400  1
  H  H260  1  0.267500  0.426500  0.458600  1
  H  H261  1  0.768000  0.591000  0.617800  1
  H  H262  1  0.232000  0.409000  0.382200  1
  H  H263  1  0.916900  0.469700  0.420000  1
  H  H264  1  0.083100  0.530300  0.580000  1
  Pd  Pd265  1  0.750100  0.438920  0.061270  1
  Pd  Pd266  1  0.249900  0.561080  0.938730  1
  Pd  Pd267  1  0.063150  0.992430  0.266030  1
  Pd  Pd268  1  0.936850  0.007570  0.733970  1
  Pd  Pd269  1  0.436920  0.233810  0.507570  1
  Pd  Pd270  1  0.563080  0.766190  0.492430  1
  C  C271  1  0.876000  0.434800  0.981800  1
  C  C272  1  0.124000  0.565200  0.018200  1
  C  C273  1  0.943700  0.424400  0.961900  1
  C  C274  1  0.056300  0.575600  0.038100  1
  C  C275  1  0.983700  0.384100  0.983000  1
  C  C276  1  0.016300  0.615900  0.017000  1
  C  C277  1  0.956000  0.352900  0.027900  1
  C  C278  1  0.044000  0.647100  0.972100  1
  C  C279  1  0.886100  0.364000  0.048300  1
  C  C280  1  0.113900  0.636000  0.951700  1
  C  C281  1  0.847100  0.327100  0.088600  1
  C  C282  1  0.152900  0.672900  0.911400  1
  C  C283  1  0.811600  0.255300  0.050600  1
  C  C284  1  0.188400  0.744700  0.949400  1
  C  C285  1  0.728800  0.225500  0.122400  1
  C  C286  1  0.271200  0.774500  0.877600  1
  C  C287  1  0.713000  0.189100  0.170700  1
  C  C288  1  0.287000  0.810900  0.829300  1
  C  C289  1  0.752900  0.138400  0.174300  1
  C  C290  1  0.247100  0.861600  0.825700  1
  C  C291  1  0.014700  0.856700  0.258200  1
  C  C292  1  0.985300  0.143300  0.741800  1
  C  C293  1  0.976500  0.802600  0.265900  1
  C  C294  1  0.023500  0.197400  0.734100  1
  C  C295  1  0.908500  0.808000  0.292800  1
  C  C296  1  0.091500  0.192000  0.707200  1
  C  C297  1  0.874900  0.862900  0.301700  1
  C  C298  1  0.125100  0.137100  0.698300  1
  C  C299  1  0.917300  0.915300  0.294900  1
  C  C300  1  0.082700  0.084700  0.705100  1
  C  C301  1  0.883700  0.977300  0.300900  1
  C  C302  1  0.116300  0.022700  0.699100  1
  C  C303  1  0.796600  0.961300  0.266300  1
  C  C304  1  0.203400  0.038700  0.733700  1
  C  C305  1  0.775200  0.047400  0.220000  1
  C  C306  1  0.224800  0.952600  0.780000  1
  C  C307  1  0.736900  0.105800  0.218000  1
  C  C308  1  0.263100  0.894200  0.782000  1
  C  C309  1  0.679200  0.121200  0.256300  1
  C  C310  1  0.320800  0.878800  0.743700  1
  C  C311  1  0.275700  0.233000  0.443200  1
  C  C312  1  0.724300  0.767000  0.556800  1
  C  C313  1  0.216600  0.252500  0.405200  1
  C  C314  1  0.783400  0.747500  0.594800  1
  C  C315  1  0.236200  0.277200  0.361200  1
  C  C316  1  0.763800  0.722800  0.638800  1
  C  C317  1  0.317000  0.287700  0.353500  1
  C  C318  1  0.683000  0.712300  0.646500  1
  C  C319  1  0.374200  0.267900  0.388800  1
  C  C320  1  0.625800  0.732100  0.611200  1
  C  C321  1  0.458000  0.271600  0.376000  1
  C  C322  1  0.542000  0.728400  0.624000  1
  C  C323  1  0.456000  0.233400  0.306400  1
  C  C324  1  0.544000  0.766600  0.693600  1
  C  C325  1  0.572400  0.181400  0.290200  1
  C  C326  1  0.427600  0.818600  0.709800  1
  C  C327  1  0.638400  0.171500  0.250600  1
  C  C328  1  0.361600  0.828500  0.749400  1
  C  C329  1  0.654800  0.203200  0.207100  1
  C  C330  1  0.345200  0.796800  0.792900  1
  C  C331  1  0.622700  0.515300  0.068800  1
  C  C332  1  0.377300  0.484700  0.931200  1
  C  C333  1  0.552100  0.532900  0.082100  1
  C  C334  1  0.447900  0.467100  0.917900  1
  C  C335  1  0.511200  0.508600  0.123100  1
  C  C336  1  0.488800  0.491400  0.876900  1
  C  C337  1  0.545000  0.471500  0.147300  1
  C  C338  1  0.455000  0.528500  0.852700  1
  C  C339  1  0.615300  0.454600  0.135900  1
  C  C340  1  0.384700  0.545400  0.864100  1
  C  C341  1  0.651900  0.410300  0.171000  1
  C  C342  1  0.348100  0.589700  0.829000  1
  C  C343  1  0.686800  0.447000  0.242200  1
  C  C344  1  0.313200  0.553000  0.757800  1
  C  C345  1  0.772800  0.377900  0.272600  1
  C  C346  1  0.227200  0.622100  0.727400  1
  C  C347  1  0.785900  0.331600  0.312900  1
  C  C348  1  0.214100  0.668400  0.687100  1
  C  C349  1  0.844500  0.293200  0.297000  1
  C  C350  1  0.155500  0.706800  0.703000  1
  C  C351  1  0.222800  0.055300  0.263900  1
  C  C352  1  0.777200  0.944700  0.736100  1
  C  C353  1  0.283800  0.091400  0.248300  1
  C  C354  1  0.716200  0.908600  0.751700  1
  C  C355  1  0.262600  0.135700  0.222500  1
  C  C356  1  0.737400  0.864300  0.777500  1
  C  C357  1  0.186700  0.146600  0.213100  1
  C  C358  1  0.813300  0.853400  0.786900  1
  C  C359  1  0.126800  0.109100  0.231100  1
  C  C360  1  0.873200  0.890900  0.768900  1
  C  C361  1  0.041400  0.124700  0.227200  1
  C  C362  1  0.958600  0.875300  0.772800  1
  C  C363  1  0.044200  0.193000  0.266200  1
  C  C364  1  0.955800  0.807000  0.733800  1
  C  C365  1  0.927000  0.211300  0.316100  1
  C  C366  1  0.073000  0.788700  0.683900  1
  C  C367  1  0.862000  0.248000  0.326400  1
  C  C368  1  0.138000  0.752000  0.673600  1
  C  C369  1  0.822300  0.243600  0.377100  1
  C  C370  1  0.177700  0.756400  0.622900  1
  C  C371  1  0.479100  0.239700  0.637700  1
  C  C372  1  0.520900  0.760300  0.362300  1
  C  C373  1  0.521900  0.232100  0.693100  1
  C  C374  1  0.478100  0.767900  0.306900  1
  C  C375  1  0.593300  0.208200  0.693600  1
  C  C376  1  0.406700  0.791800  0.306400  1
  C  C377  1  0.623200  0.195700  0.636700  1
  C  C378  1  0.376800  0.804300  0.363300  1
  C  C379  1  0.581000  0.206100  0.585600  1
  C  C380  1  0.419000  0.793900  0.414400  1
  C  C381  1  0.614400  0.197100  0.522900  1
  C  C382  1  0.385600  0.802900  0.477100  1
  C  C383  1  0.702900  0.233800  0.537400  1
  C  C384  1  0.297100  0.766200  0.462600  1
  C  C385  1  0.724000  0.282500  0.452300  1
  C  C386  1  0.276000  0.717500  0.547700  1
  C  C387  1  0.763400  0.281500  0.393900  1
  C  C388  1  0.236600  0.718500  0.606100  1
  C  C389  1  0.747100  0.323300  0.362300  1
  C  C390  1  0.252900  0.676700  0.637700  1
  C  C391  1  0.643200  0.376200  0.931000  1
  C  C392  1  0.356800  0.623800  0.069000  1
  C  C393  1  0.581600  0.330300  0.887000  1
  C  C394  1  0.418400  0.669700  0.113000  1
  C  C395  1  0.538700  0.281400  0.900900  1
  C  C396  1  0.461300  0.718600  0.099100  1
  C  C397  1  0.557600  0.277000  0.963300  1
  C  C398  1  0.442400  0.723000  0.036700  1
  C  C399  1  0.622600  0.322200  0.004900  1
  C  C400  1  0.377400  0.677800  0.995100  1
  C  C401  1  0.515300  0.224700  0.985900  1
  C  C402  1  0.484700  0.775300  0.014100  1
  C  C403  1  0.487900  0.252500  0.052900  1
  C  C404  1  0.512100  0.747500  0.947100  1
  C  C405  1  0.437600  0.198300  0.072800  1
  C  C406  1  0.562400  0.801700  0.927200  1
  C  C407  1  0.477000  0.115600  0.110300  1
  C  C408  1  0.523000  0.884400  0.889700  1
  C  C409  1  0.529100  0.065300  0.099000  1
  C  C410  1  0.470900  0.934700  0.901000  1
  C  C411  1  0.577100  0.052300  0.057800  1
  C  C412  1  0.422900  0.947700  0.942200  1
  C  C413  1  0.097500  0.929400  0.136600  1
  C  C414  1  0.902500  0.070600  0.863400  1
  C  C415  1  0.079600  0.909500  0.071200  1
  C  C416  1  0.920400  0.090500  0.928800  1
  C  C417  1  0.007400  0.914200  0.031200  1
  C  C418  1  0.992600  0.085800  0.968800  1
  C  C419  1  0.949700  0.942700  0.066200  1
  C  C420  1  0.050300  0.057300  0.933800  1
  C  C421  1  0.965900  0.959800  0.132700  1
  C  C422  1  0.034100  0.040200  0.867300  1
  C  C423  1  0.874300  0.960500  0.022300  1
  C  C424  1  0.125700  0.039500  0.977700  1
  C  C425  1  0.831800  0.906900  0.979300  1
  C  C426  1  0.168200  0.093100  0.020700  1
  C  C427  1  0.759500  0.921500  0.946400  1
  C  C428  1  0.240500  0.078500  0.053600  1
  C  C429  1  0.674700  0.992400  0.003400  1
  C  C430  1  0.325300  0.007600  0.996600  1
  C  C431  1  0.621400  0.006600  0.051800  1
  C  C432  1  0.378600  0.993400  0.948200  1
  C  C433  1  0.620600  0.965900  0.091000  1
  C  C434  1  0.379400  0.034100  0.909000  1
  C  C435  1  0.374800  0.104300  0.504600  1
  C  C436  1  0.625200  0.895700  0.495400  1
  C  C437  1  0.359200  0.037100  0.485600  1
  C  C438  1  0.640800  0.962900  0.514400  1
  C  C439  1  0.382800  0.003900  0.430100  1
  C  C440  1  0.617200  0.996100  0.569900  1
  C  C441  1  0.420600  0.036900  0.392500  1
  C  C442  1  0.579400  0.963100  0.607500  1
  C  C443  1  0.435400  0.103100  0.419200  1
  C  C444  1  0.564600  0.896900  0.580800  1
  C  C445  1  0.449500  0.000000  0.330700  1
  C  C446  1  0.550500  0.000000  0.669300  1
  C  C447  1  0.529700  0.982500  0.345800  1
  C  C448  1  0.470300  0.017500  0.654200  1
  C  C449  1  0.555300  0.935200  0.289400  1
  C  C450  1  0.444700  0.064800  0.710600  1
  C  C451  1  0.580600  0.939600  0.189900  1
  C  C452  1  0.419400  0.060400  0.810100  1
  C  C453  1  0.570700  0.978200  0.142700  1
  C  C454  1  0.429300  0.021800  0.857300  1
  C  C455  1  0.527600  0.029800  0.144200  1
  C  C456  1  0.472400  0.970200  0.855800  1
  C  C457  1  0.850900  0.569100  0.121200  1
  C  C458  1  0.149100  0.430900  0.878800  1
  C  C459  1  0.914200  0.610500  0.163200  1
  C  C460  1  0.085800  0.389500  0.836800  1
  C  C461  1  0.959100  0.597200  0.216100  1
  C  C462  1  0.040900  0.402800  0.783900  1
  C  C463  1  0.943300  0.534900  0.224600  1
  C  C464  1  0.056700  0.465100  0.775400  1
  C  C465  1  0.876700  0.493500  0.178500  1
  C  C466  1  0.123300  0.506500  0.821500  1
  C  C467  1  0.988100  0.516200  0.278200  1
  C  C468  1  0.011900  0.483800  0.721800  1
  C  C469  1  0.011800  0.450400  0.247400  1
  C  C470  1  0.988200  0.549600  0.752600  1
  C  C471  1  0.060900  0.430400  0.300100  1
  C  C472  1  0.939100  0.569600  0.699900  1
  C  C473  1  0.022800  0.390700  0.382700  1
  C  C474  1  0.977200  0.609300  0.617300  1
  C  C475  1  0.974400  0.397600  0.435600  1
  C  C476  1  0.025600  0.602400  0.564400  1
  C  C477  1  0.973500  0.355200  0.472300  1
  C  C478  1  0.026500  0.644800  0.527700  1
  C  C479  1  0.127600  0.994900  0.398700  1
  C  C480  1  0.872400  0.005100  0.601300  1
  C  C481  1  0.142500  0.015800  0.465000  1
  C  C482  1  0.857500  0.984200  0.535000  1
  C  C483  1  0.118500  0.068700  0.498900  1
  C  C484  1  0.881500  0.931300  0.501100  1
  C  C485  1  0.079800  0.107800  0.465200  1
  C  C486  1  0.920200  0.892200  0.534800  1
  C  C487  1  0.066900  0.084200  0.399300  1
  C  C488  1  0.933100  0.915800  0.600700  1
  C  C489  1  0.049200  0.166900  0.500000  1
  C  C490  1  0.950800  0.833100  0.500000  1
  C  C491  1  0.968900  0.151500  0.516000  1
  C  C492  1  0.031100  0.848500  0.484000  1
  C  C493  1  0.944800  0.209000  0.561500  1
  C  C494  1  0.055200  0.791000  0.438500  1
  C  C495  1  0.920700  0.313700  0.560500  1
  C  C496  1  0.079300  0.686300  0.439500  1
  C  C497  1  0.925000  0.359500  0.519900  1
  C  C498  1  0.075000  0.640500  0.480100  1
  C  C499  1  0.880900  0.410000  0.534000  1
  C  C500  1  0.119100  0.590000  0.466000  1
  C  C501  1  0.406200  0.364200  0.570500  1
  C  C502  1  0.593800  0.635800  0.429500  1
  C  C503  1  0.421200  0.433000  0.593100  1
  C  C504  1  0.578800  0.567000  0.406900  1
  C  C505  1  0.489600  0.470500  0.580700  1
  C  C506  1  0.510400  0.529500  0.419300  1
  C  C507  1  0.548200  0.433700  0.553500  1
  C  C508  1  0.451800  0.566300  0.446500  1
  C  C509  1  0.531600  0.364000  0.539700  1
  C  C510  1  0.468400  0.636000  0.460300  1
  C  C511  1  0.621300  0.475200  0.529800  1
  C  C512  1  0.378700  0.524800  0.470200  1
  C  C513  1  0.666000  0.519400  0.586300  1
  C  C514  1  0.334000  0.480600  0.413700  1
  C  C515  1  0.743100  0.555000  0.577500  1
  C  C516  1  0.256900  0.445000  0.422500  1
  C  C517  1  0.820300  0.497800  0.506600  1
  C  C518  1  0.179700  0.502200  0.493400  1
  C  C519  1  0.879200  0.448600  0.495700  1
  C  C520  1  0.120800  0.551400  0.504300  1
  C  C521  1  0.922200  0.442700  0.447000  1
  C  C522  1  0.077800  0.557300  0.553000  1
  N  N523  1  0.509500  0.381500  0.293000  1
  N  N524  1  0.490500  0.618500  0.707000  1
  N  N525  1  0.750100  0.072400  0.430100  1
  N  N526  1  0.249900  0.927600  0.569900  1
  N  N527  1  0.991500  0.210400  0.117100  1
  N  N528  1  0.008500  0.789600  0.882900  1
  N  N529  1  0.269400  0.208300  0.610800  1
  N  N530  1  0.730600  0.791700  0.389200  1
  N  N531  1  0.238100  0.887400  0.298300  1
  N  N532  1  0.761900  0.112600  0.701700  1
  N  N533  1  0.843500  0.760300  0.090700  1
  N  N534  1  0.156500  0.239700  0.909300  1
  N  N535  1  0.846000  0.403200  0.024000  1
  N  N536  1  0.154000  0.596800  0.976000  1
  N  N537  1  0.792700  0.220800  0.094400  1
  N  N538  1  0.207300  0.779200  0.905600  1
  N  N539  1  0.987300  0.914600  0.272200  1
  N  N540  1  0.012700  0.085400  0.727800  1
  N  N541  1  0.767700  0.022100  0.267300  1
  N  N542  1  0.232300  0.977900  0.732700  1
  N  N543  1  0.354000  0.242200  0.434600  1
  N  N544  1  0.646000  0.757800  0.565400  1
  N  N545  1  0.535100  0.232500  0.287500  1
  N  N546  1  0.464900  0.767500  0.712500  1
  N  N547  1  0.654700  0.474900  0.096000  1
  N  N548  1  0.345300  0.525100  0.904000  1
  N  N549  1  0.707500  0.404700  0.278500  1
  N  N550  1  0.292500  0.595300  0.721500  1
  N  N551  1  0.146300  0.064900  0.257800  1
  N  N552  1  0.853700  0.935100  0.742200  1
  N  N553  1  0.964600  0.211700  0.267200  1
  N  N554  1  0.035400  0.788300  0.732800  1
  N  N555  1  0.511900  0.228000  0.587400  1
  N  N556  1  0.488100  0.772000  0.412600  1
  N  N557  1  0.732800  0.234200  0.478400  1
  N  N558  1  0.267200  0.765800  0.521600  1
  N  N559  1  0.664500  0.370200  0.991800  1
  N  N560  1  0.335500  0.629800  0.008200  1
  N  N561  1  0.039900  0.956600  0.167700  1
  N  N562  1  0.960100  0.043400  0.832300  1
  N  N563  1  0.413000  0.135800  0.471100  1
  N  N564  1  0.587000  0.864200  0.528900  1
  N  N565  1  0.834400  0.510500  0.130900  1
  N  N566  1  0.165600  0.489500  0.869100  1
  N  N567  1  0.088200  0.027600  0.365200  1
  N  N568  1  0.911800  0.972400  0.634800  1
  N  N569  1  0.461400  0.330400  0.544000  1
  N  N570  1  0.538600  0.669600  0.456000  1
  O  O571  1  0.566500  0.400400  0.337900  1
  O  O572  1  0.433500  0.599600  0.662100  1
  O  O573  1  0.514000  0.341800  0.235000  1
  O  O574  1  0.486000  0.658200  0.765000  1
  O  O575  1  0.442800  0.396600  0.298600  1
  O  O576  1  0.557200  0.603400  0.701400  1
  O  O577  1  0.749300  0.106300  0.393400  1
  O  O578  1  0.250700  0.893700  0.606600  1
  O  O579  1  0.746700  0.012100  0.405400  1
  O  O580  1  0.253300  0.987900  0.594600  1
  O  O581  1  0.750700  0.094600  0.489300  1
  O  O582  1  0.249300  0.905400  0.510700  1
  O  O583  1  0.935800  0.164100  0.101500  1
  O  O584  1  0.064200  0.835900  0.898500  1
  O  O585  1  0.984000  0.264600  0.157600  1
  O  O586  1  0.016000  0.735400  0.842400  1
  O  O587  1  0.057000  0.205500  0.102300  1
  O  O588  1  0.943000  0.794500  0.897700  1
  O  O589  1  0.293900  0.168800  0.638800  1
  O  O590  1  0.706100  0.831200  0.361200  1
  O  O591  1  0.218000  0.222800  0.634700  1
  O  O592  1  0.782000  0.777200  0.365300  1
  O  O593  1  0.298100  0.234400  0.585000  1
  O  O594  1  0.701900  0.765600  0.415000  1
  O  O595  1  0.207000  0.856200  0.332300  1
  O  O596  1  0.793000  0.143800  0.667700  1
  O  O597  1  0.206800  0.912500  0.269300  1
  O  O598  1  0.793200  0.087500  0.730700  1
  O  O599  1  0.285100  0.859300  0.268800  1
  O  O600  1  0.714900  0.140700  0.731200  1
  O  O601  1  0.782400  0.784700  0.095100  1
  O  O602  1  0.217600  0.215300  0.904900  1
  O  O603  1  0.848000  0.712500  0.110700  1
  O  O604  1  0.152000  0.287500  0.889300  1
  O  O605  1  0.900500  0.775100  0.063900  1
  O  O606  1  0.099500  0.224900  0.936100  1
  O  O607  1  0.847300  0.279000  0.715400  1
  O  O608  1  0.152700  0.721000  0.284600  1
  O  O609  1  0.363400  0.213000  0.780900  1
  O  O610  1  0.636600  0.787000  0.219100  1
  O  O611  1  0.750700  0.540900  0.959700  1
  O  O612  1  0.249300  0.459100  0.040300  1
  O  O613  1  0.681100  0.261600  0.110300  1
  O  O614  1  0.318900  0.738400  0.889700  1
  O  O615  1  0.812100  0.025800  0.175200  1
  O  O616  1  0.187900  0.974200  0.824800  1
  O  O617  1  0.548700  0.143600  0.317900  1
  O  O618  1  0.451300  0.856400  0.682100  1
  O  O619  1  0.820200  0.388800  0.238200  1
  O  O620  1  0.179800  0.611200  0.761800  1
  O  O621  1  0.950900  0.183800  0.354700  1
  O  O622  1  0.049100  0.816200  0.645300  1
  O  O623  1  0.687000  0.326200  0.474500  1
  O  O624  1  0.313000  0.673800  0.525500  1
  O  O625  1  0.485500  0.147300  0.068400  1
  O  O626  1  0.514500  0.852700  0.931600  1
  O  O627  1  0.432700  0.124000  0.149000  1
  O  O628  1  0.567300  0.876000  0.851000  1
  O  O629  1  0.704300  0.939600  0.992500  1
  O  O630  1  0.295700  0.060400  0.007500  1
  O  O631  1  0.689600  0.034100  0.974500  1
  O  O632  1  0.310400  0.965900  0.025500  1
  O  O633  1  0.554800  0.970600  0.242700  1
  O  O634  1  0.445200  0.029400  0.757300  1
  O  O635  1  0.600900  0.887000  0.177600  1
  O  O636  1  0.399100  0.113000  0.822400  1
  O  O637  1  0.012100  0.432000  0.349600  1
  O  O638  1  0.987900  0.568000  0.650400  1
  O  O639  1  0.069000  0.351100  0.375800  1
  O  O640  1  0.931000  0.648900  0.624200  1
  O  O641  1  0.945900  0.257700  0.529900  1
  O  O642  1  0.054100  0.742300  0.470100  1
  O  O643  1  0.901200  0.325200  0.613700  1
  O  O644  1  0.098800  0.674800  0.386300  1
  O  O645  1  0.797600  0.507700  0.562400  1
  O  O646  1  0.202400  0.492300  0.437600  1
  O  O647  1  0.810300  0.525500  0.464900  1
  O  O648  1  0.189700  0.474500  0.535100  1
