# generated using pymatgen
data_H42PdC40N8O5
_symmetry_space_group_name_H-M   'P 1'
_cell_length_a   17.02390000
_cell_length_b   17.74850000
_cell_length_c   29.39020000
_cell_angle_alpha   95.51900000
_cell_angle_beta   96.33700000
_cell_angle_gamma   105.95000000
_symmetry_Int_Tables_number   1
_chemical_formula_structural   H42PdC40N8O5
_chemical_formula_sum   'H252 Pd6 C240 N48 O30'
_cell_volume   8411.48089526
_cell_formula_units_Z   6
loop_
 _symmetry_equiv_pos_site_id
 _symmetry_equiv_pos_as_xyz
  1  'x, y, z'
loop_
 _atom_site_type_symbol
 _atom_site_label
 _atom_site_symmetry_multiplicity
 _atom_site_fract_x
 _atom_site_fract_y
 _atom_site_fract_z
 _atom_site_occupancy
  H  H1  1  0.833000  0.866000  0.246400  1
  H  H2  1  0.167000  0.134000  0.753600  1
  H  H3  1  0.468200  0.746300  0.155800  1
  H  H4  1  0.531800  0.253700  0.844200  1
  H  H5  1  0.577900  0.648000  0.341700  1
  H  H6  1  0.422100  0.352000  0.658300  1
  H  H7  1  0.548500  0.962300  0.188200  1
  H  H8  1  0.451500  0.037700  0.811800  1
  H  H9  1  0.435300  0.755300  0.345000  1
  H  H10  1  0.564700  0.244700  0.655000  1
  H  H11  1  0.804500  0.935100  0.354600  1
  H  H12  1  0.195500  0.064900  0.645400  1
  H  H13  1  0.723500  0.645500  0.085700  1
  H  H14  1  0.276500  0.354500  0.914300  1
  H  H15  1  0.442900  0.396800  0.139300  1
  H  H16  1  0.557100  0.603200  0.860700  1
  H  H17  1  0.772800  0.501500  0.261400  1
  H  H18  1  0.227200  0.498500  0.738600  1
  H  H19  1  0.025300  0.133400  0.097600  1
  H  H20  1  0.974700  0.866600  0.902400  1
  H  H21  1  0.154500  0.172300  0.134500  1
  H  H22  1  0.845500  0.827700  0.865500  1
  H  H23  1  0.177000  0.110400  0.202000  1
  H  H24  1  0.823000  0.889600  0.798000  1
  H  H25  1  0.061900  0.045600  0.234400  1
  H  H26  1  0.938100  0.954400  0.765600  1
  H  H27  1  0.903800  0.026100  0.235300  1
  H  H28  1  0.096200  0.973900  0.764700  1
  H  H29  1  0.850100  0.013800  0.185300  1
  H  H30  1  0.149900  0.986200  0.814700  1
  H  H31  1  0.946700  0.915500  0.212500  1
  H  H32  1  0.053300  0.084500  0.787500  1
  H  H33  1  0.888700  0.902400  0.164200  1
  H  H34  1  0.111300  0.097600  0.835800  1
  H  H35  1  0.591500  0.773800  0.170600  1
  H  H36  1  0.408500  0.226200  0.829400  1
  H  H37  1  0.018800  0.611200  0.125900  1
  H  H38  1  0.981200  0.388800  0.874100  1
  H  H39  1  0.004900  0.634900  0.046600  1
  H  H40  1  0.995100  0.365100  0.953400  1
  H  H41  1  0.132700  0.703100  0.017900  1
  H  H42  1  0.867300  0.296900  0.982100  1
  H  H43  1  0.251600  0.757000  0.076200  1
  H  H44  1  0.748400  0.243000  0.923800  1
  H  H45  1  0.320600  0.777300  0.155000  1
  H  H46  1  0.679400  0.222700  0.845000  1
  H  H47  1  0.284400  0.711200  0.186700  1
  H  H48  1  0.715600  0.288800  0.813300  1
  H  H49  1  0.348000  0.676900  0.105500  1
  H  H50  1  0.652000  0.323100  0.894500  1
  H  H51  1  0.323800  0.619200  0.143500  1
  H  H52  1  0.676200  0.380800  0.856500  1
  H  H53  1  0.532800  0.645900  0.274100  1
  H  H54  1  0.467200  0.354100  0.725900  1
  H  H55  1  0.824400  0.618900  0.555300  1
  H  H56  1  0.175600  0.381100  0.444700  1
  H  H57  1  0.721700  0.539800  0.583400  1
  H  H58  1  0.278300  0.460200  0.416600  1
  H  H59  1  0.588500  0.482100  0.527800  1
  H  H60  1  0.411500  0.517900  0.472200  1
  H  H61  1  0.572600  0.549700  0.468500  1
  H  H62  1  0.427400  0.450300  0.531500  1
  H  H63  1  0.723100  0.707600  0.434000  1
  H  H64  1  0.276900  0.292400  0.566000  1
  H  H65  1  0.626000  0.689800  0.437000  1
  H  H66  1  0.374000  0.310200  0.563000  1
  H  H67  1  0.699900  0.583800  0.384900  1
  H  H68  1  0.300100  0.416200  0.615100  1
  H  H69  1  0.604600  0.556100  0.392400  1
  H  H70  1  0.395400  0.443900  0.607600  1
  H  H71  1  0.764400  0.770700  0.275200  1
  H  H72  1  0.235600  0.229300  0.724800  1
  H  H73  1  0.811900  0.171200  0.037200  1
  H  H74  1  0.188100  0.828800  0.962800  1
  H  H75  1  0.568800  0.128000  0.005300  1
  H  H76  1  0.431200  0.872000  0.994700  1
  H  H77  1  0.550400  0.017900  0.051100  1
  H  H78  1  0.449600  0.982100  0.948900  1
  H  H79  1  0.716700  0.999100  0.132300  1
  H  H80  1  0.283300  0.000900  0.867700  1
  H  H81  1  0.626600  0.949500  0.106900  1
  H  H82  1  0.373400  0.050500  0.893100  1
  H  H83  1  0.661700  0.093800  0.172500  1
  H  H84  1  0.338300  0.906200  0.827500  1
  H  H85  1  0.572300  0.055200  0.142900  1
  H  H86  1  0.427700  0.944800  0.857100  1
  H  H87  1  0.496300  0.906300  0.240700  1
  H  H88  1  0.503700  0.093700  0.759300  1
  H  H89  1  0.026000  0.507800  0.248400  1
  H  H90  1  0.974000  0.492200  0.751600  1
  H  H91  1  0.017500  0.442500  0.314500  1
  H  H92  1  0.982500  0.557500  0.685500  1
  H  H93  1  0.145100  0.456000  0.362300  1
  H  H94  1  0.854900  0.544000  0.637700  1
  H  H95  1  0.252700  0.559500  0.358000  1
  H  H96  1  0.747300  0.440500  0.642000  1
  H  H97  1  0.293500  0.649600  0.256600  1
  H  H98  1  0.706500  0.350400  0.743400  1
  H  H99  1  0.336900  0.610400  0.295600  1
  H  H100  1  0.663100  0.389600  0.704400  1
  H  H101  1  0.275100  0.746900  0.313400  1
  H  H102  1  0.724900  0.253100  0.686600  1
  H  H103  1  0.303200  0.703000  0.354600  1
  H  H104  1  0.696800  0.297000  0.645400  1
  H  H105  1  0.546800  0.817500  0.357500  1
  H  H106  1  0.453200  0.182500  0.642500  1
  H  H107  1  0.026300  0.801700  0.536900  1
  H  H108  1  0.973700  0.198300  0.463100  1
  H  H109  1  0.145600  0.896000  0.531400  1
  H  H110  1  0.854400  0.104000  0.468600  1
  H  H111  1  0.151100  0.975400  0.473500  1
  H  H112  1  0.848900  0.024600  0.526500  1
  H  H113  1  0.037800  0.957700  0.420600  1
  H  H114  1  0.962200  0.042300  0.579400  1
  H  H115  1  0.845200  0.801000  0.413000  1
  H  H116  1  0.154800  0.199000  0.587000  1
  H  H117  1  0.903700  0.847000  0.379200  1
  H  H118  1  0.096300  0.153000  0.620800  1
  H  H119  1  0.823500  0.921600  0.446000  1
  H  H120  1  0.176500  0.078400  0.554000  1
  H  H121  1  0.892300  0.973400  0.419400  1
  H  H122  1  0.107700  0.026600  0.580600  1
  H  H123  1  0.733300  0.958700  0.302000  1
  H  H124  1  0.266700  0.041300  0.698000  1
  H  H125  1  0.922700  0.251000  0.113000  1
  H  H126  1  0.077300  0.749000  0.887000  1
  H  H127  1  0.937700  0.372100  0.168100  1
  H  H128  1  0.062300  0.627900  0.831900  1
  H  H129  1  0.891500  0.358400  0.234000  1
  H  H130  1  0.108500  0.641600  0.766000  1
  H  H131  1  0.810700  0.124900  0.199300  1
  H  H132  1  0.189300  0.875100  0.800700  1
  H  H133  1  0.749100  0.209600  0.269600  1
  H  H134  1  0.250900  0.790400  0.730400  1
  H  H135  1  0.823000  0.287000  0.291300  1
  H  H136  1  0.177000  0.713000  0.708700  1
  H  H137  1  0.838900  0.125400  0.284700  1
  H  H138  1  0.161100  0.874600  0.715300  1
  H  H139  1  0.915400  0.201800  0.303800  1
  H  H140  1  0.084600  0.798200  0.696200  1
  H  H141  1  0.858600  0.145200  0.368600  1
  H  H142  1  0.141400  0.854800  0.631400  1
  H  H143  1  0.844300  0.231000  0.367800  1
  H  H144  1  0.155700  0.769000  0.632200  1
  H  H145  1  0.590900  0.125000  0.318600  1
  H  H146  1  0.409100  0.875000  0.681400  1
  H  H147  1  0.000100  0.657600  0.214400  1
  H  H148  1  0.999900  0.342400  0.785600  1
  H  H149  1  0.942400  0.751800  0.243300  1
  H  H150  1  0.057600  0.248200  0.756700  1
  H  H151  1  0.028900  0.859900  0.285400  1
  H  H152  1  0.971100  0.140100  0.714600  1
  H  H153  1  0.219700  0.789900  0.246200  1
  H  H154  1  0.780300  0.210100  0.753800  1
  H  H155  1  0.236900  0.908900  0.310100  1
  H  H156  1  0.763100  0.091100  0.689900  1
  H  H157  1  0.163500  0.949400  0.306300  1
  H  H158  1  0.836500  0.050600  0.693700  1
  H  H159  1  0.270700  0.941300  0.235100  1
  H  H160  1  0.729300  0.058700  0.764900  1
  H  H161  1  0.189000  0.968200  0.224300  1
  H  H162  1  0.811000  0.031800  0.775700  1
  H  H163  1  0.313600  0.083200  0.245000  1
  H  H164  1  0.686400  0.916800  0.755000  1
  H  H165  1  0.246400  0.086600  0.279000  1
  H  H166  1  0.753600  0.913400  0.721000  1
  H  H167  1  0.386700  0.980700  0.365200  1
  H  H168  1  0.613300  0.019300  0.634800  1
  H  H169  1  0.905500  0.827800  0.586300  1
  H  H170  1  0.094500  0.172200  0.413700  1
  H  H171  1  0.858700  0.905300  0.636700  1
  H  H172  1  0.141300  0.094700  0.363300  1
  H  H173  1  0.728800  0.927700  0.613000  1
  H  H174  1  0.271200  0.072300  0.387000  1
  H  H175  1  0.725400  0.817000  0.487200  1
  H  H176  1  0.274600  0.183000  0.512800  1
  H  H177  1  0.653100  0.933200  0.510100  1
  H  H178  1  0.346900  0.066800  0.489900  1
  H  H179  1  0.616200  0.913300  0.556600  1
  H  H180  1  0.383800  0.086700  0.443400  1
  H  H181  1  0.553900  0.780300  0.522000  1
  H  H182  1  0.446100  0.219700  0.478000  1
  H  H183  1  0.588300  0.803000  0.475000  1
  H  H184  1  0.411700  0.197000  0.525000  1
  H  H185  1  0.445900  0.805200  0.473300  1
  H  H186  1  0.554100  0.194800  0.526700  1
  H  H187  1  0.475600  0.876400  0.515400  1
  H  H188  1  0.524400  0.123600  0.484600  1
  H  H189  1  0.619100  0.021300  0.429900  1
  H  H190  1  0.380900  0.978700  0.570100  1
  H  H191  1  0.766900  0.900700  0.086700  1
  H  H192  1  0.233100  0.099300  0.913300  1
  H  H193  1  0.924200  0.032500  0.017900  1
  H  H194  1  0.075800  0.967500  0.982100  1
  H  H195  1  0.901900  0.891400  0.986900  1
  H  H196  1  0.098100  0.108600  0.013100  1
  H  H197  1  0.733200  0.755100  0.039900  1
  H  H198  1  0.266800  0.244900  0.960100  1
  H  H199  1  0.768100  0.752600  0.991600  1
  H  H200  1  0.231900  0.247400  0.008400  1
  H  H201  1  0.863400  0.763500  0.103700  1
  H  H202  1  0.136600  0.236500  0.896300  1
  H  H203  1  0.886200  0.686100  0.086100  1
  H  H204  1  0.113800  0.313900  0.913900  1
  H  H205  1  0.615800  0.582100  0.098000  1
  H  H206  1  0.384200  0.417900  0.902000  1
  H  H207  1  0.277900  0.515700  0.203300  1
  H  H208  1  0.722100  0.484300  0.796700  1
  H  H209  1  0.060800  0.471700  0.125000  1
  H  H210  1  0.939200  0.528300  0.875000  1
  H  H211  1  0.116800  0.358500  0.109700  1
  H  H212  1  0.883200  0.641500  0.890300  1
  H  H213  1  0.231600  0.319600  0.167300  1
  H  H214  1  0.768400  0.680400  0.832700  1
  H  H215  1  0.312500  0.392900  0.179800  1
  H  H216  1  0.687500  0.607100  0.820200  1
  H  H217  1  0.317200  0.308500  0.116800  1
  H  H218  1  0.682800  0.691500  0.883200  1
  H  H219  1  0.237500  0.323500  0.090400  1
  H  H220  1  0.762500  0.676500  0.909600  1
  H  H221  1  0.312800  0.448400  0.091500  1
  H  H222  1  0.687200  0.551600  0.908500  1
  H  H223  1  0.335600  0.380500  0.060100  1
  H  H224  1  0.664400  0.619500  0.939900  1
  H  H225  1  0.528800  0.454900  0.199000  1
  H  H226  1  0.471200  0.545100  0.801000  1
  H  H227  1  0.851400  0.669800  0.387100  1
  H  H228  1  0.148600  0.330200  0.612900  1
  H  H229  1  0.949800  0.597600  0.498200  1
  H  H230  1  0.050200  0.402400  0.501800  1
  H  H231  1  0.977900  0.525600  0.428100  1
  H  H232  1  0.022100  0.474400  0.571900  1
  H  H233  1  0.875500  0.577300  0.316900  1
  H  H234  1  0.124500  0.422700  0.683100  1
  H  H235  1  0.954600  0.547700  0.330900  1
  H  H236  1  0.045400  0.452300  0.669100  1
  H  H237  1  0.857200  0.430900  0.354500  1
  H  H238  1  0.142800  0.569100  0.645500  1
  H  H239  1  0.859200  0.432100  0.300600  1
  H  H240  1  0.140800  0.567900  0.699400  1
  H  H241  1  0.718500  0.380100  0.312800  1
  H  H242  1  0.281500  0.619900  0.687200  1
  H  H243  1  0.724300  0.459400  0.346500  1
  H  H244  1  0.275700  0.540600  0.653500  1
  H  H245  1  0.766700  0.586700  0.219900  1
  H  H246  1  0.233300  0.413300  0.780100  1
  H  H247  1  0.709000  0.168600  0.985300  1
  H  H248  1  0.291000  0.831400  0.014700  1
  H  H249  1  0.831300  0.682300  0.021800  1
  H  H250  1  0.168700  0.317700  0.978200  1
  H  H251  1  0.896200  0.765500  0.040800  1
  H  H252  1  0.103800  0.234500  0.959200  1
  Pd  Pd253  1  0.855380  0.078830  0.110990  1
  Pd  Pd254  1  0.144620  0.921170  0.889010  1
  Pd  Pd255  1  0.144020  0.615370  0.203190  1
  Pd  Pd256  1  0.855980  0.384630  0.796810  1
  Pd  Pd257  1  0.855890  0.735370  0.490530  1
  Pd  Pd258  1  0.144110  0.264630  0.509470  1
  C  C259  1  0.033700  0.119000  0.127700  1
  C  C260  1  0.966300  0.881000  0.872300  1
  C  C261  1  0.110700  0.138600  0.146900  1
  C  C262  1  0.889300  0.861400  0.853100  1
  C  C263  1  0.122900  0.105200  0.187300  1
  C  C264  1  0.877100  0.894800  0.812700  1
  C  C265  1  0.053800  0.064200  0.205500  1
  C  C266  1  0.946200  0.935800  0.794500  1
  C  C267  1  0.974500  0.049500  0.183600  1
  C  C268  1  0.025500  0.950500  0.816400  1
  C  C269  1  0.900100  0.005900  0.202300  1
  C  C270  1  0.099900  0.994100  0.797700  1
  C  C271  1  0.894400  0.921800  0.197400  1
  C  C272  1  0.105600  0.078200  0.802600  1
  C  C273  1  0.751800  0.834900  0.192200  1
  C  C274  1  0.248200  0.165100  0.807800  1
  C  C275  1  0.690900  0.779000  0.217300  1
  C  C276  1  0.309100  0.221000  0.782700  1
  C  C277  1  0.607700  0.755400  0.198500  1
  C  C278  1  0.392300  0.244600  0.801500  1
  C  C279  1  0.066700  0.634300  0.112600  1
  C  C280  1  0.933300  0.365700  0.887400  1
  C  C281  1  0.057100  0.650900  0.065600  1
  C  C282  1  0.942900  0.349100  0.934400  1
  C  C283  1  0.131600  0.693300  0.049100  1
  C  C284  1  0.868400  0.306700  0.950900  1
  C  C285  1  0.204500  0.719900  0.083800  1
  C  C286  1  0.795500  0.280100  0.916200  1
  C  C287  1  0.210400  0.697200  0.123900  1
  C  C288  1  0.789600  0.302800  0.876100  1
  C  C289  1  0.293400  0.720300  0.154700  1
  C  C290  1  0.706600  0.279700  0.845300  1
  C  C291  1  0.347100  0.675100  0.139000  1
  C  C292  1  0.652900  0.324900  0.861000  1
  C  C293  1  0.456100  0.665200  0.197700  1
  C  C294  1  0.543900  0.334800  0.802300  1
  C  C295  1  0.548000  0.706100  0.218900  1
  C  C296  1  0.452000  0.293900  0.781100  1
  C  C297  1  0.572600  0.681400  0.260000  1
  C  C298  1  0.427400  0.318600  0.740000  1
  C  C299  1  0.769900  0.607600  0.539400  1
  C  C300  1  0.230100  0.392400  0.460600  1
  C  C301  1  0.713300  0.557100  0.554200  1
  C  C302  1  0.286700  0.442900  0.445800  1
  C  C303  1  0.631400  0.526100  0.522500  1
  C  C304  1  0.368600  0.473900  0.477500  1
  C  C305  1  0.624700  0.564700  0.487500  1
  C  C306  1  0.375300  0.435300  0.512500  1
  C  C307  1  0.681000  0.620500  0.475900  1
  C  C308  1  0.319000  0.379500  0.524100  1
  C  C309  1  0.671400  0.665400  0.434800  1
  C  C310  1  0.328600  0.334600  0.565200  1
  C  C311  1  0.651200  0.602300  0.389600  1
  C  C312  1  0.348800  0.397700  0.610400  1
  C  C313  1  0.686500  0.675200  0.325100  1
  C  C314  1  0.313500  0.324800  0.674900  1
  C  C315  1  0.652000  0.706600  0.280500  1
  C  C316  1  0.348000  0.293400  0.719500  1
  C  C317  1  0.709000  0.753600  0.260200  1
  C  C318  1  0.291000  0.246400  0.739800  1
  C  C319  1  0.758700  0.138100  0.039700  1
  C  C320  1  0.241300  0.861900  0.960300  1
  C  C321  1  0.613200  0.111700  0.019400  1
  C  C322  1  0.386800  0.888300  0.980600  1
  C  C323  1  0.603300  0.053300  0.050400  1
  C  C324  1  0.396700  0.946700  0.949600  1
  C  C325  1  0.674500  0.048500  0.080500  1
  C  C326  1  0.325500  0.951500  0.919500  1
  C  C327  1  0.662700  0.003500  0.118500  1
  C  C328  1  0.337300  0.996500  0.881500  1
  C  C329  1  0.621900  0.043200  0.157600  1
  C  C330  1  0.378100  0.956800  0.842400  1
  C  C331  1  0.652600  0.991700  0.230100  1
  C  C332  1  0.347400  0.008300  0.769900  1
  C  C333  1  0.620500  0.942500  0.266300  1
  C  C334  1  0.379500  0.057500  0.733700  1
  C  C335  1  0.535800  0.902500  0.265200  1
  C  C336  1  0.464200  0.097500  0.734800  1
  C  C337  1  0.073500  0.516700  0.270800  1
  C  C338  1  0.926500  0.483300  0.729200  1
  C  C339  1  0.068200  0.476500  0.308900  1
  C  C340  1  0.931800  0.523500  0.691100  1
  C  C341  1  0.142200  0.488900  0.338900  1
  C  C342  1  0.857800  0.511100  0.661100  1
  C  C343  1  0.206500  0.545800  0.334400  1
  C  C344  1  0.793500  0.454200  0.665600  1
  C  C345  1  0.211400  0.588200  0.296300  1
  C  C346  1  0.788600  0.411800  0.703700  1
  C  C347  1  0.294400  0.637900  0.288900  1
  C  C348  1  0.705600  0.362100  0.711100  1
  C  C349  1  0.313100  0.716300  0.323400  1
  C  C350  1  0.686900  0.283700  0.676600  1
  C  C351  1  0.418000  0.820600  0.297500  1
  C  C352  1  0.582000  0.179400  0.702500  1
  C  C353  1  0.512100  0.860000  0.298400  1
  C  C354  1  0.487900  0.140000  0.701600  1
  C  C355  1  0.565800  0.850500  0.335000  1
  C  C356  1  0.434200  0.149500  0.665000  1
  C  C357  1  0.027800  0.833500  0.512600  1
  C  C358  1  0.972200  0.166500  0.487400  1
  C  C359  1  0.098000  0.889100  0.509400  1
  C  C360  1  0.902000  0.110900  0.490600  1
  C  C361  1  0.101500  0.935700  0.475200  1
  C  C362  1  0.898500  0.064300  0.524800  1
  C  C363  1  0.036100  0.925500  0.444700  1
  C  C364  1  0.963900  0.074500  0.555300  1
  C  C365  1  0.962800  0.866100  0.447900  1
  C  C366  1  0.037200  0.133900  0.552100  1
  C  C367  1  0.886700  0.851100  0.410300  1
  C  C368  1  0.113300  0.148900  0.589700  1
  C  C369  1  0.848400  0.922700  0.417100  1
  C  C370  1  0.151600  0.077300  0.582900  1
  C  C371  1  0.705200  0.882500  0.380100  1
  C  C372  1  0.294800  0.117500  0.619900  1
  C  C373  1  0.650700  0.892700  0.337200  1
  C  C374  1  0.349300  0.107300  0.662800  1
  C  C375  1  0.676100  0.934600  0.301800  1
  C  C376  1  0.323900  0.065400  0.698200  1
  C  C377  1  0.901700  0.248500  0.141600  1
  C  C378  1  0.098300  0.751500  0.858400  1
  C  C379  1  0.911400  0.320900  0.175200  1
  C  C380  1  0.088600  0.679100  0.824800  1
  C  C381  1  0.883900  0.312400  0.212700  1
  C  C382  1  0.116100  0.687600  0.787300  1
  C  C383  1  0.842000  0.238000  0.225500  1
  C  C384  1  0.158000  0.762000  0.774500  1
  C  C385  1  0.836500  0.176600  0.192800  1
  C  C386  1  0.163500  0.823400  0.807200  1
  C  C387  1  0.809700  0.233400  0.273900  1
  C  C388  1  0.190300  0.766600  0.726100  1
  C  C389  1  0.854800  0.179600  0.301500  1
  C  C390  1  0.145200  0.820400  0.698500  1
  C  C391  1  0.829700  0.176900  0.350900  1
  C  C392  1  0.170300  0.823100  0.649100  1
  C  C393  1  0.703400  0.108200  0.381300  1
  C  C394  1  0.296600  0.891800  0.618700  1
  C  C395  1  0.614800  0.074200  0.376000  1
  C  C396  1  0.385200  0.925800  0.624000  1
  C  C397  1  0.567100  0.091400  0.339800  1
  C  C398  1  0.432900  0.908600  0.660200  1
  C  C399  1  0.037700  0.706100  0.229100  1
  C  C400  1  0.962300  0.293900  0.770900  1
  C  C401  1  0.000600  0.761100  0.246900  1
  C  C402  1  0.999400  0.238900  0.753100  1
  C  C403  1  0.050200  0.824000  0.268000  1
  C  C404  1  0.949800  0.176000  0.732000  1
  C  C405  1  0.135400  0.843400  0.267200  1
  C  C406  1  0.864600  0.156600  0.732800  1
  C  C407  1  0.162300  0.780900  0.247000  1
  C  C408  1  0.837700  0.219100  0.753000  1
  C  C409  1  0.192800  0.918500  0.288500  1
  C  C410  1  0.807200  0.081500  0.711500  1
  C  C411  1  0.233400  0.968000  0.249000  1
  C  C412  1  0.766600  0.032000  0.751000  1
  C  C413  1  0.283800  0.056500  0.268800  1
  C  C414  1  0.716200  0.943500  0.731200  1
  C  C415  1  0.430000  0.072800  0.297000  1
  C  C416  1  0.570000  0.927200  0.703000  1
  C  C417  1  0.481100  0.057100  0.335700  1
  C  C418  1  0.518900  0.942900  0.664300  1
  C  C419  1  0.444700  0.004000  0.368200  1
  C  C420  1  0.555300  0.996000  0.631800  1
  C  C421  1  0.856200  0.840700  0.576600  1
  C  C422  1  0.143800  0.159300  0.423400  1
  C  C423  1  0.828800  0.884700  0.606800  1
  C  C424  1  0.171200  0.115300  0.393200  1
  C  C425  1  0.752800  0.899300  0.592300  1
  C  C426  1  0.247200  0.100700  0.407700  1
  C  C427  1  0.714700  0.872100  0.548200  1
  C  C428  1  0.285300  0.127900  0.451800  1
  C  C429  1  0.750200  0.831800  0.518600  1
  C  C430  1  0.249800  0.168200  0.481400  1
  C  C431  1  0.637900  0.891200  0.530100  1
  C  C432  1  0.362100  0.108800  0.469900  1
  C  C433  1  0.569000  0.823600  0.502900  1
  C  C434  1  0.431000  0.176400  0.497100  1
  C  C435  1  0.492700  0.850600  0.488400  1
  C  C436  1  0.507300  0.149400  0.511600  1
  C  C437  1  0.459300  0.934200  0.433200  1
  C  C438  1  0.540700  0.065800  0.566800  1
  C  C439  1  0.496700  0.989100  0.402800  1
  C  C440  1  0.503300  0.010900  0.597200  1
  C  C441  1  0.582600  0.028900  0.405000  1
  C  C442  1  0.417400  0.971100  0.595000  1
  C  C443  1  0.807900  0.915600  0.067200  1
  C  C444  1  0.192100  0.084400  0.932800  1
  C  C445  1  0.893500  0.987800  0.030300  1
  C  C446  1  0.106500  0.012200  0.969700  1
  C  C447  1  0.877300  0.909500  0.011600  1
  C  C448  1  0.122700  0.090500  0.988400  1
  C  C449  1  0.783800  0.770200  0.025200  1
  C  C450  1  0.216200  0.229800  0.974800  1
  C  C451  1  0.842500  0.713100  0.082700  1
  C  C452  1  0.157500  0.286900  0.917300  1
  C  C453  1  0.784600  0.650800  0.145400  1
  C  C454  1  0.215400  0.349200  0.854600  1
  C  C455  1  0.701500  0.597300  0.158400  1
  C  C456  1  0.298500  0.402700  0.841600  1
  C  C457  1  0.623200  0.570200  0.128700  1
  C  C458  1  0.376800  0.429800  0.871300  1
  C  C459  1  0.229100  0.489200  0.182500  1
  C  C460  1  0.770900  0.510800  0.817500  1
  C  C461  1  0.110900  0.465300  0.139400  1
  C  C462  1  0.889100  0.534700  0.860600  1
  C  C463  1  0.141700  0.404600  0.131400  1
  C  C464  1  0.858300  0.595400  0.868600  1
  C  C465  1  0.262100  0.369600  0.157000  1
  C  C466  1  0.737900  0.630400  0.843000  1
  C  C467  1  0.288300  0.349200  0.112400  1
  C  C468  1  0.711700  0.650800  0.887600  1
  C  C469  1  0.334500  0.402100  0.092300  1
  C  C470  1  0.665500  0.597900  0.907700  1
  C  C471  1  0.479800  0.498500  0.117800  1
  C  C472  1  0.520200  0.501500  0.882200  1
  C  C473  1  0.554100  0.521400  0.150700  1
  C  C474  1  0.445900  0.478600  0.849300  1
  C  C475  1  0.571600  0.493800  0.189100  1
  C  C476  1  0.428400  0.506200  0.810900  1
  C  C477  1  0.876900  0.640300  0.406100  1
  C  C478  1  0.123100  0.359700  0.593900  1
  C  C479  1  0.933300  0.602200  0.466900  1
  C  C480  1  0.066700  0.397800  0.533100  1
  C  C481  1  0.945700  0.561600  0.429100  1
  C  C482  1  0.054300  0.438400  0.570900  1
  C  C483  1  0.898300  0.545200  0.337600  1
  C  C484  1  0.101700  0.454800  0.662400  1
  C  C485  1  0.842700  0.457500  0.328000  1
  C  C486  1  0.157300  0.542500  0.672000  1
  C  C487  1  0.745300  0.437800  0.319600  1
  C  C488  1  0.254700  0.562200  0.680400  1
  C  C489  1  0.656200  0.485300  0.262200  1
  C  C490  1  0.343800  0.514700  0.737800  1
  C  C491  1  0.647400  0.517000  0.216000  1
  C  C492  1  0.352600  0.483000  0.784000  1
  C  C493  1  0.714000  0.569700  0.201400  1
  C  C494  1  0.286000  0.430300  0.798600  1
  C  C495  1  0.698200  0.143200  0.011900  1
  C  C496  1  0.301800  0.856800  0.988100  1
  C  C497  1  0.840300  0.731500  0.043100  1
  C  C498  1  0.159700  0.268500  0.956900  1
  N  N499  1  0.966600  0.082600  0.143400  1
  N  N500  1  0.033400  0.917400  0.856600  1
  N  N501  1  0.825400  0.871800  0.217000  1
  N  N502  1  0.174600  0.128200  0.783000  1
  N  N503  1  0.142300  0.650500  0.138600  1
  N  N504  1  0.857700  0.349500  0.861400  1
  N  N505  1  0.433000  0.704500  0.163300  1
  N  N506  1  0.567000  0.295500  0.836700  1
  N  N507  1  0.759100  0.647400  0.502100  1
  N  N508  1  0.240900  0.352600  0.497900  1
  N  N509  1  0.628300  0.644700  0.348700  1
  N  N510  1  0.371700  0.355300  0.651300  1
  N  N511  1  0.753000  0.084400  0.075900  1
  N  N512  1  0.247000  0.915600  0.924100  1
  N  N513  1  0.599400  0.993700  0.191700  1
  N  N514  1  0.400600  0.006300  0.808300  1
  N  N515  1  0.147200  0.570000  0.264700  1
  N  N516  1  0.852800  0.430000  0.735300  1
  N  N517  1  0.396600  0.763500  0.325300  1
  N  N518  1  0.603400  0.236500  0.674700  1
  N  N519  1  0.960200  0.822100  0.482100  1
  N  N520  1  0.039800  0.177900  0.517900  1
  N  N521  1  0.788600  0.916500  0.379800  1
  N  N522  1  0.211400  0.083500  0.620200  1
  N  N523  1  0.862800  0.182600  0.154500  1
  N  N524  1  0.137200  0.817400  0.845500  1
  N  N525  1  0.111600  0.709900  0.229100  1
  N  N526  1  0.888400  0.290100  0.770900  1
  N  N527  1  0.817200  0.813000  0.532100  1
  N  N528  1  0.182800  0.187000  0.467900  1
  N  N529  1  0.857100  0.989900  0.070200  1
  N  N530  1  0.142900  0.010100  0.929800  1
  N  N531  1  0.821400  0.862800  0.033700  1
  N  N532  1  0.178600  0.137200  0.966300  1
  N  N533  1  0.772500  0.664700  0.102400  1
  N  N534  1  0.227500  0.335300  0.897600  1
  N  N535  1  0.168400  0.516400  0.173300  1
  N  N536  1  0.831600  0.483600  0.826700  1
  N  N537  1  0.214300  0.419700  0.159200  1
  N  N538  1  0.785700  0.580300  0.840800  1
  N  N539  1  0.427400  0.428500  0.121300  1
  N  N540  1  0.572600  0.571500  0.878700  1
  N  N541  1  0.890900  0.652400  0.450400  1
  N  N542  1  0.109100  0.347600  0.549600  1
  N  N543  1  0.902800  0.581600  0.391300  1
  N  N544  1  0.097200  0.418400  0.608700  1
  N  N545  1  0.731400  0.480900  0.276100  1
  N  N546  1  0.268600  0.519100  0.723900  1
  O  O547  1  0.737900  0.841800  0.154300  1
  O  O548  1  0.262100  0.158200  0.845700  1
  O  O549  1  0.415000  0.607700  0.209300  1
  O  O550  1  0.585000  0.392300  0.790700  1
  O  O551  1  0.762400  0.682900  0.330900  1
  O  O552  1  0.237600  0.317100  0.669100  1
  O  O553  1  0.725700  0.030200  0.233000  1
  O  O554  1  0.274300  0.969800  0.767000  1
  O  O555  1  0.366300  0.838900  0.269900  1
  O  O556  1  0.633700  0.161100  0.730100  1
  O  O557  1  0.685600  0.858200  0.412600  1
  O  O558  1  0.314400  0.141800  0.587400  1
  O  O559  1  0.735800  0.138600  0.344600  1
  O  O560  1  0.264200  0.861400  0.655400  1
  O  O561  1  0.751200  0.111300  0.418600  1
  O  O562  1  0.248800  0.888700  0.581400  1
  O  O563  1  0.343300  0.050400  0.308900  1
  O  O564  1  0.656700  0.949600  0.691100  1
  O  O565  1  0.449300  0.103700  0.262000  1
  O  O566  1  0.550700  0.896300  0.738000  1
  O  O567  1  0.517900  0.903900  0.457500  1
  O  O568  1  0.482100  0.096100  0.542500  1
  O  O569  1  0.387200  0.908900  0.437700  1
  O  O570  1  0.612800  0.091100  0.562300  1
  O  O571  1  0.839300  0.680200  0.175400  1
  O  O572  1  0.160700  0.319800  0.824600  1
  O  O573  1  0.456500  0.549300  0.093100  1
  O  O574  1  0.543500  0.450700  0.906900  1
  O  O575  1  0.601900  0.459200  0.281300  1
  O  O576  1  0.398100  0.540800  0.718700  1
