# generated using pymatgen
data_H18PdC22S(NO2)2
_symmetry_space_group_name_H-M   'P 1'
_cell_length_a   10.73240000
_cell_length_b   11.64790000
_cell_length_c   15.39320000
_cell_angle_alpha   90.00000000
_cell_angle_beta   90.00000000
_cell_angle_gamma   96.98930000
_symmetry_Int_Tables_number   1
_chemical_formula_structural   H18PdC22S(NO2)2
_chemical_formula_sum   'H72 Pd4 C88 S4 N8 O16'
_cell_volume   1910.00303211
_cell_formula_units_Z   4
loop_
 _symmetry_equiv_pos_site_id
 _symmetry_equiv_pos_as_xyz
  1  'x, y, z'
loop_
 _atom_site_type_symbol
 _atom_site_label
 _atom_site_symmetry_multiplicity
 _atom_site_fract_x
 _atom_site_fract_y
 _atom_site_fract_z
 _atom_site_occupancy
  H  H1  1  0.497400  0.322300  0.111400  1
  H  H2  1  0.002600  0.177700  0.611400  1
  H  H3  1  0.502600  0.677700  0.888600  1
  H  H4  1  0.997400  0.822300  0.388600  1
  H  H5  1  0.439300  0.381000  0.029300  1
  H  H6  1  0.060700  0.119000  0.529300  1
  H  H7  1  0.560700  0.619000  0.970700  1
  H  H8  1  0.939300  0.881000  0.470700  1
  H  H9  1  0.588000  0.396500  0.044100  1
  H  H10  1  0.912000  0.103500  0.544100  1
  H  H11  1  0.412000  0.603500  0.955900  1
  H  H12  1  0.088000  0.896500  0.455900  1
  H  H13  1  0.364800  0.061900  0.994800  1
  H  H14  1  0.135200  0.438100  0.494800  1
  H  H15  1  0.635200  0.938100  0.005200  1
  H  H16  1  0.864800  0.561900  0.505200  1
  H  H17  1  0.304900  0.180400  0.984400  1
  H  H18  1  0.195100  0.319600  0.484400  1
  H  H19  1  0.695100  0.819600  0.015600  1
  H  H20  1  0.804900  0.680400  0.515600  1
  H  H21  1  0.356200  0.144800  0.076900  1
  H  H22  1  0.143800  0.355200  0.576900  1
  H  H23  1  0.643800  0.855200  0.923100  1
  H  H24  1  0.856200  0.644800  0.423100  1
  H  H25  1  0.656100  0.415400  0.578100  1.0
  H  H26  1  0.843900  0.084600  0.078100  1.0
  H  H27  1  0.343900  0.584600  0.421900  1.0
  H  H28  1  0.156100  0.915400  0.921900  1.0
  H  H29  1  0.439500  0.400000  0.563400  1.0
  H  H30  1  0.060500  0.100000  0.063400  1.0
  H  H31  1  0.560500  0.600000  0.436600  1.0
  H  H32  1  0.939500  0.900000  0.936600  1.0
  H  H33  1  0.313000  0.390300  0.688700  1.0
  H  H34  1  0.187000  0.109700  0.188700  1.0
  H  H35  1  0.687000  0.609700  0.311300  1.0
  H  H36  1  0.813000  0.890300  0.811300  1.0
  H  H37  1  0.836300  0.450500  0.657200  1.0
  H  H38  1  0.663700  0.049500  0.157200  1.0
  H  H39  1  0.163700  0.549500  0.342800  1.0
  H  H40  1  0.336300  0.950500  0.842800  1.0
  H  H41  1  0.022200  0.501900  0.638700  1.0
  H  H42  1  0.477800  0.998100  0.138700  1.0
  H  H43  1  0.977800  0.498100  0.361300  1.0
  H  H44  1  0.522200  0.001900  0.861300  1.0
  H  H45  1  0.230200  0.588500  0.632100  1.0
  H  H46  1  0.269800  0.911500  0.132100  1.0
  H  H47  1  0.769800  0.411500  0.367900  1.0
  H  H48  1  0.730200  0.088500  0.867900  1.0
  H  H49  1  0.328000  0.674700  0.755700  1.0
  H  H50  1  0.172000  0.825300  0.255700  1.0
  H  H51  1  0.672000  0.325300  0.244300  1.0
  H  H52  1  0.828000  0.174700  0.744300  1.0
  H  H53  1  0.218200  0.677700  0.886100  1.0
  H  H54  1  0.281800  0.822300  0.386100  1.0
  H  H55  1  0.781800  0.322300  0.113900  1.0
  H  H56  1  0.718200  0.177700  0.613900  1.0
  H  H57  1  0.093800  0.686600  0.987200  1.0
  H  H58  1  0.406200  0.813400  0.487200  1.0
  H  H59  1  0.906200  0.313400  0.012800  1.0
  H  H60  1  0.593800  0.186600  0.512800  1.0
  H  H61  1  0.739300  0.769000  0.241000  1.0
  H  H62  1  0.760700  0.731000  0.741000  1.0
  H  H63  1  0.260700  0.231000  0.759000  1.0
  H  H64  1  0.239300  0.269000  0.259000  1.0
  H  H65  1  0.951000  0.850100  0.224200  1.0
  H  H66  1  0.549000  0.649900  0.724200  1.0
  H  H67  1  0.049000  0.149900  0.775800  1.0
  H  H68  1  0.451000  0.350100  0.275800  1.0
  H  H69  1  0.068500  0.787900  0.111600  1.0
  H  H70  1  0.431500  0.712100  0.611600  1.0
  H  H71  1  0.931500  0.212100  0.888400  1.0
  H  H72  1  0.568500  0.287900  0.388400  1.0
  Pd  Pd73  1  0.802680  0.518660  0.893914  1.0
  Pd  Pd74  1  0.697320  0.981340  0.393914  1.0
  Pd  Pd75  1  0.197320  0.481340  0.106086  1.0
  Pd  Pd76  1  0.302680  0.018660  0.606086  1.0
  C  C77  1  0.510400  0.343300  0.050200  1
  C  C78  1  0.989600  0.156700  0.550200  1
  C  C79  1  0.489600  0.656700  0.949800  1
  C  C80  1  0.010400  0.843300  0.449800  1
  C  C81  1  0.369600  0.142500  0.014000  1
  C  C82  1  0.130400  0.357500  0.514000  1
  C  C83  1  0.630400  0.857500  0.986000  1
  C  C84  1  0.869600  0.642500  0.486000  1
  C  C85  1  0.453700  0.403700  0.776100  1.0
  C  C86  1  0.046300  0.096300  0.276100  1.0
  C  C87  1  0.546300  0.596300  0.223900  1.0
  C  C88  1  0.953700  0.903700  0.723900  1.0
  C  C89  1  0.586700  0.427000  0.788800  1.0
  C  C90  1  0.913300  0.073000  0.288800  1.0
  C  C91  1  0.413300  0.573000  0.211200  1.0
  C  C92  1  0.086700  0.927000  0.711200  1.0
  C  C93  1  0.661900  0.432100  0.711300  1.0
  C  C94  1  0.838100  0.067900  0.211300  1.0
  C  C95  1  0.338100  0.567900  0.288700  1.0
  C  C96  1  0.161900  0.932100  0.788700  1.0
  C  C97  1  0.604800  0.416900  0.628200  1.0
  C  C98  1  0.895200  0.083100  0.128200  1.0
  C  C99  1  0.395200  0.583100  0.371800  1.0
  C  C100  1  0.104800  0.916900  0.871800  1.0
  C  C101  1  0.476900  0.404400  0.619400  1.0
  C  C102  1  0.023100  0.095600  0.119400  1.0
  C  C103  1  0.523100  0.595600  0.380600  1.0
  C  C104  1  0.976900  0.904400  0.880600  1.0
  C  C105  1  0.401700  0.398400  0.694600  1.0
  C  C106  1  0.098300  0.101600  0.194600  1.0
  C  C107  1  0.598300  0.601600  0.305400  1.0
  C  C108  1  0.901700  0.898400  0.805400  1.0
  C  C109  1  0.794700  0.460600  0.710600  1.0
  C  C110  1  0.705300  0.039400  0.210600  1.0
  C  C111  1  0.205300  0.539400  0.289400  1.0
  C  C112  1  0.294700  0.960600  0.789400  1.0
  C  C113  1  0.995300  0.541700  0.766300  1.0
  C  C114  1  0.504700  0.958300  0.266300  1.0
  C  C115  1  0.004700  0.458300  0.233700  1.0
  C  C116  1  0.495300  0.041700  0.733700  1.0
  C  C117  1  0.061300  0.538400  0.688500  1.0
  C  C118  1  0.438700  0.961600  0.188500  1.0
  C  C119  1  0.938700  0.461600  0.311500  1.0
  C  C120  1  0.561300  0.038400  0.811500  1.0
  C  C121  1  0.184700  0.589000  0.685100  1.0
  C  C122  1  0.315300  0.911000  0.185100  1.0
  C  C123  1  0.815300  0.411000  0.314900  1.0
  C  C124  1  0.684700  0.089000  0.814900  1.0
  C  C125  1  0.243000  0.640800  0.758800  1.0
  C  C126  1  0.257000  0.859200  0.258800  1.0
  C  C127  1  0.757000  0.359200  0.241200  1.0
  C  C128  1  0.743000  0.140800  0.741200  1.0
  C  C129  1  0.178200  0.643100  0.835800  1.0
  C  C130  1  0.321800  0.856900  0.335800  1.0
  C  C131  1  0.821800  0.356900  0.164200  1.0
  C  C132  1  0.678200  0.143100  0.664200  1.0
  C  C133  1  0.052800  0.593700  0.839300  1.0
  C  C134  1  0.447200  0.906300  0.339300  1.0
  C  C135  1  0.947200  0.406300  0.160700  1.0
  C  C136  1  0.552800  0.093700  0.660700  1.0
  C  C137  1  0.008400  0.653700  0.984300  1.0
  C  C138  1  0.491600  0.846300  0.484300  1.0
  C  C139  1  0.991600  0.346300  0.015700  1.0
  C  C140  1  0.508400  0.153700  0.515700  1.0
  C  C141  1  0.931000  0.672200  0.057800  1.0
  C  C142  1  0.569000  0.827800  0.557800  1.0
  C  C143  1  0.069000  0.327800  0.942200  1.0
  C  C144  1  0.431000  0.172200  0.442200  1.0
  C  C145  1  0.805200  0.619500  0.068500  1.0
  C  C146  1  0.694800  0.880500  0.568500  1.0
  C  C147  1  0.194800  0.380500  0.931500  1.0
  C  C148  1  0.305200  0.119500  0.431500  1.0
  C  C149  1  0.738500  0.654300  0.142200  1.0
  C  C150  1  0.761500  0.845700  0.642200  1.0
  C  C151  1  0.261500  0.345700  0.857800  1.0
  C  C152  1  0.238500  0.154300  0.357800  1.0
  C  C153  1  0.789100  0.742000  0.196200  1.0
  C  C154  1  0.710900  0.758000  0.696200  1.0
  C  C155  1  0.210900  0.258000  0.803800  1.0
  C  C156  1  0.289100  0.242000  0.303800  1.0
  C  C157  1  0.914700  0.792100  0.185300  1.0
  C  C158  1  0.585300  0.707900  0.685300  1.0
  C  C159  1  0.085300  0.207900  0.814700  1.0
  C  C160  1  0.414700  0.292100  0.314700  1.0
  C  C161  1  0.983300  0.755900  0.118000  1.0
  C  C162  1  0.516700  0.744100  0.618000  1.0
  C  C163  1  0.016700  0.244100  0.882000  1.0
  C  C164  1  0.483300  0.255900  0.382000  1.0
  S  S165  1  0.522110  0.216870  0.988110  1
  S  S166  1  0.977890  0.283130  0.488110  1
  S  S167  1  0.477890  0.783130  0.011890  1
  S  S168  1  0.022110  0.716870  0.511890  1
  N  N169  1  0.864700  0.499000  0.775900  1.0
  N  N170  1  0.635300  0.001000  0.275900  1.0
  N  N171  1  0.135300  0.501000  0.224100  1.0
  N  N172  1  0.364700  0.999000  0.724100  1.0
  N  N173  1  0.973400  0.596200  0.914100  1.0
  N  N174  1  0.526600  0.903800  0.414100  1.0
  N  N175  1  0.026600  0.403800  0.085900  1.0
  N  N176  1  0.473400  0.096200  0.585900  1.0
  O  O177  1  0.615700  0.150600  0.034000  1
  O  O178  1  0.884300  0.349400  0.534000  1
  O  O179  1  0.384300  0.849400  0.966000  1
  O  O180  1  0.115700  0.650600  0.466000  1
  O  O181  1  0.628800  0.444100  0.867940  1.0
  O  O182  1  0.871200  0.055900  0.367940  1.0
  O  O183  1  0.371200  0.555900  0.132060  1.0
  O  O184  1  0.128800  0.944100  0.632060  1.0
  O  O185  1  0.745900  0.542900  0.015430  1.0
  O  O186  1  0.754100  0.957100  0.515430  1.0
  O  O187  1  0.254100  0.457100  0.984570  1.0
  O  O188  1  0.245900  0.042900  0.484570  1.0
  O  O189  1  0.615500  0.600200  0.147140  1.0
  O  O190  1  0.884500  0.899800  0.647140  1.0
  O  O191  1  0.384500  0.399800  0.852860  1.0
  O  O192  1  0.115500  0.100200  0.352860  1.0
