# generated using pymatgen
data_Fe8Cu6B16H332C176N120Cl4O55
_symmetry_space_group_name_H-M   'P 1'
_cell_length_a   16.20100000
_cell_length_b   17.15660000
_cell_length_c   21.23741871
_cell_angle_alpha   113.82370782
_cell_angle_beta   112.42202968
_cell_angle_gamma   90.00000000
_symmetry_Int_Tables_number   1
_chemical_formula_structural   Fe8Cu6B16H332C176N120Cl4O55
_chemical_formula_sum   'Fe8 Cu6 B16 H332 C176 N120 Cl4 O55'
_cell_volume   4908.25206164
_cell_formula_units_Z   1
loop_
 _symmetry_equiv_pos_site_id
 _symmetry_equiv_pos_as_xyz
  1  'x, y, z'
loop_
 _atom_site_type_symbol
 _atom_site_label
 _atom_site_symmetry_multiplicity
 _atom_site_fract_x
 _atom_site_fract_y
 _atom_site_fract_z
 _atom_site_occupancy
  B  B1  1  0.967200  0.327200  0.288400  1
  B  B2  1  0.032800  0.038800  0.711600  1
  B  B3  1  0.678800  0.672800  0.711600  1
  B  B4  1  0.321200  0.961200  0.288400  1
  B  B5  1  0.032800  0.672800  0.711600  1
  B  B6  1  0.967200  0.961200  0.288400  1
  B  B7  1  0.321200  0.327200  0.288400  1
  B  B8  1  0.678800  0.038800  0.711600  1
  B  B9  1  0.961700  0.343700  0.307400  1.0
  B  B10  1  0.038300  0.036300  0.692600  1.0
  B  B11  1  0.654300  0.656300  0.692600  1.0
  B  B12  1  0.345700  0.963700  0.307400  1.0
  B  B13  1  0.038300  0.656300  0.692600  1.0
  B  B14  1  0.961700  0.963700  0.307400  1.0
  B  B15  1  0.345700  0.343700  0.307400  1.0
  B  B16  1  0.654300  0.036300  0.692600  1.0
  C  C17  1  0.834700  0.227900  0.080800  1
  C  C18  1  0.165300  0.147100  0.919200  1
  C  C19  1  0.753900  0.772100  0.919200  1
  C  C20  1  0.246100  0.852900  0.080800  1
  C  C21  1  0.165300  0.772100  0.919200  1
  C  C22  1  0.834700  0.852900  0.080800  1
  C  C23  1  0.246100  0.227900  0.080800  1
  C  C24  1  0.753900  0.147100  0.919200  1
  C  C25  1  0.896400  0.169400  0.089800  1
  C  C26  1  0.103600  0.079600  0.910200  1
  C  C27  1  0.806600  0.830600  0.910200  1
  C  C28  1  0.193400  0.920400  0.089800  1
  C  C29  1  0.103600  0.830600  0.910200  1
  C  C30  1  0.896400  0.920400  0.089800  1
  C  C31  1  0.193400  0.169400  0.089800  1
  C  C32  1  0.806600  0.079600  0.910200  1
  C  C33  1  0.957700  0.202700  0.169800  1
  C  C34  1  0.042300  0.032900  0.830200  1
  C  C35  1  0.787900  0.797300  0.830200  1
  C  C36  1  0.212100  0.967100  0.169800  1
  C  C37  1  0.042300  0.797300  0.830200  1
  C  C38  1  0.957700  0.967100  0.169800  1
  C  C39  1  0.212100  0.202700  0.169800  1
  C  C40  1  0.787900  0.032900  0.830200  1
  C  C41  1  0.747500  0.375100  0.304000  1
  C  C42  1  0.252500  0.071100  0.696000  1
  C  C43  1  0.443500  0.624900  0.696000  1
  C  C44  1  0.556500  0.928900  0.304000  1
  C  C45  1  0.252500  0.624900  0.696000  1
  C  C46  1  0.747500  0.928900  0.304000  1
  C  C47  1  0.556500  0.375100  0.304000  1
  C  C48  1  0.443500  0.071100  0.696000  1
  C  C49  1  0.778600  0.349700  0.362000  1
  C  C50  1  0.221400  0.987700  0.638000  1
  C  C51  1  0.416600  0.650300  0.638000  1
  C  C52  1  0.583400  0.012300  0.362000  1
  C  C53  1  0.221400  0.650300  0.638000  1
  C  C54  1  0.778600  0.012300  0.362000  1
  C  C55  1  0.583400  0.349700  0.362000  1
  C  C56  1  0.416600  0.987700  0.638000  1
  C  C57  1  0.866600  0.325300  0.369800  1
  C  C58  1  0.133400  0.955500  0.630200  1
  C  C59  1  0.496800  0.674700  0.630200  1
  C  C60  1  0.503200  0.044500  0.369800  1
  C  C61  1  0.133400  0.674700  0.630200  1
  C  C62  1  0.866600  0.044500  0.369800  1
  C  C63  1  0.503200  0.325300  0.369800  1
  C  C64  1  0.496800  0.955500  0.630200  1
  C  C65  1  0.966000  0.544500  0.279000  1
  C  C66  1  0.034000  0.265500  0.721000  1
  C  C67  1  0.687000  0.455500  0.721000  1
  C  C68  1  0.313000  0.734500  0.279000  1
  C  C69  1  0.034000  0.455500  0.721000  1
  C  C70  1  0.966000  0.734500  0.279000  1
  C  C71  1  0.313000  0.544500  0.279000  1
  C  C72  1  0.687000  0.265500  0.721000  1
  C  C73  1  0.052900  0.561200  0.338400  1
  C  C74  1  0.947100  0.222800  0.661600  1
  C  C75  1  0.714500  0.438800  0.661600  1
  C  C76  1  0.285500  0.777200  0.338400  1
  C  C77  1  0.947100  0.438800  0.661600  1
  C  C78  1  0.052900  0.777200  0.338400  1
  C  C79  1  0.285500  0.561200  0.338400  1
  C  C80  1  0.714500  0.222800  0.661600  1
  C  C81  1  0.064500  0.487500  0.351000  1
  C  C82  1  0.935500  0.136500  0.649000  1
  C  C83  1  0.713500  0.512500  0.649000  1
  C  C84  1  0.286500  0.863500  0.351000  1
  C  C85  1  0.935500  0.512500  0.649000  1
  C  C86  1  0.064500  0.863500  0.351000  1
  C  C87  1  0.286500  0.487500  0.351000  1
  C  C88  1  0.713500  0.136500  0.649000  1
  C  C89  1  0.929500  0.504700  0.859000  1.0
  C  C90  1  0.070500  0.645700  0.141000  1.0
  C  C91  1  0.070500  0.495300  0.141000  1.0
  C  C92  1  0.929500  0.354300  0.859000  1.0
  C  C93  1  0.909700  0.562900  0.819400  1.0
  C  C94  1  0.090300  0.743500  0.180600  1.0
  C  C95  1  0.090300  0.437100  0.180600  1.0
  C  C96  1  0.909700  0.256500  0.819400  1.0
  C  C97  1  0.696910  0.322810  0.122620  1.0
  C  C98  1  0.303090  0.200190  0.877380  1.0
  C  C99  1  0.574290  0.677190  0.877380  1.0
  C  C100  1  0.425710  0.799810  0.122620  1.0
  C  C101  1  0.303090  0.677190  0.877380  1.0
  C  C102  1  0.696910  0.799810  0.122620  1.0
  C  C103  1  0.425710  0.322810  0.122620  1.0
  C  C104  1  0.574290  0.200190  0.877380  1.0
  C  C105  1  0.744140  0.486740  0.226280  1.0
  C  C106  1  0.255860  0.260460  0.773720  1.0
  C  C107  1  0.517860  0.513260  0.773720  1.0
  C  C108  1  0.482140  0.739540  0.226280  1.0
  C  C109  1  0.255860  0.513260  0.773720  1.0
  C  C110  1  0.744140  0.739540  0.226280  1.0
  C  C111  1  0.482140  0.486740  0.226280  1.0
  C  C112  1  0.517860  0.260460  0.773720  1.0
  C  C113  1  0.806600  0.435500  0.121200  1.0
  C  C114  1  0.193400  0.314300  0.878800  1.0
  C  C115  1  0.685400  0.564500  0.878800  1.0
  C  C116  1  0.314600  0.685700  0.121200  1.0
  C  C117  1  0.193400  0.564500  0.878800  1.0
  C  C118  1  0.806600  0.685700  0.121200  1.0
  C  C119  1  0.314600  0.435500  0.121200  1.0
  C  C120  1  0.685400  0.314300  0.878800  1.0
  C  C121  1  0.874100  0.266800  0.087200  1.0
  C  C122  1  0.125900  0.179600  0.912800  1.0
  C  C123  1  0.786900  0.733200  0.912800  1.0
  C  C124  1  0.213100  0.820400  0.087200  1.0
  C  C125  1  0.125900  0.733200  0.912800  1.0
  C  C126  1  0.874100  0.820400  0.087200  1.0
  C  C127  1  0.213100  0.266800  0.087200  1.0
  C  C128  1  0.786900  0.179600  0.912800  1.0
  C  C129  1  0.946200  0.219800  0.097800  1.0
  C  C130  1  0.053800  0.122000  0.902200  1.0
  C  C131  1  0.848400  0.780200  0.902200  1.0
  C  C132  1  0.151600  0.878000  0.097800  1.0
  C  C133  1  0.053800  0.780200  0.902200  1.0
  C  C134  1  0.946200  0.878000  0.097800  1.0
  C  C135  1  0.151600  0.219800  0.097800  1.0
  C  C136  1  0.848400  0.122000  0.902200  1.0
  C  C137  1  0.984300  0.238500  0.174000  1.0
  C  C138  1  0.015700  0.064500  0.826000  1.0
  C  C139  1  0.810300  0.761500  0.826000  1.0
  C  C140  1  0.189700  0.935500  0.174000  1.0
  C  C141  1  0.015700  0.761500  0.826000  1.0
  C  C142  1  0.984300  0.935500  0.174000  1.0
  C  C143  1  0.189700  0.238500  0.174000  1.0
  C  C144  1  0.810300  0.064500  0.826000  1.0
  C  C145  1  0.704200  0.329600  0.258800  1.0
  C  C146  1  0.295800  0.070800  0.741200  1.0
  C  C147  1  0.445400  0.670400  0.741200  1.0
  C  C148  1  0.554600  0.929200  0.258800  1.0
  C  C149  1  0.295800  0.670400  0.741200  1.0
  C  C150  1  0.704200  0.929200  0.258800  1.0
  C  C151  1  0.554600  0.329600  0.258800  1.0
  C  C152  1  0.445400  0.070800  0.741200  1.0
  C  C153  1  0.734600  0.297000  0.314600  1.0
  C  C154  1  0.265400  0.982400  0.685400  1.0
  C  C155  1  0.420000  0.703000  0.685400  1.0
  C  C156  1  0.580000  0.017600  0.314600  1.0
  C  C157  1  0.265400  0.703000  0.685400  1.0
  C  C158  1  0.734600  0.017600  0.314600  1.0
  C  C159  1  0.580000  0.297000  0.314600  1.0
  C  C160  1  0.420000  0.982400  0.685400  1.0
  C  C161  1  0.828900  0.300100  0.338400  1.0
  C  C162  1  0.171100  0.961700  0.661600  1.0
  C  C163  1  0.490500  0.699900  0.661600  1.0
  C  C164  1  0.509500  0.038300  0.338400  1.0
  C  C165  1  0.171100  0.699900  0.661600  1.0
  C  C166  1  0.828900  0.038300  0.338400  1.0
  C  C167  1  0.509500  0.300100  0.338400  1.0
  C  C168  1  0.490500  0.961700  0.661600  1.0
  C  C169  1  0.942600  0.563700  0.310800  1.0
  C  C170  1  0.057400  0.252900  0.689200  1.0
  C  C171  1  0.631800  0.436300  0.689200  1.0
  C  C172  1  0.368200  0.747100  0.310800  1.0
  C  C173  1  0.057400  0.436300  0.689200  1.0
  C  C174  1  0.942600  0.747100  0.310800  1.0
  C  C175  1  0.368200  0.563700  0.310800  1.0
  C  C176  1  0.631800  0.252900  0.689200  1.0
  C  C177  1  0.025000  0.582900  0.372800  1.0
  C  C178  1  0.975000  0.210100  0.627200  1.0
  C  C179  1  0.652200  0.417100  0.627200  1.0
  C  C180  1  0.347800  0.789900  0.372800  1.0
  C  C181  1  0.975000  0.417100  0.627200  1.0
  C  C182  1  0.025000  0.789900  0.372800  1.0
  C  C183  1  0.347800  0.582900  0.372800  1.0
  C  C184  1  0.652200  0.210100  0.627200  1.0
  C  C185  1  0.047800  0.500800  0.371600  1.0
  C  C186  1  0.952200  0.129200  0.628400  1.0
  C  C187  1  0.676200  0.499200  0.628400  1.0
  C  C188  1  0.323800  0.870800  0.371600  1.0
  C  C189  1  0.952200  0.499200  0.628400  1.0
  C  C190  1  0.047800  0.870800  0.371600  1.0
  C  C191  1  0.323800  0.500800  0.371600  1.0
  C  C192  1  0.676200  0.129200  0.628400  1.0
  Cl  Cl193  1  0.740570  0.240570  0.481140  1
  Cl  Cl194  1  0.259430  0.759430  0.518860  1
  Cl  Cl195  1  0.174320  0.174320  0.348640  1
  Cl  Cl196  1  0.825680  0.825680  0.651360  1
  Cu  Cu197  1  0.628580  0.628580  0.257160  1.0
  Cu  Cu198  1  0.371420  0.371420  0.742840  1.0
  Cu  Cu199  1  0.765000  0.500000  0.000000  1.0
  Cu  Cu200  1  0.235000  0.500000  0.000000  1.0
  Cu  Cu201  1  0.500000  0.229590  0.000000  1.0
  Cu  Cu202  1  0.500000  0.770410  0.000000  1.0
  Fe  Fe203  1  0.809040  0.395200  0.194900  1.0
  Fe  Fe204  1  0.190960  0.200300  0.805100  1.0
  Fe  Fe205  1  0.614140  0.604800  0.805100  1.0
  Fe  Fe206  1  0.385860  0.799700  0.194900  1.0
  Fe  Fe207  1  0.190960  0.604800  0.805100  1.0
  Fe  Fe208  1  0.809040  0.799700  0.194900  1.0
  Fe  Fe209  1  0.385860  0.395200  0.194900  1.0
  Fe  Fe210  1  0.614140  0.200300  0.805100  1.0
  H  H211  1  0.071700  0.322900  0.494000  1
  H  H212  1  0.928300  0.828900  0.506000  1
  H  H213  1  0.577700  0.677100  0.506000  1
  H  H214  1  0.422300  0.171100  0.494000  1
  H  H215  1  0.928300  0.677100  0.506000  1
  H  H216  1  0.071700  0.171100  0.494000  1
  H  H217  1  0.422300  0.322900  0.494000  1
  H  H218  1  0.577700  0.828900  0.506000  1
  H  H219  1  0.985700  0.296500  0.485800  1
  H  H220  1  0.014300  0.810700  0.514200  1
  H  H221  1  0.499900  0.703500  0.514200  1
  H  H222  1  0.500100  0.189300  0.485800  1
  H  H223  1  0.014300  0.703500  0.514200  1
  H  H224  1  0.985700  0.189300  0.485800  1
  H  H225  1  0.500100  0.296500  0.485800  1
  H  H226  1  0.499900  0.810700  0.514200  1
  H  H227  1  0.740800  0.719800  0.395000  1
  H  H228  1  0.259200  0.324800  0.605000  1
  H  H229  1  0.345800  0.280200  0.605000  1
  H  H230  1  0.654200  0.675200  0.395000  1
  H  H231  1  0.259200  0.280200  0.605000  1
  H  H232  1  0.740800  0.675200  0.395000  1
  H  H233  1  0.654200  0.719800  0.395000  1
  H  H234  1  0.345800  0.324800  0.605000  1
  H  H235  1  0.900300  0.457300  0.960600  1
  H  H236  1  0.099700  0.496700  0.039400  1
  H  H237  1  0.939700  0.542700  0.039400  1
  H  H238  1  0.060300  0.503300  0.960600  1
  H  H239  1  0.099700  0.542700  0.039400  1
  H  H240  1  0.900300  0.503300  0.960600  1
  H  H241  1  0.060300  0.457300  0.960600  1
  H  H242  1  0.939700  0.496700  0.039400  1
  H  H243  1  0.465300  0.062900  0.949600  1
  H  H244  1  0.534700  0.113300  0.050400  1
  H  H245  1  0.515700  0.937100  0.050400  1
  H  H246  1  0.484300  0.886700  0.949600  1
  H  H247  1  0.534700  0.937100  0.050400  1
  H  H248  1  0.465300  0.886700  0.949600  1
  H  H249  1  0.484300  0.062900  0.949600  1
  H  H250  1  0.515700  0.113300  0.050400  1
  H  H251  1  0.473500  0.104500  0.032800  1
  H  H252  1  0.526500  0.071700  0.967200  1
  H  H253  1  0.440700  0.895500  0.967200  1
  H  H254  1  0.559300  0.928300  0.032800  1
  H  H255  1  0.526500  0.895500  0.967200  1
  H  H256  1  0.473500  0.928300  0.032800  1
  H  H257  1  0.559300  0.104500  0.032800  1
  H  H258  1  0.440700  0.071700  0.967200  1
  H  H259  1  0.017800  0.307100  0.317000  1
  H  H260  1  0.982200  0.990100  0.683000  1
  H  H261  1  0.700800  0.692900  0.683000  1
  H  H262  1  0.299200  0.009900  0.317000  1
  H  H263  1  0.982200  0.692900  0.683000  1
  H  H264  1  0.017800  0.009900  0.317000  1
  H  H265  1  0.299200  0.307100  0.317000  1
  H  H266  1  0.700800  0.990100  0.683000  1
  H  H267  1  0.791700  0.224200  0.035200  1
  H  H268  1  0.208300  0.189000  0.964800  1
  H  H269  1  0.756500  0.775800  0.964800  1
  H  H270  1  0.243500  0.811000  0.035200  1
  H  H271  1  0.208300  0.775800  0.964800  1
  H  H272  1  0.791700  0.811000  0.035200  1
  H  H273  1  0.243500  0.224200  0.035200  1
  H  H274  1  0.756500  0.189000  0.964800  1
  H  H275  1  0.897300  0.118700  0.051000  1
  H  H276  1  0.102700  0.067700  0.949000  1
  H  H277  1  0.846300  0.881300  0.949000  1
  H  H278  1  0.153700  0.932300  0.051000  1
  H  H279  1  0.102700  0.881300  0.949000  1
  H  H280  1  0.897300  0.932300  0.051000  1
  H  H281  1  0.153700  0.118700  0.051000  1
  H  H282  1  0.846300  0.067700  0.949000  1
  H  H283  1  0.003500  0.178900  0.194200  1
  H  H284  1  0.996500  0.984700  0.805800  1
  H  H285  1  0.809300  0.821100  0.805800  1
  H  H286  1  0.190700  0.015300  0.194200  1
  H  H287  1  0.996500  0.821100  0.805800  1
  H  H288  1  0.003500  0.015300  0.194200  1
  H  H289  1  0.190700  0.178900  0.194200  1
  H  H290  1  0.809300  0.984700  0.805800  1
  H  H291  1  0.691800  0.392000  0.287200  1
  H  H292  1  0.308200  0.104800  0.712800  1
  H  H293  1  0.404600  0.608000  0.712800  1
  H  H294  1  0.595400  0.895200  0.287200  1
  H  H295  1  0.308200  0.608000  0.712800  1
  H  H296  1  0.691800  0.895200  0.287200  1
  H  H297  1  0.595400  0.392000  0.287200  1
  H  H298  1  0.404600  0.104800  0.712800  1
  H  H299  1  0.748400  0.348500  0.391200  1
  H  H300  1  0.251600  0.957300  0.608800  1
  H  H301  1  0.357200  0.651500  0.608800  1
  H  H302  1  0.642800  0.042700  0.391200  1
  H  H303  1  0.251600  0.651500  0.608800  1
  H  H304  1  0.748400  0.042700  0.391200  1
  H  H305  1  0.642800  0.348500  0.391200  1
  H  H306  1  0.357200  0.957300  0.608800  1
  H  H307  1  0.902100  0.302600  0.402000  1
  H  H308  1  0.097900  0.900600  0.598000  1
  H  H309  1  0.500100  0.697400  0.598000  1
  H  H310  1  0.499900  0.099400  0.402000  1
  H  H311  1  0.097900  0.697400  0.598000  1
  H  H312  1  0.902100  0.099400  0.402000  1
  H  H313  1  0.499900  0.302600  0.402000  1
  H  H314  1  0.500100  0.900600  0.598000  1
  H  H315  1  0.942300  0.581700  0.257600  1
  H  H316  1  0.057700  0.324100  0.742400  1
  H  H317  1  0.684700  0.418300  0.742400  1
  H  H318  1  0.315300  0.675900  0.257600  1
  H  H319  1  0.057700  0.418300  0.742400  1
  H  H320  1  0.942300  0.675900  0.257600  1
  H  H321  1  0.315300  0.581700  0.257600  1
  H  H322  1  0.684700  0.324100  0.742400  1
  H  H323  1  0.094800  0.612600  0.364600  1
  H  H324  1  0.905200  0.248000  0.635400  1
  H  H325  1  0.730200  0.387400  0.635400  1
  H  H326  1  0.269800  0.752000  0.364600  1
  H  H327  1  0.905200  0.387400  0.635400  1
  H  H328  1  0.094800  0.752000  0.364600  1
  H  H329  1  0.269800  0.612600  0.364600  1
  H  H330  1  0.730200  0.248000  0.635400  1
  H  H331  1  0.117800  0.478800  0.383800  1
  H  H332  1  0.882200  0.095000  0.616200  1
  H  H333  1  0.734000  0.521200  0.616200  1
  H  H334  1  0.266000  0.905000  0.383800  1
  H  H335  1  0.882200  0.521200  0.616200  1
  H  H336  1  0.117800  0.905000  0.383800  1
  H  H337  1  0.266000  0.478800  0.383800  1
  H  H338  1  0.734000  0.095000  0.616200  1
  H  H339  1  0.886500  0.611100  0.845600  1
  H  H340  1  0.113500  0.765500  0.154400  1
  H  H341  1  0.040900  0.388900  0.154400  1
  H  H342  1  0.959100  0.234500  0.845600  1
  H  H343  1  0.113500  0.388900  0.154400  1
  H  H344  1  0.886500  0.234500  0.845600  1
  H  H345  1  0.959100  0.611100  0.845600  1
  H  H346  1  0.040900  0.765500  0.154400  1
  H  H347  1  0.865400  0.530700  0.768200  1
  H  H348  1  0.134600  0.762500  0.231800  1
  H  H349  1  0.097200  0.469300  0.231800  1
  H  H350  1  0.902800  0.237500  0.768200  1
  H  H351  1  0.134600  0.469300  0.231800  1
  H  H352  1  0.865400  0.237500  0.768200  1
  H  H353  1  0.902800  0.530700  0.768200  1
  H  H354  1  0.097200  0.762500  0.231800  1
  H  H355  1  0.964600  0.583800  0.819400  1
  H  H356  1  0.035400  0.764400  0.180600  1
  H  H357  1  0.145200  0.416200  0.180600  1
  H  H358  1  0.854800  0.235600  0.819400  1
  H  H359  1  0.035400  0.416200  0.180600  1
  H  H360  1  0.964600  0.235600  0.819400  1
  H  H361  1  0.854800  0.583800  0.819400  1
  H  H362  1  0.145200  0.764400  0.180600  1
  H  H363  1  0.295200  0.476400  0.539600  1
  H  H364  1  0.704800  0.936800  0.460400  1
  H  H365  1  0.755600  0.523600  0.460400  1
  H  H366  1  0.244400  0.063200  0.539600  1
  H  H367  1  0.704800  0.523600  0.460400  1
  H  H368  1  0.295200  0.063200  0.539600  1
  H  H369  1  0.244400  0.476400  0.539600  1
  H  H370  1  0.755600  0.936800  0.460400  1
  H  H371  1  0.549800  0.519600  0.039200  1
  H  H372  1  0.450200  0.480400  0.960800  1
  H  H373  1  0.510600  0.480400  0.960800  1
  H  H374  1  0.489400  0.519600  0.039200  1
  H  H375  1  0.505000  0.522300  0.972200  1
  H  H376  1  0.495000  0.550100  0.027800  1
  H  H377  1  0.532800  0.477700  0.027800  1
  H  H378  1  0.467200  0.449900  0.972200  1
  H  H379  1  0.495000  0.477700  0.027800  1
  H  H380  1  0.505000  0.449900  0.972200  1
  H  H381  1  0.467200  0.522300  0.972200  1
  H  H382  1  0.532800  0.550100  0.027800  1
  H  H383  1  0.077800  0.011600  0.070000  1
  H  H384  1  0.922200  0.941600  0.930000  1
  H  H385  1  0.007800  0.988400  0.930000  1
  H  H386  1  0.992200  0.058400  0.070000  1
  H  H387  1  0.922200  0.988400  0.930000  1
  H  H388  1  0.077800  0.058400  0.070000  1
  H  H389  1  0.992200  0.011600  0.070000  1
  H  H390  1  0.007800  0.941600  0.930000  1
  H  H391  1  0.600400  0.059900  0.119800  1
  H  H392  1  0.399600  0.940100  0.880200  1
  H  H393  1  0.480600  0.940100  0.880200  1
  H  H394  1  0.519400  0.059900  0.119800  1
  H  H395  1  0.675700  0.081300  0.187600  1
  H  H396  1  0.324300  0.893700  0.812400  1
  H  H397  1  0.488100  0.918700  0.812400  1
  H  H398  1  0.511900  0.106300  0.187600  1
  H  H399  1  0.324300  0.918700  0.812400  1
  H  H400  1  0.675700  0.106300  0.187600  1
  H  H401  1  0.511900  0.081300  0.187600  1
  H  H402  1  0.488100  0.893700  0.812400  1
  H  H403  1  0.324200  0.943500  0.030600  1
  H  H404  1  0.675800  0.912900  0.969400  1
  H  H405  1  0.293600  0.056500  0.969400  1
  H  H406  1  0.706400  0.087100  0.030600  1
  H  H407  1  0.675800  0.056500  0.969400  1
  H  H408  1  0.324200  0.087100  0.030600  1
  H  H409  1  0.706400  0.943500  0.030600  1
  H  H410  1  0.293600  0.912900  0.969400  1
  H  H411  1  0.388800  0.979200  0.017000  1
  H  H412  1  0.611200  0.962200  0.983000  1
  H  H413  1  0.371800  0.020800  0.983000  1
  H  H414  1  0.628200  0.037800  0.017000  1
  H  H415  1  0.611200  0.020800  0.983000  1
  H  H416  1  0.388800  0.037800  0.017000  1
  H  H417  1  0.628200  0.979200  0.017000  1
  H  H418  1  0.371800  0.962200  0.983000  1
  H  H419  1  0.991900  0.187000  0.335400  1
  H  H420  1  0.008100  0.851600  0.664600  1
  H  H421  1  0.656500  0.813000  0.664600  1
  H  H422  1  0.343500  0.148400  0.335400  1
  H  H423  1  0.008100  0.813000  0.664600  1
  H  H424  1  0.991900  0.148400  0.335400  1
  H  H425  1  0.343500  0.187000  0.335400  1
  H  H426  1  0.656500  0.851600  0.664600  1
  H  H427  1  0.287900  0.387000  0.506200  1.0
  H  H428  1  0.712100  0.880800  0.493800  1.0
  H  H429  1  0.781700  0.613000  0.493800  1.0
  H  H430  1  0.218300  0.119200  0.506200  1.0
  H  H431  1  0.712100  0.613000  0.493800  1.0
  H  H432  1  0.287900  0.119200  0.506200  1.0
  H  H433  1  0.218300  0.387000  0.506200  1.0
  H  H434  1  0.781700  0.880800  0.493800  1.0
  H  H435  1  0.035000  0.081700  0.070000  1.0
  H  H436  1  0.965000  0.011700  0.930000  1.0
  H  H437  1  0.965000  0.918300  0.930000  1.0
  H  H438  1  0.035000  0.988300  0.070000  1.0
  H  H439  1  0.929200  0.165100  0.261800  1.0
  H  H440  1  0.070800  0.903300  0.738200  1.0
  H  H441  1  0.667400  0.834900  0.738200  1.0
  H  H442  1  0.332600  0.096700  0.261800  1.0
  H  H443  1  0.070800  0.834900  0.738200  1.0
  H  H444  1  0.929200  0.096700  0.261800  1.0
  H  H445  1  0.332600  0.165100  0.261800  1.0
  H  H446  1  0.667400  0.903300  0.738200  1.0
  H  H447  1  0.697500  0.650900  0.395000  1.0
  H  H448  1  0.302500  0.255900  0.605000  1.0
  H  H449  1  0.302500  0.349100  0.605000  1.0
  H  H450  1  0.697500  0.744100  0.395000  1.0
  H  H451  1  0.920000  0.546600  1.000000  1.0
  H  H452  1  0.080000  0.546600  0.000000  1.0
  H  H453  1  0.920000  0.453400  1.000000  1.0
  H  H454  1  0.080000  0.453400  0.000000  1.0
  H  H455  1  0.993800  0.522800  0.892200  1.0
  H  H456  1  0.006200  0.630600  0.107800  1.0
  H  H457  1  0.101600  0.477200  0.107800  1.0
  H  H458  1  0.898400  0.369400  0.892200  1.0
  H  H459  1  0.006200  0.477200  0.107800  1.0
  H  H460  1  0.993800  0.369400  0.892200  1.0
  H  H461  1  0.898400  0.522800  0.892200  1.0
  H  H462  1  0.101600  0.630600  0.107800  1.0
  H  H463  1  0.009400  0.328100  0.343000  1.0
  H  H464  1  0.990600  0.985100  0.657000  1.0
  H  H465  1  0.666400  0.671900  0.657000  1.0
  H  H466  1  0.333600  0.014900  0.343000  1.0
  H  H467  1  0.990600  0.671900  0.657000  1.0
  H  H468  1  0.009400  0.014900  0.343000  1.0
  H  H469  1  0.333600  0.328100  0.343000  1.0
  H  H470  1  0.666400  0.985100  0.657000  1.0
  H  H471  1  0.837500  0.268400  0.042000  1.0
  H  H472  1  0.162500  0.226400  0.958000  1.0
  H  H473  1  0.795500  0.731600  0.958000  1.0
  H  H474  1  0.204500  0.773600  0.042000  1.0
  H  H475  1  0.162500  0.731600  0.958000  1.0
  H  H476  1  0.837500  0.773600  0.042000  1.0
  H  H477  1  0.204500  0.268400  0.042000  1.0
  H  H478  1  0.795500  0.226400  0.958000  1.0
  H  H479  1  0.964100  0.183600  0.060800  1.0
  H  H480  1  0.035900  0.122800  0.939200  1.0
  H  H481  1  0.903300  0.816400  0.939200  1.0
  H  H482  1  0.096700  0.877200  0.060800  1.0
  H  H483  1  0.035900  0.816400  0.939200  1.0
  H  H484  1  0.964100  0.877200  0.060800  1.0
  H  H485  1  0.096700  0.183600  0.060800  1.0
  H  H486  1  0.903300  0.122800  0.939200  1.0
  H  H487  1  0.035800  0.218100  0.195400  1.0
  H  H488  1  0.964200  0.022700  0.804600  1.0
  H  H489  1  0.840400  0.781900  0.804600  1.0
  H  H490  1  0.159600  0.977300  0.195400  1.0
  H  H491  1  0.964200  0.781900  0.804600  1.0
  H  H492  1  0.035800  0.977300  0.195400  1.0
  H  H493  1  0.159600  0.218100  0.195400  1.0
  H  H494  1  0.840400  0.022700  0.804600  1.0
  H  H495  1  0.645100  0.335200  0.233800  1.0
  H  H496  1  0.354900  0.101400  0.766200  1.0
  H  H497  1  0.411300  0.664800  0.766200  1.0
  H  H498  1  0.588700  0.898600  0.233800  1.0
  H  H499  1  0.354900  0.664800  0.766200  1.0
  H  H500  1  0.645100  0.898600  0.233800  1.0
  H  H501  1  0.588700  0.335200  0.233800  1.0
  H  H502  1  0.411300  0.101400  0.766200  1.0
  H  H503  1  0.698400  0.277300  0.332200  1.0
  H  H504  1  0.301600  0.945100  0.667800  1.0
  H  H505  1  0.366200  0.722700  0.667800  1.0
  H  H506  1  0.633800  0.054900  0.332200  1.0
  H  H507  1  0.301600  0.722700  0.667800  1.0
  H  H508  1  0.698400  0.054900  0.332200  1.0
  H  H509  1  0.633800  0.277300  0.332200  1.0
  H  H510  1  0.366200  0.945100  0.667800  1.0
  H  H511  1  0.865200  0.284200  0.375600  1.0
  H  H512  1  0.134800  0.908600  0.624400  1.0
  H  H513  1  0.489600  0.715800  0.624400  1.0
  H  H514  1  0.510400  0.091400  0.375600  1.0
  H  H515  1  0.134800  0.715800  0.624400  1.0
  H  H516  1  0.865200  0.091400  0.375600  1.0
  H  H517  1  0.510400  0.284200  0.375600  1.0
  H  H518  1  0.489600  0.908600  0.624400  1.0
  H  H519  1  0.912600  0.604500  0.297200  1.0
  H  H520  1  0.087400  0.307300  0.702800  1.0
  H  H521  1  0.615400  0.395500  0.702800  1.0
  H  H522  1  0.384600  0.692700  0.297200  1.0
  H  H523  1  0.087400  0.395500  0.702800  1.0
  H  H524  1  0.912600  0.692700  0.297200  1.0
  H  H525  1  0.384600  0.604500  0.297200  1.0
  H  H526  1  0.615400  0.307300  0.702800  1.0
  H  H527  1  0.058900  0.637800  0.408200  1.0
  H  H528  1  0.941100  0.229600  0.591800  1.0
  H  H529  1  0.650700  0.362200  0.591800  1.0
  H  H530  1  0.349300  0.770400  0.408200  1.0
  H  H531  1  0.941100  0.362200  0.591800  1.0
  H  H532  1  0.058900  0.770400  0.408200  1.0
  H  H533  1  0.349300  0.637800  0.408200  1.0
  H  H534  1  0.650700  0.229600  0.591800  1.0
  H  H535  1  0.099600  0.493300  0.406000  1.0
  H  H536  1  0.900400  0.087300  0.594000  1.0
  H  H537  1  0.693600  0.506700  0.594000  1.0
  H  H538  1  0.306400  0.912700  0.406000  1.0
  H  H539  1  0.900400  0.506700  0.594000  1.0
  H  H540  1  0.099600  0.912700  0.406000  1.0
  H  H541  1  0.306400  0.493300  0.406000  1.0
  H  H542  1  0.693600  0.087300  0.594000  1.0
  N  N543  1  0.928500  0.279500  0.199000  1
  N  N544  1  0.071500  0.080500  0.801000  1
  N  N545  1  0.729500  0.720500  0.801000  1
  N  N546  1  0.270500  0.919500  0.199000  1
  N  N547  1  0.071500  0.720500  0.801000  1
  N  N548  1  0.928500  0.919500  0.199000  1
  N  N549  1  0.270500  0.279500  0.199000  1
  N  N550  1  0.729500  0.080500  0.801000  1
  N  N551  1  0.852000  0.297000  0.160000  1
  N  N552  1  0.148000  0.137000  0.840000  1
  N  N553  1  0.692000  0.703000  0.840000  1
  N  N554  1  0.308000  0.863000  0.160000  1
  N  N555  1  0.148000  0.703000  0.840000  1
  N  N556  1  0.852000  0.863000  0.160000  1
  N  N557  1  0.308000  0.297000  0.160000  1
  N  N558  1  0.692000  0.137000  0.840000  1
  N  N559  1  0.887300  0.345300  0.314600  1
  N  N560  1  0.112700  0.030700  0.685400  1
  N  N561  1  0.572700  0.654700  0.685400  1
  N  N562  1  0.427300  0.969300  0.314600  1
  N  N563  1  0.112700  0.654700  0.685400  1
  N  N564  1  0.887300  0.969300  0.314600  1
  N  N565  1  0.427300  0.345300  0.314600  1
  N  N566  1  0.572700  0.030700  0.685400  1
  N  N567  1  0.813100  0.371100  0.274200  1
  N  N568  1  0.186900  0.096900  0.725800  1
  N  N569  1  0.538900  0.628900  0.725800  1
  N  N570  1  0.461100  0.903100  0.274200  1
  N  N571  1  0.186900  0.628900  0.725800  1
  N  N572  1  0.813100  0.903100  0.274200  1
  N  N573  1  0.461100  0.371100  0.274200  1
  N  N574  1  0.538900  0.096900  0.725800  1
  N  N575  1  0.982800  0.427800  0.305600  1
  N  N576  1  0.017200  0.122200  0.694400  1
  N  N577  1  0.677200  0.572200  0.694400  1
  N  N578  1  0.322800  0.877800  0.305600  1
  N  N579  1  0.017200  0.572200  0.694400  1
  N  N580  1  0.982800  0.877800  0.305600  1
  N  N581  1  0.322800  0.427800  0.305600  1
  N  N582  1  0.677200  0.122200  0.694400  1
  N  N583  1  0.920700  0.457700  0.257400  1
  N  N584  1  0.079300  0.200300  0.742600  1
  N  N585  1  0.663300  0.542300  0.742600  1
  N  N586  1  0.336700  0.799700  0.257400  1
  N  N587  1  0.079300  0.542300  0.742600  1
  N  N588  1  0.920700  0.799700  0.257400  1
  N  N589  1  0.336700  0.457700  0.257400  1
  N  N590  1  0.663300  0.200300  0.742600  1
  N  N591  1  0.623610  0.284710  0.079620  1.0
  N  N592  1  0.376390  0.205090  0.920380  1.0
  N  N593  1  0.543990  0.715290  0.920380  1.0
  N  N594  1  0.456010  0.794910  0.079620  1.0
  N  N595  1  0.376390  0.715290  0.920380  1.0
  N  N596  1  0.623610  0.794910  0.079620  1.0
  N  N597  1  0.456010  0.284710  0.079620  1.0
  N  N598  1  0.543990  0.205090  0.920380  1.0
  N  N599  1  0.703460  0.539960  0.238720  1.0
  N  N600  1  0.296540  0.301240  0.761280  1.0
  N  N601  1  0.464740  0.460040  0.761280  1.0
  N  N602  1  0.535260  0.698760  0.238720  1.0
  N  N603  1  0.296540  0.460040  0.761280  1.0
  N  N604  1  0.703460  0.698760  0.238720  1.0
  N  N605  1  0.535260  0.539960  0.238720  1.0
  N  N606  1  0.464740  0.301240  0.761280  1.0
  N  N607  1  0.798870  0.459070  0.079340  1.0
  N  N608  1  0.201130  0.379730  0.920660  1.0
  N  N609  1  0.719530  0.540930  0.920660  1.0
  N  N610  1  0.280470  0.620270  0.079340  1.0
  N  N611  1  0.201130  0.540930  0.920660  1.0
  N  N612  1  0.798870  0.620270  0.079340  1.0
  N  N613  1  0.280470  0.459070  0.079340  1.0
  N  N614  1  0.719530  0.379730  0.920660  1.0
  N  N615  1  0.937600  0.293600  0.219200  1.0
  N  N616  1  0.062400  0.074400  0.780800  1.0
  N  N617  1  0.718400  0.706400  0.780800  1.0
  N  N618  1  0.281600  0.925600  0.219200  1.0
  N  N619  1  0.062400  0.706400  0.780800  1.0
  N  N620  1  0.937600  0.925600  0.219200  1.0
  N  N621  1  0.281600  0.293600  0.219200  1.0
  N  N622  1  0.718400  0.074400  0.780800  1.0
  N  N623  1  0.867200  0.308200  0.152400  1.0
  N  N624  1  0.132800  0.155800  0.847600  1.0
  N  N625  1  0.714800  0.691800  0.847600  1.0
  N  N626  1  0.285200  0.844200  0.152400  1.0
  N  N627  1  0.132800  0.691800  0.847600  1.0
  N  N628  1  0.867200  0.844200  0.152400  1.0
  N  N629  1  0.285200  0.308200  0.152400  1.0
  N  N630  1  0.714800  0.155800  0.847600  1.0
  N  N631  1  0.859500  0.329500  0.299000  1.0
  N  N632  1  0.140500  0.030500  0.701000  1.0
  N  N633  1  0.560500  0.670500  0.701000  1.0
  N  N634  1  0.439500  0.969500  0.299000  1.0
  N  N635  1  0.140500  0.670500  0.701000  1.0
  N  N636  1  0.859500  0.969500  0.299000  1.0
  N  N637  1  0.439500  0.329500  0.299000  1.0
  N  N638  1  0.560500  0.030500  0.701000  1.0
  N  N639  1  0.782800  0.352100  0.249000  1.0
  N  N640  1  0.217200  0.103100  0.751000  1.0
  N  N641  1  0.533800  0.647900  0.751000  1.0
  N  N642  1  0.466200  0.896900  0.249000  1.0
  N  N643  1  0.217200  0.647900  0.751000  1.0
  N  N644  1  0.782800  0.896900  0.249000  1.0
  N  N645  1  0.466200  0.352100  0.249000  1.0
  N  N646  1  0.533800  0.103100  0.751000  1.0
  N  N647  1  0.977000  0.434000  0.308000  1.0
  N  N648  1  0.023000  0.126000  0.692000  1.0
  N  N649  1  0.669000  0.566000  0.692000  1.0
  N  N650  1  0.331000  0.874000  0.308000  1.0
  N  N651  1  0.023000  0.566000  0.692000  1.0
  N  N652  1  0.977000  0.874000  0.308000  1.0
  N  N653  1  0.331000  0.434000  0.308000  1.0
  N  N654  1  0.669000  0.126000  0.692000  1.0
  N  N655  1  0.912800  0.477800  0.273600  1.0
  N  N656  1  0.087200  0.204200  0.726400  1.0
  N  N657  1  0.639200  0.522200  0.726400  1.0
  N  N658  1  0.360800  0.795800  0.273600  1.0
  N  N659  1  0.087200  0.522200  0.726400  1.0
  N  N660  1  0.912800  0.795800  0.273600  1.0
  N  N661  1  0.360800  0.477800  0.273600  1.0
  N  N662  1  0.639200  0.204200  0.726400  1.0
  O  O663  1  0.914500  0.414500  0.829000  1
  O  O664  1  0.085500  0.585500  0.171000  1
  O  O665  1  0.261300  0.428300  0.522600  1
  O  O666  1  0.738700  0.905700  0.477400  1
  O  O667  1  0.738700  0.571700  0.477400  1
  O  O668  1  0.261300  0.094300  0.522600  1
  O  O669  1  0.500000  0.500000  0.000000  1
  O  O670  1  0.043000  0.043000  0.086000  1
  O  O671  1  0.957000  0.957000  0.914000  1
  O  O672  1  0.021100  0.338100  0.491800  1
  O  O673  1  0.978900  0.846300  0.508200  1
  O  O674  1  0.529300  0.661900  0.508200  1
  O  O675  1  0.470700  0.153700  0.491800  1
  O  O676  1  0.978900  0.661900  0.508200  1
  O  O677  1  0.021100  0.153700  0.491800  1
  O  O678  1  0.470700  0.338100  0.491800  1
  O  O679  1  0.529300  0.846300  0.508200  1
  O  O680  1  0.964200  0.145700  0.291400  1
  O  O681  1  0.035800  0.854300  0.708600  1
  O  O682  1  0.672800  0.854300  0.708600  1
  O  O683  1  0.327200  0.145700  0.291400  1
  O  O684  1  0.630800  0.099100  0.163800  1
  O  O685  1  0.369200  0.935300  0.836200  1
  O  O686  1  0.467000  0.900900  0.836200  1
  O  O687  1  0.533000  0.064700  0.163800  1
  O  O688  1  0.369200  0.900900  0.836200  1
  O  O689  1  0.630800  0.064700  0.163800  1
  O  O690  1  0.533000  0.099100  0.163800  1
  O  O691  1  0.467000  0.935300  0.836200  1
  O  O692  1  0.332800  0.959100  0.000000  1
  O  O693  1  0.667200  0.959100  0.000000  1
  O  O694  1  0.332800  0.040900  0.000000  1
  O  O695  1  0.667200  0.040900  0.000000  1
  O  O696  1  0.689300  0.689300  0.378600  1.0
  O  O697  1  0.310700  0.310700  0.621400  1.0
  O  O698  1  0.902300  0.500000  1.000000  1.0
  O  O699  1  0.097700  0.500000  1.000000  1.0
  O  O700  1  0.500000  0.106700  0.000000  1.0
  O  O701  1  0.500000  0.893300  0.000000  1.0
  O  O702  1  0.646590  0.220890  0.441780  1.0
  O  O703  1  0.353410  0.779110  0.558220  1.0
  O  O704  1  0.204810  0.779110  0.558220  1.0
  O  O705  1  0.795190  0.220890  0.441780  1.0
  O  O706  1  0.764870  0.330670  0.529740  1.0
  O  O707  1  0.235130  0.800930  0.470260  1.0
  O  O708  1  0.235130  0.669330  0.470260  1.0
  O  O709  1  0.764870  0.199070  0.529740  1.0
  O  O710  1  0.271180  0.196080  0.392160  1.0
  O  O711  1  0.728820  0.803920  0.607840  1.0
  O  O712  1  0.879020  0.803920  0.607840  1.0
  O  O713  1  0.120980  0.196080  0.392160  1.0
  O  O714  1  0.150800  0.213500  0.301600  1.0
  O  O715  1  0.849200  0.911900  0.698400  1.0
  O  O716  1  0.849200  0.786500  0.698400  1.0
  O  O717  1  0.150800  0.088100  0.301600  1.0
