# generated using pymatgen
data_Cu2B4H38C44N11(OF2)8
_symmetry_space_group_name_H-M   'P 1'
_cell_length_a   14.65610000
_cell_length_b   14.65610000
_cell_length_c   24.30439229
_cell_angle_alpha   107.54840061
_cell_angle_beta   107.54840061
_cell_angle_gamma   90.00000000
_symmetry_Int_Tables_number   1
_chemical_formula_structural   Cu2B4H38C44N11(OF2)8
_chemical_formula_sum   'Cu8 B16 H152 C176 N44 O32 F64'
_cell_volume   4722.22327853
_cell_formula_units_Z   4
loop_
 _symmetry_equiv_pos_site_id
 _symmetry_equiv_pos_as_xyz
  1  'x, y, z'
loop_
 _atom_site_type_symbol
 _atom_site_label
 _atom_site_symmetry_multiplicity
 _atom_site_fract_x
 _atom_site_fract_y
 _atom_site_fract_z
 _atom_site_occupancy
  B  B1  1  0.573200  0.811000  0.501800  1
  B  B2  1  0.690800  0.073200  0.001800  1
  B  B3  1  0.311000  0.428600  0.001800  1
  B  B4  1  0.928600  0.190800  0.501800  1
  B  B5  1  0.426800  0.189000  0.498200  1
  B  B6  1  0.309200  0.926800  0.998200  1
  B  B7  1  0.689000  0.571400  0.998200  1
  B  B8  1  0.071400  0.809200  0.498200  1
  B  B9  1  0.308000  0.949900  0.989600  1
  B  B10  1  0.039700  0.808000  0.489600  1
  B  B11  1  0.449900  0.181600  0.489600  1
  B  B12  1  0.681600  0.539700  0.989600  1
  B  B13  1  0.692000  0.050100  0.010400  1
  B  B14  1  0.960300  0.192000  0.510400  1
  B  B15  1  0.550100  0.818400  0.510400  1
  B  B16  1  0.318400  0.460300  0.010400  1
  C  C17  1  0.539500  0.789500  0.079000  1
  C  C18  1  0.289500  0.039500  0.579000  1
  C  C19  1  0.460500  0.210500  0.921000  1
  C  C20  1  0.710500  0.960500  0.421000  1
  C  C21  1  0.502500  0.752500  0.005000  1
  C  C22  1  0.252500  0.002500  0.505000  1
  C  C23  1  0.497500  0.247500  0.995000  1
  C  C24  1  0.747500  0.997500  0.495000  1
  C  C25  1  0.951050  0.801650  0.838300  1.0
  C  C26  1  0.036650  0.451050  0.338300  1.0
  C  C27  1  0.301650  0.387250  0.338300  1.0
  C  C28  1  0.887250  0.536650  0.838300  1.0
  C  C29  1  0.048950  0.198350  0.161700  1.0
  C  C30  1  0.963350  0.548950  0.661700  1.0
  C  C31  1  0.698350  0.612750  0.661700  1.0
  C  C32  1  0.112750  0.463350  0.161700  1.0
  C  C33  1  0.032670  0.779170  0.877340  1.0
  C  C34  1  0.098170  0.532670  0.377340  1.0
  C  C35  1  0.279170  0.344670  0.377340  1.0
  C  C36  1  0.844670  0.598170  0.877340  1.0
  C  C37  1  0.967330  0.220830  0.122660  1.0
  C  C38  1  0.901830  0.467330  0.622660  1.0
  C  C39  1  0.720830  0.655330  0.622660  1.0
  C  C40  1  0.155330  0.401830  0.122660  1.0
  C  C41  1  0.048010  0.810610  0.939820  1.0
  C  C42  1  0.129210  0.548010  0.439820  1.0
  C  C43  1  0.310610  0.391810  0.439820  1.0
  C  C44  1  0.891810  0.629210  0.939820  1.0
  C  C45  1  0.951990  0.189390  0.060180  1.0
  C  C46  1  0.870790  0.451990  0.560180  1.0
  C  C47  1  0.689390  0.608190  0.560180  1.0
  C  C48  1  0.108190  0.370790  0.060180  1.0
  C  C49  1  0.979850  0.860750  0.962900  1.0
  C  C50  1  0.102150  0.479850  0.462900  1.0
  C  C51  1  0.360750  0.483050  0.462900  1.0
  C  C52  1  0.983050  0.602150  0.962900  1.0
  C  C53  1  0.020150  0.139250  0.037100  1.0
  C  C54  1  0.897850  0.520150  0.537100  1.0
  C  C55  1  0.639250  0.516950  0.537100  1.0
  C  C56  1  0.016950  0.397850  0.037100  1.0
  C  C57  1  0.899000  0.883000  0.923600  1.0
  C  C58  1  0.040600  0.399000  0.423600  1.0
  C  C59  1  0.383000  0.524600  0.423600  1.0
  C  C60  1  0.024600  0.540600  0.923600  1.0
  C  C61  1  0.101000  0.117000  0.076400  1.0
  C  C62  1  0.959400  0.601000  0.576400  1.0
  C  C63  1  0.617000  0.475400  0.576400  1.0
  C  C64  1  0.975400  0.459400  0.076400  1.0
  C  C65  1  0.993410  0.615110  0.638620  1.0
  C  C66  1  0.023510  0.493410  0.138620  1.0
  C  C67  1  0.115110  0.145210  0.138620  1.0
  C  C68  1  0.645210  0.523510  0.638620  1.0
  C  C69  1  0.006590  0.384890  0.361380  1.0
  C  C70  1  0.976490  0.506590  0.861380  1.0
  C  C71  1  0.884890  0.854790  0.861380  1.0
  C  C72  1  0.354790  0.476490  0.361380  1.0
  C  C73  1  0.158420  0.679420  0.880040  1.0
  C  C74  1  0.200620  0.658420  0.380040  1.0
  C  C75  1  0.179420  0.221620  0.380040  1.0
  C  C76  1  0.721620  0.700620  0.880040  1.0
  C  C77  1  0.841580  0.320580  0.119960  1.0
  C  C78  1  0.799380  0.341580  0.619960  1.0
  C  C79  1  0.820580  0.778380  0.619960  1.0
  C  C80  1  0.278380  0.299380  0.119960  1.0
  C  C81  1  0.227120  0.626220  0.853240  1.0
  C  C82  1  0.227020  0.727120  0.353240  1.0
  C  C83  1  0.126220  0.126120  0.353240  1.0
  C  C84  1  0.626120  0.727020  0.853240  1.0
  C  C85  1  0.772880  0.373780  0.146760  1.0
  C  C86  1  0.772980  0.272880  0.646760  1.0
  C  C87  1  0.873780  0.873880  0.646760  1.0
  C  C88  1  0.373880  0.272980  0.146760  1.0
  C  C89  1  0.292190  0.574790  0.882980  1.0
  C  C90  1  0.308190  0.792190  0.382980  1.0
  C  C91  1  0.074790  0.090790  0.382980  1.0
  C  C92  1  0.590790  0.808190  0.882980  1.0
  C  C93  1  0.707810  0.425210  0.117020  1.0
  C  C94  1  0.691810  0.207810  0.617020  1.0
  C  C95  1  0.925210  0.909210  0.617020  1.0
  C  C96  1  0.409210  0.191810  0.117020  1.0
  C  C97  1  0.355250  0.526250  0.854900  1.0
  C  C98  1  0.328650  0.855250  0.354900  1.0
  C  C99  1  0.026250  0.999650  0.354900  1.0
  C  C100  1  0.499650  0.828650  0.854900  1.0
  C  C101  1  0.644750  0.473750  0.145100  1.0
  C  C102  1  0.671350  0.144750  0.645100  1.0
  C  C103  1  0.973750  0.000350  0.645100  1.0
  C  C104  1  0.500350  0.171350  0.145100  1.0
  C  C105  1  0.349950  0.530650  0.798700  1.0
  C  C106  1  0.268050  0.849950  0.298700  1.0
  C  C107  1  0.030650  0.948750  0.298700  1.0
  C  C108  1  0.448750  0.768050  0.798700  1.0
  C  C109  1  0.650050  0.469350  0.201300  1.0
  C  C110  1  0.731950  0.150050  0.701300  1.0
  C  C111  1  0.969350  0.051250  0.701300  1.0
  C  C112  1  0.551250  0.231950  0.201300  1.0
  C  C113  1  0.283350  0.583750  0.771700  1.0
  C  C114  1  0.187950  0.783350  0.271700  1.0
  C  C115  1  0.083750  0.988350  0.271700  1.0
  C  C116  1  0.488350  0.687950  0.771700  1.0
  C  C117  1  0.716650  0.416250  0.228300  1.0
  C  C118  1  0.812050  0.216650  0.728300  1.0
  C  C119  1  0.916250  0.011650  0.728300  1.0
  C  C120  1  0.511650  0.312050  0.228300  1.0
  C  C121  1  0.098250  0.752950  0.662100  1.0
  C  C122  1  0.909150  0.598250  0.162100  1.0
  C  C123  1  0.252950  0.063850  0.162100  1.0
  C  C124  1  0.563850  0.409150  0.662100  1.0
  C  C125  1  0.901750  0.247050  0.337900  1.0
  C  C126  1  0.090850  0.401750  0.837900  1.0
  C  C127  1  0.747050  0.936150  0.837900  1.0
  C  C128  1  0.436150  0.590850  0.337900  1.0
  C  C129  1  0.164780  0.834980  0.706360  1.0
  C  C130  1  0.871380  0.664780  0.206360  1.0
  C  C131  1  0.334980  0.041580  0.206360  1.0
  C  C132  1  0.541580  0.371380  0.706360  1.0
  C  C133  1  0.835220  0.165020  0.293640  1.0
  C  C134  1  0.128620  0.335220  0.793640  1.0
  C  C135  1  0.665020  0.958420  0.793640  1.0
  C  C136  1  0.458420  0.628620  0.293640  1.0
  C  C137  1  0.206100  0.901000  0.688200  1.0
  C  C138  1  0.787200  0.706100  0.188200  1.0
  C  C139  1  0.401000  0.982100  0.188200  1.0
  C  C140  1  0.482100  0.287200  0.688200  1.0
  C  C141  1  0.793900  0.099000  0.311800  1.0
  C  C142  1  0.212800  0.293900  0.811800  1.0
  C  C143  1  0.599000  0.017900  0.811800  1.0
  C  C144  1  0.517900  0.712800  0.311800  1.0
  C  C145  1  0.269190  0.976190  0.732180  1.0
  C  C146  1  0.755990  0.769190  0.232180  1.0
  C  C147  1  0.476190  0.962990  0.232180  1.0
  C  C148  1  0.462990  0.255990  0.732180  1.0
  C  C149  1  0.730810  0.023810  0.267820  1.0
  C  C150  1  0.244010  0.230810  0.767820  1.0
  C  C151  1  0.523810  0.037010  0.767820  1.0
  C  C152  1  0.537010  0.744010  0.267820  1.0
  C  C153  1  0.289480  0.982080  0.791960  1.0
  C  C154  1  0.809880  0.789480  0.291960  1.0
  C  C155  1  0.482080  0.002480  0.291960  1.0
  C  C156  1  0.502480  0.309880  0.791960  1.0
  C  C157  1  0.710520  0.017920  0.208040  1.0
  C  C158  1  0.190120  0.210520  0.708040  1.0
  C  C159  1  0.517920  0.997520  0.708040  1.0
  C  C160  1  0.497520  0.690120  0.208040  1.0
  C  C161  1  0.246150  0.913050  0.806900  1.0
  C  C162  1  0.893850  0.746150  0.306900  1.0
  C  C163  1  0.413050  0.060750  0.306900  1.0
  C  C164  1  0.560750  0.393850  0.806900  1.0
  C  C165  1  0.753850  0.086950  0.193100  1.0
  C  C166  1  0.106150  0.253850  0.693100  1.0
  C  C167  1  0.586950  0.939250  0.693100  1.0
  C  C168  1  0.439250  0.606150  0.193100  1.0
  C  C169  1  0.999230  0.890430  0.030660  1.0
  C  C170  1  0.140230  0.499230  0.530660  1.0
  C  C171  1  0.390430  0.531430  0.530660  1.0
  C  C172  1  0.031430  0.640230  0.030660  1.0
  C  C173  1  0.000770  0.109570  0.969340  1.0
  C  C174  1  0.859770  0.500770  0.469340  1.0
  C  C175  1  0.609570  0.468570  0.469340  1.0
  C  C176  1  0.968570  0.359770  0.969340  1.0
  C  C177  1  0.930540  0.951040  0.114880  1.0
  C  C178  1  0.163840  0.430540  0.614880  1.0
  C  C179  1  0.451040  0.684340  0.614880  1.0
  C  C180  1  0.184340  0.663840  0.114880  1.0
  C  C181  1  0.069460  0.048960  0.885120  1.0
  C  C182  1  0.836160  0.569460  0.385120  1.0
  C  C183  1  0.548960  0.315660  0.385120  1.0
  C  C184  1  0.815660  0.336160  0.885120  1.0
  C  C185  1  0.895890  0.881790  0.140180  1.0
  C  C186  1  0.258390  0.395890  0.640180  1.0
  C  C187  1  0.381790  0.744290  0.640180  1.0
  C  C188  1  0.244290  0.758390  0.140180  1.0
  C  C189  1  0.104110  0.118210  0.859820  1.0
  C  C190  1  0.741610  0.604110  0.359820  1.0
  C  C191  1  0.618210  0.255710  0.359820  1.0
  C  C192  1  0.755710  0.241610  0.859820  1.0
  Cu  Cu193  1  0.120682  0.721122  0.772044  1.0
  Cu  Cu194  1  0.050922  0.620682  0.272044  1.0
  Cu  Cu195  1  0.221122  0.151362  0.272044  1.0
  Cu  Cu196  1  0.651362  0.550922  0.772044  1.0
  Cu  Cu197  1  0.879318  0.278878  0.227956  1.0
  Cu  Cu198  1  0.949078  0.379318  0.727956  1.0
  Cu  Cu199  1  0.778878  0.848638  0.727956  1.0
  Cu  Cu200  1  0.348638  0.449078  0.227956  1.0
  F  F201  1  0.619100  0.850100  0.559600  1
  F  F202  1  0.709500  0.119100  0.059600  1
  F  F203  1  0.350100  0.440500  0.059600  1
  F  F204  1  0.940500  0.209500  0.559600  1
  F  F205  1  0.380900  0.149900  0.440400  1
  F  F206  1  0.290500  0.880900  0.940400  1
  F  F207  1  0.649900  0.559500  0.940400  1
  F  F208  1  0.059500  0.790500  0.440400  1
  F  F209  1  0.488000  0.752100  0.494200  1
  F  F210  1  0.742100  0.988000  0.994200  1
  F  F211  1  0.252100  0.506200  0.994200  1
  F  F212  1  0.006200  0.242100  0.494200  1
  F  F213  1  0.512000  0.247900  0.505800  1
  F  F214  1  0.257900  0.012000  0.005800  1
  F  F215  1  0.747900  0.493800  0.005800  1
  F  F216  1  0.993800  0.757900  0.505800  1
  F  F217  1  0.536000  0.872800  0.471400  1
  F  F218  1  0.598600  0.036000  0.971400  1
  F  F219  1  0.372800  0.435400  0.971400  1
  F  F220  1  0.935400  0.098600  0.471400  1
  F  F221  1  0.464000  0.127200  0.528600  1
  F  F222  1  0.401400  0.964000  0.028600  1
  F  F223  1  0.627200  0.564600  0.028600  1
  F  F224  1  0.064600  0.901400  0.528600  1
  F  F225  1  0.647200  0.765300  0.476600  1
  F  F226  1  0.711300  0.147200  0.976600  1
  F  F227  1  0.265300  0.329400  0.976600  1
  F  F228  1  0.829400  0.211300  0.476600  1
  F  F229  1  0.352800  0.234700  0.523400  1
  F  F230  1  0.288700  0.852800  0.023400  1
  F  F231  1  0.734700  0.670600  0.023400  1
  F  F232  1  0.170600  0.788700  0.523400  1
  F  F233  1  0.371500  0.986600  0.966000  1
  F  F234  1  0.979400  0.871500  0.466000  1
  F  F235  1  0.486600  0.094500  0.466000  1
  F  F236  1  0.594500  0.479400  0.966000  1
  F  F237  1  0.628500  0.013400  0.034000  1
  F  F238  1  0.020600  0.128500  0.534000  1
  F  F239  1  0.513400  0.905500  0.534000  1
  F  F240  1  0.405500  0.520600  0.034000  1
  F  F241  1  0.360000  0.934900  0.038000  1
  F  F242  1  0.103100  0.860000  0.538000  1
  F  F243  1  0.434900  0.178000  0.538000  1
  F  F244  1  0.678000  0.603100  0.038000  1
  F  F245  1  0.640000  0.065100  0.962000  1
  F  F246  1  0.896900  0.140000  0.462000  1
  F  F247  1  0.565100  0.822000  0.462000  1
  F  F248  1  0.322000  0.396900  0.962000  1
  F  F249  1  0.247200  0.001900  0.009400  1
  F  F250  1  0.007500  0.747200  0.509400  1
  F  F251  1  0.501900  0.262200  0.509400  1
  F  F252  1  0.762200  0.507500  0.009400  1
  F  F253  1  0.752800  0.998100  0.990600  1
  F  F254  1  0.992500  0.252800  0.490600  1
  F  F255  1  0.498100  0.737800  0.490600  1
  F  F256  1  0.237800  0.492500  0.990600  1
  F  F257  1  0.258100  0.878700  0.944800  1
  F  F258  1  0.066100  0.758100  0.444800  1
  F  F259  1  0.378700  0.186700  0.444800  1
  F  F260  1  0.686700  0.566100  0.944800  1
  F  F261  1  0.741900  0.121300  0.055200  1
  F  F262  1  0.933900  0.241900  0.555200  1
  F  F263  1  0.621300  0.813300  0.555200  1
  F  F264  1  0.313300  0.433900  0.055200  1
  H  H265  1  0.976100  0.778100  0.128200  1.0
  H  H266  1  0.350100  0.476100  0.628200  1.0
  H  H267  1  0.278100  0.652100  0.628200  1.0
  H  H268  1  0.152100  0.850100  0.128200  1.0
  H  H269  1  0.023900  0.221900  0.871800  1.0
  H  H270  1  0.649900  0.523900  0.371800  1.0
  H  H271  1  0.721900  0.347900  0.371800  1.0
  H  H272  1  0.847900  0.149900  0.871800  1.0
  H  H273  1  0.871900  0.916900  0.025800  1.0
  H  H274  1  0.108900  0.371900  0.525800  1.0
  H  H275  1  0.416900  0.653900  0.525800  1.0
  H  H276  1  0.153900  0.608900  0.025800  1.0
  H  H277  1  0.128100  0.083100  0.974200  1.0
  H  H278  1  0.891100  0.628100  0.474200  1.0
  H  H279  1  0.583100  0.346100  0.474200  1.0
  H  H280  1  0.846100  0.391100  0.974200  1.0
  H  H281  1  0.939930  0.779700  0.794420  1.0
  H  H282  1  0.014720  0.439930  0.294420  1.0
  H  H283  1  0.279700  0.354490  0.294420  1.0
  H  H284  1  0.854490  0.514720  0.794420  1.0
  H  H285  1  0.060070  0.220300  0.205580  1.0
  H  H286  1  0.985280  0.560070  0.705580  1.0
  H  H287  1  0.720300  0.645510  0.705580  1.0
  H  H288  1  0.145510  0.485280  0.205580  1.0
  H  H289  1  0.106960  0.797790  0.967520  1.0
  H  H290  1  0.169730  0.606960  0.467520  1.0
  H  H291  1  0.297790  0.360560  0.467520  1.0
  H  H292  1  0.860560  0.669730  0.967520  1.0
  H  H293  1  0.893040  0.202210  0.032480  1.0
  H  H294  1  0.830270  0.393040  0.532480  1.0
  H  H295  1  0.702210  0.639440  0.532480  1.0
  H  H296  1  0.139440  0.330270  0.032480  1.0
  H  H297  1  0.851490  0.918800  0.939940  1.0
  H  H298  1  0.021140  0.351490  0.439940  1.0
  H  H299  1  0.418800  0.588450  0.439940  1.0
  H  H300  1  0.088450  0.521140  0.939940  1.0
  H  H301  1  0.148510  0.081200  0.060060  1.0
  H  H302  1  0.978860  0.648510  0.560060  1.0
  H  H303  1  0.581200  0.411550  0.560060  1.0
  H  H304  1  0.911550  0.478860  0.060060  1.0
  H  H305  1  0.158170  0.680530  0.920480  1.0
  H  H306  1  0.239950  0.658170  0.420480  1.0
  H  H307  1  0.180530  0.262310  0.420480  1.0
  H  H308  1  0.762310  0.739950  0.920480  1.0
  H  H309  1  0.841830  0.319470  0.079520  1.0
  H  H310  1  0.760050  0.341830  0.579520  1.0
  H  H311  1  0.819470  0.737690  0.579520  1.0
  H  H312  1  0.237690  0.260050  0.079520  1.0
  H  H313  1  0.293560  0.572580  0.923080  1.0
  H  H314  1  0.350500  0.793560  0.423080  1.0
  H  H315  1  0.072580  0.129520  0.423080  1.0
  H  H316  1  0.629520  0.850500  0.923080  1.0
  H  H317  1  0.706440  0.427420  0.076920  1.0
  H  H318  1  0.649500  0.206440  0.576920  1.0
  H  H319  1  0.927420  0.870480  0.576920  1.0
  H  H320  1  0.370480  0.149500  0.076920  1.0
  H  H321  1  0.402790  0.490220  0.874920  1.0
  H  H322  1  0.384700  0.902790  0.374920  1.0
  H  H323  1  0.990220  0.972130  0.374920  1.0
  H  H324  1  0.472130  0.884700  0.874920  1.0
  H  H325  1  0.597210  0.509780  0.125080  1.0
  H  H326  1  0.615300  0.097210  0.625080  1.0
  H  H327  1  0.009780  0.027870  0.625080  1.0
  H  H328  1  0.527870  0.115300  0.125080  1.0
  H  H329  1  0.392970  0.495870  0.777480  1.0
  H  H330  1  0.281610  0.892970  0.277480  1.0
  H  H331  1  0.995870  0.884510  0.277480  1.0
  H  H332  1  0.384510  0.781610  0.777480  1.0
  H  H333  1  0.607030  0.504130  0.222520  1.0
  H  H334  1  0.718390  0.107030  0.722520  1.0
  H  H335  1  0.004130  0.115490  0.722520  1.0
  H  H336  1  0.615490  0.218390  0.222520  1.0
  H  H337  1  0.281410  0.587000  0.731900  1.0
  H  H338  1  0.144900  0.781410  0.231900  1.0
  H  H339  1  0.087000  0.950490  0.231900  1.0
  H  H340  1  0.450490  0.644900  0.731900  1.0
  H  H341  1  0.718590  0.413000  0.268100  1.0
  H  H342  1  0.855100  0.218590  0.768100  1.0
  H  H343  1  0.913000  0.049510  0.768100  1.0
  H  H344  1  0.549510  0.355100  0.268100  1.0
  H  H345  1  0.083660  0.741760  0.618580  1.0
  H  H346  1  0.876820  0.583660  0.118580  1.0
  H  H347  1  0.241760  0.034920  0.118580  1.0
  H  H348  1  0.534920  0.376820  0.618580  1.0
  H  H349  1  0.916340  0.258240  0.381420  1.0
  H  H350  1  0.123180  0.416340  0.881420  1.0
  H  H351  1  0.758240  0.965080  0.881420  1.0
  H  H352  1  0.465080  0.623180  0.381420  1.0
  H  H353  1  0.190590  0.894580  0.644840  1.0
  H  H354  1  0.750260  0.690590  0.144840  1.0
  H  H355  1  0.394580  0.954250  0.144840  1.0
  H  H356  1  0.454250  0.250260  0.644840  1.0
  H  H357  1  0.809410  0.105420  0.355160  1.0
  H  H358  1  0.249740  0.309410  0.855160  1.0
  H  H359  1  0.605420  0.045750  0.855160  1.0
  H  H360  1  0.545750  0.749740  0.355160  1.0
  H  H361  1  0.298790  0.024560  0.720640  1.0
  H  H362  1  0.696080  0.798790  0.220640  1.0
  H  H363  1  0.524560  0.921850  0.220640  1.0
  H  H364  1  0.421850  0.196080  0.720640  1.0
  H  H365  1  0.701210  0.975440  0.279360  1.0
  H  H366  1  0.303920  0.201210  0.779360  1.0
  H  H367  1  0.475440  0.078150  0.779360  1.0
  H  H368  1  0.578150  0.803920  0.279360  1.0
  H  H369  1  0.334830  0.034570  0.823780  1.0
  H  H370  1  0.789210  0.834830  0.323780  1.0
  H  H371  1  0.534570  0.988950  0.323780  1.0
  H  H372  1  0.488950  0.289210  0.823780  1.0
  H  H373  1  0.665170  0.965430  0.176220  1.0
  H  H374  1  0.210790  0.165170  0.676220  1.0
  H  H375  1  0.465430  0.011050  0.676220  1.0
  H  H376  1  0.511050  0.710790  0.176220  1.0
  H  H377  1  0.261420  0.918260  0.849900  1.0
  H  H378  1  0.931640  0.761420  0.349900  1.0
  H  H379  1  0.418260  0.088480  0.349900  1.0
  H  H380  1  0.588480  0.431640  0.849900  1.0
  H  H381  1  0.738580  0.081740  0.150100  1.0
  H  H382  1  0.068360  0.238580  0.650100  1.0
  H  H383  1  0.581740  0.911520  0.650100  1.0
  H  H384  1  0.411520  0.568360  0.150100  1.0
  H  H385  1  0.997950  0.973410  0.138500  1.0
  H  H386  1  0.165090  0.497950  0.638500  1.0
  H  H387  1  0.473410  0.640550  0.638500  1.0
  H  H388  1  0.140550  0.665090  0.138500  1.0
  H  H389  1  0.002050  0.026590  0.861500  1.0
  H  H390  1  0.834910  0.502050  0.361500  1.0
  H  H391  1  0.526590  0.359450  0.361500  1.0
  H  H392  1  0.859450  0.334910  0.861500  1.0
  H  H393  1  0.891720  0.005660  0.119160  1.0
  H  H394  1  0.113500  0.391720  0.619160  1.0
  H  H395  1  0.505660  0.727440  0.619160  1.0
  H  H396  1  0.227440  0.613500  0.119160  1.0
  H  H397  1  0.108280  0.994340  0.880840  1.0
  H  H398  1  0.886500  0.608280  0.380840  1.0
  H  H399  1  0.494340  0.272560  0.380840  1.0
  H  H400  1  0.772560  0.386500  0.880840  1.0
  H  H401  1  0.878890  0.918180  0.175780  1.0
  H  H402  1  0.257600  0.378890  0.675780  1.0
  H  H403  1  0.418180  0.796890  0.675780  1.0
  H  H404  1  0.296890  0.757600  0.175780  1.0
  H  H405  1  0.121110  0.081820  0.824220  1.0
  H  H406  1  0.742400  0.621110  0.324220  1.0
  H  H407  1  0.581820  0.203110  0.324220  1.0
  H  H408  1  0.703110  0.242400  0.824220  1.0
  H  H409  1  0.838820  0.842230  0.108880  1.0
  H  H410  1  0.266650  0.338820  0.608880  1.0
  H  H411  1  0.342230  0.770060  0.608880  1.0
  H  H412  1  0.270060  0.766650  0.108880  1.0
  H  H413  1  0.161180  0.157770  0.891120  1.0
  H  H414  1  0.733350  0.661180  0.391120  1.0
  H  H415  1  0.657770  0.229940  0.391120  1.0
  H  H416  1  0.729940  0.233350  0.891120  1.0
  N  N417  1  0.561300  0.811300  0.122600  1
  N  N418  1  0.311300  0.061300  0.622600  1
  N  N419  1  0.438700  0.188700  0.877400  1
  N  N420  1  0.688700  0.938700  0.377400  1
  N  N421  1  0.097890  0.724830  0.850360  1.0
  N  N422  1  0.125530  0.597890  0.350360  1.0
  N  N423  1  0.224830  0.252470  0.350360  1.0
  N  N424  1  0.752470  0.625530  0.850360  1.0
  N  N425  1  0.902110  0.275170  0.149640  1.0
  N  N426  1  0.874470  0.402110  0.649640  1.0
  N  N427  1  0.775170  0.747530  0.649640  1.0
  N  N428  1  0.247530  0.374470  0.149640  1.0
  N  N429  1  0.222370  0.631100  0.798440  1.0
  N  N430  1  0.167340  0.722370  0.298440  1.0
  N  N431  1  0.131100  0.076070  0.298440  1.0
  N  N432  1  0.576070  0.667340  0.798440  1.0
  N  N433  1  0.777630  0.368900  0.201560  1.0
  N  N434  1  0.832660  0.277630  0.701560  1.0
  N  N435  1  0.868900  0.923930  0.701560  1.0
  N  N436  1  0.423930  0.332660  0.201560  1.0
  N  N437  1  0.059370  0.695470  0.681420  1.0
  N  N438  1  0.985950  0.559370  0.181420  1.0
  N  N439  1  0.195470  0.122050  0.181420  1.0
  N  N440  1  0.622050  0.485950  0.681420  1.0
  N  N441  1  0.940630  0.304530  0.318580  1.0
  N  N442  1  0.014050  0.440630  0.818580  1.0
  N  N443  1  0.804530  0.877950  0.818580  1.0
  N  N444  1  0.377950  0.514050  0.318580  1.0
  N  N445  1  0.184780  0.840540  0.765340  1.0
  N  N446  1  0.924800  0.684780  0.265340  1.0
  N  N447  1  0.340540  0.080560  0.265340  1.0
  N  N448  1  0.580560  0.424800  0.765340  1.0
  N  N449  1  0.815220  0.159460  0.234660  1.0
  N  N450  1  0.075200  0.315220  0.734660  1.0
  N  N451  1  0.659460  0.919440  0.734660  1.0
  N  N452  1  0.419440  0.575200  0.234660  1.0
  N  N453  1  0.924760  0.912060  0.050920  1.0
  N  N454  1  0.138860  0.424760  0.550920  1.0
  N  N455  1  0.412060  0.626160  0.550920  1.0
  N  N456  1  0.126160  0.638860  0.050920  1.0
  N  N457  1  0.075240  0.087940  0.949080  1.0
  N  N458  1  0.861140  0.575240  0.449080  1.0
  N  N459  1  0.587940  0.373840  0.449080  1.0
  N  N460  1  0.873840  0.361140  0.949080  1.0
  O  O461  1  0.285800  0.702900  0.011400  1
  O  O462  1  0.308500  0.785800  0.511400  1
  O  O463  1  0.202900  0.225600  0.511400  1
  O  O464  1  0.725600  0.808500  0.011400  1
  O  O465  1  0.714200  0.297100  0.988600  1
  O  O466  1  0.691500  0.214200  0.488600  1
  O  O467  1  0.797100  0.774400  0.488600  1
  O  O468  1  0.274400  0.191500  0.988600  1
  O  O469  1  0.420700  0.060600  0.947400  1
  O  O470  1  0.886800  0.920700  0.447400  1
  O  O471  1  0.560600  0.026700  0.447400  1
  O  O472  1  0.526700  0.386800  0.947400  1
  O  O473  1  0.579300  0.939400  0.052600  1
  O  O474  1  0.113200  0.079300  0.552600  1
  O  O475  1  0.439400  0.973300  0.552600  1
  O  O476  1  0.473300  0.613200  0.052600  1
  O  O477  1  0.081790  0.894590  0.064720  1.0
  O  O478  1  0.170130  0.581790  0.564720  1.0
  O  O479  1  0.394590  0.482930  0.564720  1.0
  O  O480  1  0.982930  0.670130  0.064720  1.0
  O  O481  1  0.918210  0.105410  0.935280  1.0
  O  O482  1  0.829870  0.418210  0.435280  1.0
  O  O483  1  0.605410  0.517070  0.435280  1.0
  O  O484  1  0.017070  0.329870  0.935280  1.0
  O  O485  1  0.963940  0.819230  0.157680  1.0
  O  O486  1  0.338450  0.463940  0.657680  1.0
  O  O487  1  0.319230  0.693740  0.657680  1.0
  O  O488  1  0.193740  0.838450  0.157680  1.0
  O  O489  1  0.036060  0.180770  0.842320  1.0
  O  O490  1  0.661550  0.536060  0.342320  1.0
  O  O491  1  0.680770  0.306260  0.342320  1.0
  O  O492  1  0.806260  0.161550  0.842320  1.0
