# generated using pymatgen
data_P6H79Pt4C53N4(ClO)10
_symmetry_space_group_name_H-M   'P 1'
_cell_length_a   13.16540000
_cell_length_b   14.84480000
_cell_length_c   16.62880000
_cell_angle_alpha   70.95670000
_cell_angle_beta   69.61700000
_cell_angle_gamma   74.84140000
_symmetry_Int_Tables_number   1
_chemical_formula_structural   P6H79Pt4C53N4(ClO)10
_chemical_formula_sum   'P12 H158 Pt8 C106 N8 Cl20 O20'
_cell_volume   2839.31112617
_cell_formula_units_Z   2
loop_
 _symmetry_equiv_pos_site_id
 _symmetry_equiv_pos_as_xyz
  1  'x, y, z'
loop_
 _atom_site_type_symbol
 _atom_site_label
 _atom_site_symmetry_multiplicity
 _atom_site_fract_x
 _atom_site_fract_y
 _atom_site_fract_z
 _atom_site_occupancy
  P  P1  1  0.207100  0.994400  0.653600  1
  P  P2  1  0.792900  0.005600  0.346400  1
  P  P3  1  0.693680  0.076570  0.779870  1
  P  P4  1  0.306320  0.923430  0.220130  1
  P  P5  1  0.214690  0.298620  0.625770  1.0
  P  P6  1  0.785310  0.701380  0.374230  1.0
  P  P7  1  0.137160  0.995210  0.659690  1.0
  P  P8  1  0.862840  0.004790  0.340310  1.0
  P  P9  1  0.640380  0.103550  0.789280  1.0
  P  P10  1  0.359620  0.896450  0.210720  1.0
  P  P11  1  0.771770  0.331970  0.840410  1.0
  P  P12  1  0.228230  0.668030  0.159590  1.0
  H  H13  1  0.481600  0.353900  0.217900  1
  H  H14  1  0.518400  0.646100  0.782100  1
  H  H15  1  0.429200  0.895400  0.848400  1
  H  H16  1  0.570800  0.104600  0.151600  1
  H  H17  1  0.432400  0.799900  0.990800  1
  H  H18  1  0.567600  0.200100  0.009200  1
  H  H19  1  0.144200  0.950300  0.089600  1
  H  H20  1  0.855800  0.049700  0.910400  1
  H  H21  1  0.140500  0.047900  0.944900  1
  H  H22  1  0.859500  0.952100  0.055100  1
  H  H23  1  0.743600  0.704700  0.930400  1
  H  H24  1  0.256400  0.295300  0.069600  1
  H  H25  1  0.819500  0.671200  0.925200  1
  H  H26  1  0.180500  0.328800  0.074800  1
  H  H27  1  0.277600  0.172300  0.463100  1.0
  H  H28  1  0.722400  0.827700  0.536900  1.0
  H  H29  1  0.246400  0.233900  0.322400  1.0
  H  H30  1  0.753600  0.766100  0.677600  1.0
  H  H31  1  0.064800  0.307500  0.314800  1.0
  H  H32  1  0.935200  0.692500  0.685200  1.0
  H  H33  1  0.873200  0.355100  0.390400  1.0
  H  H34  1  0.126800  0.644900  0.609600  1.0
  H  H35  1  0.680400  0.415600  0.462200  1.0
  H  H36  1  0.319600  0.584400  0.537800  1.0
  H  H37  1  0.538400  0.430000  0.586800  1.0
  H  H38  1  0.461600  0.570000  0.413200  1.0
  H  H39  1  0.566300  0.350100  0.728800  1.0
  H  H40  1  0.433700  0.649900  0.271200  1.0
  H  H41  1  0.937200  0.211100  0.669000  1.0
  H  H42  1  0.062800  0.788900  0.331000  1.0
  H  H43  1  0.154000  0.319100  0.768400  1.0
  H  H44  1  0.846000  0.680900  0.231600  1.0
  H  H45  1  0.274700  0.257400  0.750700  1.0
  H  H46  1  0.725300  0.742600  0.249300  1.0
  H  H47  1  0.277700  0.401900  0.772700  1.0
  H  H48  1  0.722300  0.598100  0.227300  1.0
  H  H49  1  0.226400  0.461000  0.692500  1.0
  H  H50  1  0.773600  0.539000  0.307500  1.0
  H  H51  1  0.347800  0.399700  0.672900  1.0
  H  H52  1  0.652200  0.600300  0.327100  1.0
  H  H53  1  0.345300  0.304500  0.486200  1.0
  H  H54  1  0.654700  0.695500  0.513800  1.0
  H  H55  1  0.366500  0.373800  0.532800  1.0
  H  H56  1  0.633500  0.626200  0.467200  1.0
  H  H57  1  0.511000  0.241200  0.525500  1.0
  H  H58  1  0.489000  0.758800  0.474500  1.0
  H  H59  1  0.425600  0.167700  0.579400  1.0
  H  H60  1  0.574400  0.832300  0.420600  1.0
  H  H61  1  0.445400  0.236200  0.627500  1.0
  H  H62  1  0.554600  0.763800  0.372500  1.0
  H  H63  1  0.050500  0.397100  0.605300  1.0
  H  H64  1  0.949500  0.602900  0.394700  1.0
  H  H65  1  0.132900  0.461200  0.601600  1.0
  H  H66  1  0.867100  0.538800  0.398400  1.0
  H  H67  1  0.100100  0.501600  0.463700  1.0
  H  H68  1  0.899900  0.498400  0.536300  1.0
  H  H69  1  0.144900  0.392400  0.456800  1.0
  H  H70  1  0.855100  0.607600  0.543200  1.0
  H  H71  1  0.227200  0.457200  0.453100  1.0
  H  H72  1  0.772800  0.542800  0.546900  1.0
  H  H73  1  0.142200  0.840800  0.751100  1.0
  H  H74  1  0.857800  0.159200  0.248900  1.0
  H  H75  1  0.209100  0.899400  0.773400  1.0
  H  H76  1  0.790900  0.100600  0.226600  1.0
  H  H77  1  0.073500  0.846900  0.893200  1.0
  H  H78  1  0.926500  0.153100  0.106800  1.0
  H  H79  1  0.983400  0.902600  0.841500  1.0
  H  H80  1  0.016600  0.097400  0.158500  1.0
  H  H81  1  0.050500  0.962600  0.863700  1.0
  H  H82  1  0.949500  0.037400  0.136300  1.0
  H  H83  1  0.291100  0.962900  0.566100  1.0
  H  H84  1  0.708900  0.037100  0.433900  1.0
  H  H85  1  0.193400  0.003600  0.521200  1.0
  H  H86  1  0.806600  0.996400  0.478800  1.0
  H  H87  1  0.268000  0.829400  0.526500  1.0
  H  H88  1  0.732000  0.170600  0.473500  1.0
  H  H89  1  0.138100  0.846600  0.572200  1.0
  H  H90  1  0.861900  0.153400  0.427800  1.0
  H  H91  1  0.220300  0.804500  0.632500  1.0
  H  H92  1  0.779700  0.195500  0.367500  1.0
  H  H93  1  0.948700  0.032000  0.684700  1.0
  H  H94  1  0.051300  0.968000  0.315300  1.0
  H  H95  1  0.008900  0.040700  0.581700  1.0
  H  H96  1  0.991100  0.959300  0.418300  1.0
  H  H97  1  0.898200  0.908300  0.679000  1.0
  H  H98  1  0.101800  0.091700  0.321000  1.0
  H  H99  1  0.016800  0.853300  0.689300  1.0
  H  H100  1  0.983200  0.146700  0.310700  1.0
  H  H101  1  0.997900  0.894000  0.592900  1.0
  H  H102  1  0.002100  0.106000  0.407100  1.0
  H  H103  1  0.628900  0.984600  0.928300  1.0
  H  H104  1  0.371100  0.015400  0.071700  1.0
  H  H105  1  0.579900  0.951600  0.867800  1.0
  H  H106  1  0.420100  0.048400  0.132200  1.0
  H  H107  1  0.762800  0.861900  0.865700  1.0
  H  H108  1  0.237200  0.138100  0.134300  1.0
  H  H109  1  0.809700  0.961600  0.826100  1.0
  H  H110  1  0.190300  0.038400  0.173900  1.0
  H  H111  1  0.760500  0.926500  0.768000  1.0
  H  H112  1  0.239500  0.073500  0.232000  1.0
  H  H113  1  0.488400  0.209300  0.757800  1.0
  H  H114  1  0.511600  0.790700  0.242200  1.0
  H  H115  1  0.463500  0.101100  0.796000  1.0
  H  H116  1  0.536500  0.898900  0.204000  1.0
  H  H117  1  0.362200  0.191200  0.892000  1.0
  H  H118  1  0.637800  0.808800  0.108000  1.0
  H  H119  1  0.471700  0.214200  0.897200  1.0
  H  H120  1  0.528300  0.785800  0.102800  1.0
  H  H121  1  0.446000  0.106100  0.935300  1.0
  H  H122  1  0.554000  0.893900  0.064700  1.0
  H  H123  1  0.660600  0.153200  0.638800  1.0
  H  H124  1  0.339400  0.846800  0.361200  1.0
  H  H125  1  0.759300  0.069300  0.659500  1.0
  H  H126  1  0.240700  0.930700  0.340500  1.0
  H  H127  1  0.653300  0.010100  0.605800  1.0
  H  H128  1  0.346700  0.989900  0.394200  1.0
  H  H129  1  0.544000  0.037700  0.680600  1.0
  H  H130  1  0.456000  0.962300  0.319400  1.0
  H  H131  1  0.638700  0.952200  0.707800  1.0
  H  H132  1  0.361300  0.047800  0.292200  1.0
  H  H133  1  0.953900  0.332500  0.760400  1.0
  H  H134  1  0.046100  0.667500  0.239600  1.0
  H  H135  1  0.877300  0.407500  0.703800  1.0
  H  H136  1  0.122700  0.592500  0.296200  1.0
  H  H137  1  0.984000  0.485700  0.731300  1.0
  H  H138  1  0.016000  0.514300  0.268700  1.0
  H  H139  1  0.934700  0.444200  0.836100  1.0
  H  H140  1  0.065300  0.555800  0.163900  1.0
  H  H141  1  0.857500  0.519500  0.779300  1.0
  H  H142  1  0.142500  0.480500  0.220700  1.0
  H  H143  1  0.696100  0.494300  0.821400  1.0
  H  H144  1  0.303900  0.505700  0.178600  1.0
  H  H145  1  0.633700  0.440600  0.786400  1.0
  H  H146  1  0.366300  0.559400  0.213600  1.0
  H  H147  1  0.524400  0.447300  0.933600  1.0
  H  H148  1  0.475600  0.552700  0.066400  1.0
  H  H149  1  0.630000  0.403000  0.969300  1.0
  H  H150  1  0.370000  0.597000  0.030700  1.0
  H  H151  1  0.580900  0.337100  0.937500  1.0
  H  H152  1  0.419100  0.662900  0.062500  1.0
  H  H153  1  0.783900  0.389000  0.951000  1.0
  H  H154  1  0.216100  0.611000  0.049000  1.0
  H  H155  1  0.700100  0.313600  0.992900  1.0
  H  H156  1  0.299900  0.686400  0.007100  1.0
  H  H157  1  0.837600  0.184400  0.002500  1.0
  H  H158  1  0.162400  0.815600  0.997500  1.0
  H  H159  1  0.873200  0.260700  0.032600  1.0
  H  H160  1  0.126800  0.739300  0.967400  1.0
  H  H161  1  0.929700  0.246900  0.934300  1.0
  H  H162  1  0.070300  0.753100  0.065700  1.0
  H  H163  1  0.343600  0.968300  0.856800  1.0
  H  H164  1  0.656400  0.031700  0.143200  1.0
  H  H165  1  0.616200  0.139300  0.015100  1.0
  H  H166  1  0.383800  0.860700  0.984900  1.0
  H  H167  1  0.911600  0.046500  0.869600  1.0
  H  H168  1  0.088400  0.953500  0.130400  1.0
  H  H169  1  0.052800  0.072600  0.003400  1.0
  H  H170  1  0.947200  0.927400  0.996600  1.0
  Pt  Pt171  1  0.200550  0.150420  0.643980  1
  Pt  Pt172  1  0.799450  0.849580  0.356020  1
  Pt  Pt173  1  0.756470  0.192040  0.806290  1
  Pt  Pt174  1  0.243530  0.807960  0.193710  1
  Pt  Pt175  1  0.160397  0.148053  0.654063  1.0
  Pt  Pt176  1  0.839603  0.851947  0.345937  1.0
  Pt  Pt177  1  0.720774  0.211201  0.813354  1.0
  Pt  Pt178  1  0.279226  0.788799  0.186646  1.0
  C  C179  1  0.537400  0.328500  0.251600  1
  C  C180  1  0.462600  0.671500  0.748400  1
  C  C181  1  0.281200  0.029400  0.789200  1
  C  C182  1  0.718800  0.970600  0.210800  1
  C  C183  1  0.285800  0.980200  0.880200  1
  C  C184  1  0.714200  0.019800  0.119800  1
  C  C185  1  0.369100  0.908500  0.897500  1
  C  C186  1  0.630900  0.091500  0.102500  1
  C  C187  1  0.373200  0.851600  0.983400  1
  C  C188  1  0.626800  0.148400  0.016600  1
  C  C189  1  0.204900  0.940300  0.039800  1
  C  C190  1  0.795100  0.059700  0.960200  1
  C  C191  1  0.201200  0.997900  0.952500  1
  C  C192  1  0.798800  0.002100  0.047500  1
  C  C193  1  0.803200  0.656300  0.952500  1
  C  C194  1  0.196800  0.343700  0.047500  1
  C  C195  1  0.876300  0.635600  0.956800  1
  C  C196  1  0.123700  0.364400  0.043200  1
  C  C197  1  0.124300  0.202600  0.537400  1.0
  C  C198  1  0.875700  0.797400  0.462600  1.0
  C  C199  1  0.204900  0.200500  0.460000  1.0
  C  C200  1  0.795100  0.799500  0.540000  1.0
  C  C201  1  0.187500  0.237600  0.374900  1.0
  C  C202  1  0.812500  0.762400  0.625100  1.0
  C  C203  1  0.079300  0.280600  0.370700  1.0
  C  C204  1  0.920700  0.719400  0.629300  1.0
  C  C205  1  0.990800  0.283400  0.451680  1.0
  C  C206  1  0.009200  0.716600  0.548320  1.0
  C  C207  1  0.885900  0.327800  0.446960  1.0
  C  C208  1  0.114100  0.672200  0.553040  1.0
  C  C209  1  0.798800  0.333200  0.522940  1.0
  C  C210  1  0.201200  0.666800  0.477060  1.0
  C  C211  1  0.692200  0.385300  0.518800  1.0
  C  C212  1  0.307800  0.614700  0.481200  1.0
  C  C213  1  0.607900  0.393200  0.591500  1.0
  C  C214  1  0.392100  0.606800  0.408500  1.0
  C  C215  1  0.625700  0.344100  0.677200  1.0
  C  C216  1  0.374300  0.655900  0.322800  1.0
  C  C217  1  0.721400  0.290700  0.687900  1.0
  C  C218  1  0.278600  0.709300  0.312100  1.0
  C  C219  1  0.815400  0.287000  0.610900  1.0
  C  C220  1  0.184600  0.713000  0.389100  1.0
  C  C221  1  0.924700  0.242000  0.612660  1.0
  C  C222  1  0.075300  0.758000  0.387340  1.0
  C  C223  1  0.015800  0.240300  0.536200  1.0
  C  C224  1  0.984200  0.759700  0.463800  1.0
  C  C225  1  0.227800  0.315700  0.724700  1.0
  C  C226  1  0.772200  0.684300  0.275300  1.0
  C  C227  1  0.273900  0.402000  0.714800  1.0
  C  C228  1  0.726100  0.598000  0.285200  1.0
  C  C229  1  0.349000  0.309300  0.543000  1.0
  C  C230  1  0.651000  0.690700  0.457000  1.0
  C  C231  1  0.441000  0.231600  0.571400  1.0
  C  C232  1  0.559000  0.768400  0.428600  1.0
  C  C233  1  0.127700  0.408200  0.580200  1.0
  C  C234  1  0.872300  0.591800  0.419800  1.0
  C  C235  1  0.152200  0.443000  0.479500  1.0
  C  C236  1  0.847800  0.557000  0.520500  1.0
  C  C237  1  0.138500  0.902900  0.763000  1.0
  C  C238  1  0.861500  0.097100  0.237000  1.0
  C  C239  1  0.054700  0.903800  0.847200  1.0
  C  C240  1  0.945300  0.096200  0.152800  1.0
  C  C241  1  0.214200  0.958800  0.574000  1.0
  C  C242  1  0.785800  0.041200  0.426000  1.0
  C  C243  1  0.209700  0.848800  0.576500  1.0
  C  C244  1  0.790300  0.151200  0.423500  1.0
  C  C245  1  0.007800  0.999500  0.642200  1.0
  C  C246  1  0.992200  0.000500  0.357800  1.0
  C  C247  1  0.977550  0.905740  0.651700  1.0
  C  C248  1  0.022450  0.094260  0.348300  1.0
  C  C249  1  0.638800  0.982100  0.867300  1.0
  C  C250  1  0.361200  0.017900  0.132700  1.0
  C  C251  1  0.753300  0.928100  0.828200  1.0
  C  C252  1  0.246700  0.071900  0.171800  1.0
  C  C253  1  0.497300  0.148500  0.804300  1.0
  C  C254  1  0.502700  0.851500  0.195700  1.0
  C  C255  1  0.439900  0.166400  0.888700  1.0
  C  C256  1  0.560100  0.833600  0.111300  1.0
  C  C257  1  0.678600  0.089400  0.679000  1.0
  C  C258  1  0.321400  0.910600  0.321000  1.0
  C  C259  1  0.623600  0.015500  0.667200  1.0
  C  C260  1  0.376400  0.984500  0.332800  1.0
  C  C261  1  0.889300  0.384900  0.763300  1.0
  C  C262  1  0.110700  0.615100  0.236700  1.0
  C  C263  1  0.918800  0.465300  0.778800  1.0
  C  C264  1  0.081200  0.534700  0.221200  1.0
  C  C265  1  0.669100  0.434000  0.832200  1.0
  C  C266  1  0.330900  0.566000  0.167800  1.0
  C  C267  1  0.594400  0.402500  0.926600  1.0
  C  C268  1  0.405600  0.597500  0.073400  1.0
  C  C269  1  0.772700  0.325700  0.950700  1.0
  C  C270  1  0.227300  0.674300  0.049300  1.0
  C  C271  1  0.861200  0.247500  0.982900  1.0
  C  C272  1  0.138800  0.752500  0.017100  1.0
  C  C273  1  0.164700  0.099500  0.838300  1.0
  C  C274  1  0.835300  0.900500  0.161700  1.0
  C  C275  1  0.196400  0.033700  0.916100  1.0
  C  C276  1  0.803600  0.966300  0.083900  1.0
  C  C277  1  0.291000  0.968900  0.912900  1.0
  C  C278  1  0.709000  0.031100  0.087100  1.0
  C  C279  1  0.685500  0.098000  0.009900  1.0
  C  C280  1  0.314500  0.902000  0.990100  1.0
  C  C281  1  0.857200  0.042000  0.925600  1.0
  C  C282  1  0.142800  0.958000  0.074400  1.0
  C  C283  1  0.120500  0.028900  0.997700  1.0
  C  C284  1  0.879500  0.971100  0.002300  1.0
  N  N285  1  0.626790  0.707890  0.889760  1
  N  N286  1  0.373210  0.292110  0.110240  1
  N  N287  1  0.926860  0.612820  0.018850  1
  N  N288  1  0.073140  0.387180  0.981150  1
  N  N289  1  0.293800  0.871300  0.053200  1
  N  N290  1  0.706200  0.128700  0.946800  1
  N  N291  1  0.757800  0.103900  0.931700  1.0
  N  N292  1  0.242200  0.896100  0.068300  1.0
  Cl  Cl293  1  0.516100  0.401600  0.321600  1
  Cl  Cl294  1  0.483900  0.598400  0.678400  1
  Cl  Cl295  1  0.524400  0.204300  0.315100  1
  Cl  Cl296  1  0.475600  0.795700  0.684900  1
  Cl  Cl297  1  0.665400  0.338400  0.178600  1
  Cl  Cl298  1  0.334600  0.661600  0.821400  1
  Cl  Cl299  1  0.612900  0.478700  0.151900  1
  Cl  Cl300  1  0.387100  0.521300  0.848100  1
  Cl  Cl301  1  0.776700  0.357600  0.218500  1
  Cl  Cl302  1  0.223300  0.642400  0.781500  1
  Cl  Cl303  1  0.844700  0.724200  0.023400  1
  Cl  Cl304  1  0.155300  0.275800  0.976600  1
  Cl  Cl305  1  0.739000  0.579800  0.031300  1
  Cl  Cl306  1  0.261000  0.420200  0.968700  1
  Cl  Cl307  1  0.914000  0.673900  0.867800  1
  Cl  Cl308  1  0.086000  0.326100  0.132200  1
  Cl  Cl309  1  0.987700  0.659800  0.861200  1
  Cl  Cl310  1  0.012300  0.340200  0.138800  1
  Cl  Cl311  1  0.797100  0.538700  0.028200  1
  Cl  Cl312  1  0.202900  0.461300  0.971800  1
  O  O313  1  0.702200  0.647370  0.858300  1
  O  O314  1  0.297800  0.352630  0.141700  1
  O  O315  1  0.623100  0.724000  0.960040  1
  O  O316  1  0.376900  0.276000  0.039960  1
  O  O317  1  0.554710  0.752900  0.852040  1
  O  O318  1  0.445290  0.247100  0.147960  1
  O  O319  1  0.875880  0.543690  0.055700  1
  O  O320  1  0.124120  0.456310  0.944300  1
  O  O321  1  0.023200  0.599100  0.969060  1
  O  O322  1  0.976800  0.400900  0.030940  1
  O  O323  1  0.885100  0.695000  0.029760  1
  O  O324  1  0.114900  0.305000  0.970240  1
  O  O325  1  0.188200  0.088200  0.784000  1
  O  O326  1  0.811800  0.911800  0.216000  1
  O  O327  1  0.360500  0.016100  0.725400  1
  O  O328  1  0.639500  0.983900  0.274600  1
  O  O329  1  0.241500  0.095200  0.763100  1.0
  O  O330  1  0.758500  0.904800  0.236900  1.0
  O  O331  1  0.074500  0.149600  0.845000  1.0
  O  O332  1  0.925500  0.850400  0.155000  1.0
