# generated using pymatgen
data_CuH18C27N2(ClO)3
_symmetry_space_group_name_H-M   'P 1'
_cell_length_a   11.11293666
_cell_length_b   11.11293666
_cell_length_c   13.64400000
_cell_angle_alpha   72.55048279
_cell_angle_beta   72.55048279
_cell_angle_gamma   78.61037375
_symmetry_Int_Tables_number   1
_chemical_formula_structural   CuH18C27N2(ClO)3
_chemical_formula_sum   'Cu2 H36 C54 N4 Cl6 O6'
_cell_volume   1522.73643058
_cell_formula_units_Z   2
loop_
 _symmetry_equiv_pos_site_id
 _symmetry_equiv_pos_as_xyz
  1  'x, y, z'
loop_
 _atom_site_type_symbol
 _atom_site_label
 _atom_site_symmetry_multiplicity
 _atom_site_fract_x
 _atom_site_fract_y
 _atom_site_fract_z
 _atom_site_occupancy
  C  C1  1  0.805500  0.788100  0.258200  1
  C  C2  1  0.211900  0.194500  0.741800  1
  C  C3  1  0.432200  0.889200  0.386500  1.0
  C  C4  1  0.110800  0.567800  0.613500  1.0
  C  C5  1  0.437800  0.970400  0.282100  1.0
  C  C6  1  0.029600  0.562200  0.717900  1.0
  C  C7  1  0.338600  0.062000  0.263800  1.0
  C  C8  1  0.938000  0.661400  0.736200  1.0
  C  C9  1  0.230200  0.078600  0.342500  1.0
  C  C10  1  0.921400  0.769800  0.657500  1.0
  C  C11  1  0.220300  0.001300  0.444900  1.0
  C  C12  1  0.998700  0.779700  0.555100  1.0
  C  C13  1  0.323200  0.904400  0.466300  1.0
  C  C14  1  0.095600  0.676800  0.533700  1.0
  C  C15  1  0.299700  0.824700  0.572500  1.0
  C  C16  1  0.175300  0.700300  0.427500  1.0
  C  C17  1  0.327900  0.663300  0.719800  1.0
  C  C18  1  0.336700  0.672100  0.280200  1.0
  C  C19  1  0.269500  0.728100  0.797000  1.0
  C  C20  1  0.271900  0.730500  0.203000  1.0
  C  C21  1  0.218900  0.659500  0.899300  1.0
  C  C22  1  0.340500  0.781100  0.100700  1.0
  C  C23  1  0.225400  0.533200  0.925500  1.0
  C  C24  1  0.466800  0.774600  0.074500  1.0
  C  C25  1  0.286600  0.466800  0.850200  1.0
  C  C26  1  0.533200  0.713400  0.149800  1.0
  C  C27  1  0.338200  0.529200  0.747100  1.0
  C  C28  1  0.470800  0.661800  0.252900  1.0
  C  C29  1  0.736400  0.479400  0.461200  1.0
  C  C30  1  0.520600  0.263600  0.538800  1.0
  C  C31  1  0.792500  0.400300  0.389500  1.0
  C  C32  1  0.599700  0.207500  0.610500  1.0
  C  C33  1  0.890300  0.306900  0.407100  1.0
  C  C34  1  0.693100  0.109700  0.592900  1.0
  C  C35  1  0.940600  0.285400  0.495700  1.0
  C  C36  1  0.714600  0.059400  0.504300  1.0
  C  C37  1  0.886500  0.358100  0.565000  1.0
  C  C38  1  0.641900  0.113500  0.435000  1.0
  C  C39  1  0.784800  0.454400  0.552000  1.0
  C  C40  1  0.545600  0.215200  0.448000  1.0
  C  C41  1  0.735500  0.523300  0.630400  1.0
  C  C42  1  0.476700  0.264500  0.369600  1.0
  C  C43  1  0.608700  0.667900  0.723900  1.0
  C  C44  1  0.332100  0.391300  0.276100  1.0
  C  C45  1  0.597600  0.590400  0.828000  1.0
  C  C46  1  0.409600  0.402400  0.172000  1.0
  C  C47  1  0.569900  0.645900  0.911700  1.0
  C  C48  1  0.354100  0.430100  0.088300  1.0
  C  C49  1  0.223900  0.446700  0.107000  1.0
  C  C50  1  0.553300  0.776100  0.893000  1.0
  C  C51  1  0.146100  0.441100  0.210700  1.0
  C  C52  1  0.558900  0.853900  0.789300  1.0
  C  C53  1  0.587500  0.796500  0.708300  1.0
  C  C54  1  0.203500  0.412500  0.291700  1.0
  Cl  Cl55  1  0.886200  0.695400  0.168900  1
  Cl  Cl56  1  0.304600  0.113800  0.831100  1
  Cl  Cl57  1  0.885800  0.755200  0.358100  1
  Cl  Cl58  1  0.244800  0.114200  0.641900  1
  Cl  Cl59  1  0.798500  0.946500  0.190100  1
  Cl  Cl60  1  0.053500  0.201500  0.809900  1
  Cu  Cu61  1  0.544840  0.676320  0.526210  1.0
  Cu  Cu62  1  0.323680  0.455160  0.473790  1.0
  H  H63  1  0.508600  0.961000  0.226400  1.0
  H  H64  1  0.039000  0.491400  0.773600  1.0
  H  H65  1  0.345000  0.114800  0.195600  1.0
  H  H66  1  0.885200  0.655000  0.804400  1.0
  H  H67  1  0.164300  0.141100  0.327300  1.0
  H  H68  1  0.858900  0.835700  0.672700  1.0
  H  H69  1  0.148000  0.011800  0.499200  1.0
  H  H70  1  0.988200  0.852000  0.500800  1.0
  H  H71  1  0.222000  0.843000  0.618700  1.0
  H  H72  1  0.157000  0.778000  0.381300  1.0
  H  H73  1  0.264300  0.816100  0.780500  1.0
  H  H74  1  0.183900  0.735700  0.219500  1.0
  H  H75  1  0.179000  0.702600  0.951400  1.0
  H  H76  1  0.297400  0.821000  0.048600  1.0
  H  H77  1  0.293000  0.378600  0.869600  1.0
  H  H78  1  0.621400  0.707000  0.130400  1.0
  H  H79  1  0.379100  0.484500  0.696200  1.0
  H  H80  1  0.515500  0.620900  0.303800  1.0
  H  H81  1  0.762100  0.412500  0.330300  1.0
  H  H82  1  0.587500  0.237900  0.669700  1.0
  H  H83  1  0.924600  0.256400  0.359700  1.0
  H  H84  1  0.743600  0.075400  0.640300  1.0
  H  H85  1  0.008500  0.223300  0.505900  1.0
  H  H86  1  0.776700  0.991500  0.494100  1.0
  H  H87  1  0.918100  0.343700  0.623900  1.0
  H  H88  1  0.656300  0.081900  0.376100  1.0
  H  H89  1  0.777200  0.503400  0.684100  1.0
  H  H90  1  0.496600  0.222800  0.315900  1.0
  H  H91  1  0.608800  0.502400  0.840500  1.0
  H  H92  1  0.497600  0.391200  0.159500  1.0
  H  H93  1  0.562500  0.595100  0.980700  1.0
  H  H94  1  0.404900  0.437500  0.019300  1.0
  H  H95  1  0.058200  0.456400  0.223500  1.0
  H  H96  1  0.543600  0.941800  0.776500  1.0
  H  H97  1  0.592600  0.847200  0.639500  1.0
  H  H98  1  0.152800  0.407400  0.360500  1.0
  N  N99  1  0.376200  0.729000  0.611300  1.0
  N  N100  1  0.271000  0.623800  0.388700  1.0
  N  N101  1  0.638100  0.611900  0.636300  1.0
  N  N102  1  0.388100  0.361900  0.363700  1.0
  O  O103  1  0.527700  0.804100  0.400900  1.0
  O  O104  1  0.195900  0.472300  0.599100  1.0
  O  O105  1  0.645900  0.567900  0.440100  1.0
  O  O106  1  0.432100  0.354100  0.559900  1.0
  O  O107  1  0.163600  0.466600  0.028200  1.0
  O  O108  1  0.533400  0.836400  0.971800  1.0
