# generated using pymatgen
data_Cs6Sn2P6H30Pd3C138Br6(NO3)8
_symmetry_space_group_name_H-M   'P 1'
_cell_length_a   18.01340000
_cell_length_b   18.52990000
_cell_length_c   28.63880000
_cell_angle_alpha   99.49400000
_cell_angle_beta   98.31500000
_cell_angle_gamma   119.07700000
_symmetry_Int_Tables_number   1
_chemical_formula_structural   Cs6Sn2P6H30Pd3C138Br6(NO3)8
_chemical_formula_sum   'Cs12 Sn4 P12 H60 Pd6 C276 Br12 N16 O48'
_cell_volume   7954.95720660
_cell_formula_units_Z   2
loop_
 _symmetry_equiv_pos_site_id
 _symmetry_equiv_pos_as_xyz
  1  'x, y, z'
loop_
 _atom_site_type_symbol
 _atom_site_label
 _atom_site_symmetry_multiplicity
 _atom_site_fract_x
 _atom_site_fract_y
 _atom_site_fract_z
 _atom_site_occupancy
  Cs  Cs1  1  0.175700  0.283300  0.257510  1
  Cs  Cs2  1  0.824300  0.716700  0.742490  1
  Cs  Cs3  1  0.030000  0.149860  0.989630  1
  Cs  Cs4  1  0.970000  0.850140  0.010370  1
  Cs  Cs5  1  0.286000  0.107240  0.249690  1
  Cs  Cs6  1  0.714000  0.892760  0.750310  1
  Cs  Cs7  1  0.987800  0.000000  0.218300  1
  Cs  Cs8  1  0.012200  0.000000  0.781700  1
  Cs  Cs9  1  0.174100  0.154200  0.499800  1
  Cs  Cs10  1  0.825900  0.845800  0.500200  1
  Cs  Cs11  1  0.143000  0.110000  0.496700  1
  Cs  Cs12  1  0.857000  0.890000  0.503300  1
  Sn  Sn13  1  0.168300  0.149700  0.364990  1
  Sn  Sn14  1  0.831700  0.850300  0.635010  1
  Sn  Sn15  1  0.138340  0.112810  0.118990  1
  Sn  Sn16  1  0.861660  0.887190  0.881010  1
  P  P17  1  0.766500  0.111900  0.291300  1
  P  P18  1  0.233500  0.888100  0.708700  1
  P  P19  1  0.744600  0.087200  0.124400  1
  P  P20  1  0.255400  0.912800  0.875600  1
  P  P21  1  0.533400  0.540000  0.377300  1
  P  P22  1  0.466600  0.460000  0.622700  1
  P  P23  1  0.517300  0.511300  0.210800  1
  P  P24  1  0.482700  0.488700  0.789200  1
  P  P25  1  0.138000  0.761400  0.295800  1
  P  P26  1  0.862000  0.238600  0.704200  1
  P  P27  1  0.130400  0.741600  0.131600  1
  P  P28  1  0.869600  0.258400  0.868400  1
  H  H29  1  0.597000  0.078000  0.257800  1
  H  H30  1  0.403000  0.922000  0.742200  1
  H  H31  1  0.453000  0.966800  0.249500  1
  H  H32  1  0.547000  0.033200  0.750500  1
  H  H33  1  0.787100  0.484500  0.471700  1
  H  H34  1  0.212900  0.515500  0.528300  1
  H  H35  1  0.640100  0.371200  0.441800  1
  H  H36  1  0.359900  0.628800  0.558200  1
  H  H37  1  0.533000  0.394000  0.402600  1
  H  H38  1  0.467000  0.606000  0.597400  1
  H  H39  1  0.589000  0.629000  0.481600  1
  H  H40  1  0.411000  0.371000  0.518400  1
  H  H41  1  0.747200  0.977500  0.040000  1
  H  H42  1  0.252800  0.022500  0.960000  1
  H  H43  1  0.858300  0.962200  0.015000  1
  H  H44  1  0.141700  0.037800  0.985000  1
  H  H45  1  0.403400  0.823400  0.024800  1
  H  H46  1  0.596600  0.176600  0.975200  1
  H  H47  1  0.601400  0.954300  0.150100  1
  H  H48  1  0.398600  0.045700  0.849900  1
  H  H49  1  0.394300  0.348200  0.220400  1
  H  H50  1  0.605700  0.651800  0.779600  1
  H  H51  1  0.400000  0.476800  0.117700  1
  H  H52  1  0.600000  0.523200  0.882300  1
  H  H53  1  0.266000  0.357000  0.068300  1
  H  H54  1  0.734000  0.643000  0.931700  1
  H  H55  1  0.564700  0.562100  0.122600  1
  H  H56  1  0.435300  0.437900  0.877400  1
  H  H57  1  0.353800  0.677500  0.182800  1
  H  H58  1  0.646200  0.322500  0.817200  1
  H  H59  1  0.379100  0.652900  0.105300  1
  H  H60  1  0.620900  0.347100  0.894700  1
  H  H61  1  0.299100  0.664900  0.038000  1
  H  H62  1  0.700900  0.335100  0.962000  1
  H  H63  1  0.158100  0.420600  0.199500  1
  H  H64  1  0.841900  0.579400  0.800500  1
  H  H65  1  0.231500  0.436500  0.172800  1
  H  H66  1  0.768500  0.563500  0.827200  1
  H  H67  1  0.082600  0.492100  0.130400  1
  H  H68  1  0.917400  0.507900  0.869600  1
  H  H69  1  0.092600  0.288100  0.127000  1
  H  H70  1  0.907400  0.711900  0.873000  1
  H  H71  1  0.732000  0.374000  0.315200  1
  H  H72  1  0.268000  0.626000  0.684800  1
  H  H73  1  0.960100  0.459900  0.297800  1
  H  H74  1  0.039900  0.540100  0.702200  1
  H  H75  1  0.393300  0.172200  0.152000  1
  H  H76  1  0.606700  0.827800  0.848000  1
  H  H77  1  0.490900  0.205900  0.176500  1
  H  H78  1  0.509100  0.794100  0.823500  1
  H  H79  1  0.504500  0.062100  0.118500  1
  H  H80  1  0.495500  0.937900  0.881500  1
  H  H81  1  0.458000  0.021300  0.181000  1
  H  H82  1  0.542000  0.978700  0.819000  1
  H  H83  1  0.360900  0.975200  0.150800  1
  H  H84  1  0.639100  0.024800  0.849200  1
  H  H85  1  0.177100  0.557000  0.451700  1
  H  H86  1  0.822900  0.443000  0.548300  1
  H  H87  1  0.177100  0.605300  0.412400  1
  H  H88  1  0.822900  0.394700  0.587600  1
  Pd  Pd89  1  0.760100  0.109000  0.209140  1
  Pd  Pd90  1  0.239900  0.891000  0.790860  1
  Pd  Pd91  1  0.524900  0.532700  0.294310  1
  Pd  Pd92  1  0.475100  0.467300  0.705690  1
  Pd  Pd93  1  0.123700  0.749730  0.212310  1
  Pd  Pd94  1  0.876300  0.250270  0.787690  1
  C  C95  1  0.995200  0.095800  0.371300  1
  C  C96  1  0.004800  0.904200  0.628700  1
  C  C97  1  0.001600  0.129200  0.330800  1
  C  C98  1  0.998400  0.870800  0.669200  1
  C  C99  1  0.931200  0.132500  0.306100  1
  C  C100  1  0.068800  0.867500  0.693900  1
  C  C101  1  0.854300  0.102400  0.321800  1
  C  C102  1  0.145700  0.897600  0.678200  1
  C  C103  1  0.847800  0.069000  0.362300  1
  C  C104  1  0.152200  0.931000  0.637700  1
  C  C105  1  0.918000  0.066000  0.387000  1
  C  C106  1  0.082000  0.934000  0.613000  1
  C  C107  1  0.658700  0.023100  0.286900  1
  C  C108  1  0.341300  0.976900  0.713100  1
  C  C109  1  0.588000  0.030000  0.267700  1
  C  C110  1  0.412000  0.970000  0.732300  1
  C  C111  1  0.502000  0.964000  0.262700  1
  C  C112  1  0.498000  0.036000  0.737300  1
  C  C113  1  0.487300  0.891000  0.277000  1
  C  C114  1  0.512700  0.109000  0.723000  1
  C  C115  1  0.558000  0.884000  0.296200  1
  C  C116  1  0.442000  0.116000  0.703800  1
  C  C117  1  0.644000  0.950000  0.301200  1
  C  C118  1  0.356000  0.050000  0.698800  1
  C  C119  1  0.784000  0.207000  0.334200  1
  C  C120  1  0.216000  0.793000  0.665800  1
  C  C121  1  0.853000  0.287000  0.335800  1
  C  C122  1  0.147000  0.713000  0.664200  1
  C  C123  1  0.877000  0.358700  0.373500  1
  C  C124  1  0.123000  0.641300  0.626500  1
  C  C125  1  0.832000  0.350000  0.409500  1
  C  C126  1  0.168000  0.650000  0.590500  1
  C  C127  1  0.762000  0.269000  0.407800  1
  C  C128  1  0.238000  0.731000  0.592200  1
  C  C129  1  0.738000  0.198000  0.370200  1
  C  C130  1  0.262000  0.802000  0.629800  1
  C  C131  1  0.290400  0.326600  0.410500  1
  C  C132  1  0.709600  0.673400  0.589500  1
  C  C133  1  0.313900  0.311100  0.367300  1
  C  C134  1  0.686100  0.688900  0.632700  1
  C  C135  1  0.385000  0.377400  0.356800  1
  C  C136  1  0.615000  0.622600  0.643200  1
  C  C137  1  0.432700  0.459200  0.389500  1
  C  C138  1  0.567300  0.540800  0.610500  1
  C  C139  1  0.409000  0.474700  0.432700  1
  C  C140  1  0.591000  0.525300  0.567300  1
  C  C141  1  0.338000  0.408000  0.443200  1
  C  C142  1  0.662000  0.592000  0.556800  1
  C  C143  1  0.616100  0.522000  0.409100  1
  C  C144  1  0.383900  0.478000  0.590900  1
  C  C145  1  0.704000  0.588700  0.427000  1
  C  C146  1  0.296000  0.411300  0.573000  1
  C  C147  1  0.766900  0.574000  0.450400  1
  C  C148  1  0.233100  0.426000  0.549600  1
  C  C149  1  0.742000  0.493000  0.456000  1
  C  C150  1  0.258000  0.507000  0.544000  1
  C  C151  1  0.655000  0.426000  0.438100  1
  C  C152  1  0.345000  0.574000  0.561900  1
  C  C153  1  0.591700  0.440300  0.414700  1
  C  C154  1  0.408300  0.559700  0.585300  1
  C  C155  1  0.561000  0.644200  0.413800  1
  C  C156  1  0.439000  0.355800  0.586200  1
  C  C157  1  0.587000  0.668000  0.464900  1
  C  C158  1  0.413000  0.332000  0.535100  1
  C  C159  1  0.612000  0.750000  0.491400  1
  C  C160  1  0.388000  0.250000  0.508600  1
  C  C161  1  0.611000  0.808100  0.466700  1
  C  C162  1  0.389000  0.191900  0.533300  1
  C  C163  1  0.585000  0.785000  0.415500  1
  C  C164  1  0.415000  0.215000  0.584500  1
  C  C165  1  0.560000  0.703000  0.389100  1
  C  C166  1  0.440000  0.297000  0.610900  1
  C  C167  1  0.210400  0.028000  0.384800  1
  C  C168  1  0.789600  0.972000  0.615200  1
  C  C169  1  0.168800  0.996900  0.334700  1
  C  C170  1  0.831200  0.003100  0.665300  1
  C  C171  1  0.148100  0.915900  0.308900  1
  C  C172  1  0.851900  0.084100  0.691100  1
  C  C173  1  0.168900  0.866100  0.333100  1
  C  C174  1  0.831100  0.133900  0.666900  1
  C  C175  1  0.210000  0.897300  0.383200  1
  C  C176  1  0.790000  0.102700  0.616800  1
  C  C177  1  0.231200  0.978200  0.409000  1
  C  C178  1  0.768800  0.021800  0.591000  1
  C  C179  1  0.051200  0.691000  0.318900  1
  C  C180  1  0.948800  0.309000  0.681100  1
  C  C181  1  0.967000  0.674000  0.300300  1
  C  C182  1  0.033000  0.326000  0.699700  1
  C  C183  1  0.899000  0.627000  0.320900  1
  C  C184  1  0.101000  0.373000  0.679100  1
  C  C185  1  0.916000  0.596000  0.360100  1
  C  C186  1  0.084000  0.404000  0.639900  1
  C  C187  1  0.000000  0.613000  0.378600  1
  C  C188  1  0.000000  0.387000  0.621400  1
  C  C189  1  0.068000  0.661000  0.358000  1
  C  C190  1  0.932000  0.339000  0.642000  1
  C  C191  1  0.223500  0.736500  0.312000  1
  C  C192  1  0.776500  0.263500  0.688000  1
  C  C193  1  0.201000  0.652800  0.290700  1
  C  C194  1  0.799000  0.347200  0.709300  1
  C  C195  1  0.263000  0.629200  0.298600  1
  C  C196  1  0.737000  0.370800  0.701400  1
  C  C197  1  0.348000  0.689000  0.327700  1
  C  C198  1  0.652000  0.311000  0.672300  1
  C  C199  1  0.370900  0.773000  0.349000  1
  C  C200  1  0.629100  0.227000  0.651000  1
  C  C201  1  0.308500  0.796600  0.341100  1
  C  C202  1  0.691500  0.203400  0.658900  1
  C  C203  1  0.956500  0.044900  0.076700  1
  C  C204  1  0.043500  0.955100  0.923300  1
  C  C205  1  0.975400  0.099300  0.122400  1
  C  C206  1  0.024600  0.900700  0.877600  1
  C  C207  1  0.909300  0.108300  0.137400  1
  C  C208  1  0.090700  0.891700  0.862600  1
  C  C209  1  0.824200  0.062900  0.106600  1
  C  C210  1  0.175800  0.937100  0.893400  1
  C  C211  1  0.805200  0.008400  0.060900  1
  C  C212  1  0.194800  0.991600  0.939100  1
  C  C213  1  0.871300  0.999400  0.046000  1
  C  C214  1  0.128700  0.000600  0.954000  1
  C  C215  1  0.755600  0.172500  0.096900  1
  C  C216  1  0.244400  0.827500  0.903100  1
  C  C217  1  0.693100  0.196300  0.096200  1
  C  C218  1  0.306900  0.803700  0.903800  1
  C  C219  1  0.702600  0.263800  0.076900  1
  C  C220  1  0.297400  0.736200  0.923100  1
  C  C221  1  0.775000  0.307400  0.058300  1
  C  C222  1  0.225000  0.692600  0.941700  1
  C  C223  1  0.837200  0.283600  0.058900  1
  C  C224  1  0.162800  0.716400  0.941100  1
  C  C225  1  0.827700  0.216100  0.078300  1
  C  C226  1  0.172300  0.783900  0.921700  1
  C  C227  1  0.633700  0.998800  0.091200  1
  C  C228  1  0.366300  0.001200  0.908800  1
  C  C229  1  0.602200  0.985500  0.041200  1
  C  C230  1  0.397800  0.014500  0.958800  1
  C  C231  1  0.516000  0.919000  0.016500  1
  C  C232  1  0.484000  0.081000  0.983500  1
  C  C233  1  0.462100  0.866800  0.041800  1
  C  C234  1  0.537900  0.133200  0.958200  1
  C  C235  1  0.493500  0.880000  0.091800  1
  C  C236  1  0.506500  0.120000  0.908200  1
  C  C237  1  0.579000  0.946000  0.116500  1
  C  C238  1  0.421000  0.054000  0.883500  1
  C  C239  1  0.251300  0.281500  0.114700  1
  C  C240  1  0.748700  0.718500  0.885300  1
  C  C241  1  0.289100  0.279000  0.160100  1
  C  C242  1  0.710900  0.721000  0.839900  1
  C  C243  1  0.368300  0.350300  0.189500  1
  C  C244  1  0.631700  0.649700  0.810500  1
  C  C245  1  0.409800  0.424100  0.173600  1
  C  C246  1  0.590200  0.575900  0.826400  1
  C  C247  1  0.372100  0.426600  0.128300  1
  C  C248  1  0.627900  0.573400  0.871700  1
  C  C249  1  0.292800  0.355300  0.098800  1
  C  C250  1  0.707200  0.644700  0.901200  1
  C  C251  1  0.597000  0.484000  0.194100  1
  C  C252  1  0.403000  0.516000  0.805900  1
  C  C253  1  0.683000  0.548500  0.199400  1
  C  C254  1  0.317000  0.451500  0.800600  1
  C  C255  1  0.745800  0.527000  0.192400  1
  C  C256  1  0.254200  0.473000  0.807600  1
  C  C257  1  0.722000  0.441000  0.180100  1
  C  C258  1  0.278000  0.559000  0.819900  1
  C  C259  1  0.635000  0.376600  0.174900  1
  C  C260  1  0.365000  0.623400  0.825100  1
  C  C261  1  0.572500  0.398100  0.181900  1
  C  C262  1  0.427500  0.601900  0.818100  1
  C  C263  1  0.545000  0.604000  0.186800  1
  C  C264  1  0.455000  0.396000  0.813200  1
  C  C265  1  0.564000  0.607000  0.141500  1
  C  C266  1  0.436000  0.393000  0.858500  1
  C  C267  1  0.582000  0.678000  0.124200  1
  C  C268  1  0.418000  0.322000  0.875800  1
  C  C269  1  0.561000  0.743000  0.197600  1
  C  C270  1  0.439000  0.257000  0.802400  1
  C  C271  1  0.581000  0.746000  0.152300  1
  C  C272  1  0.419000  0.254000  0.847700  1
  C  C273  1  0.543000  0.672000  0.214800  1
  C  C274  1  0.457000  0.328000  0.785200  1
  C  C275  1  0.184400  0.989300  0.089400  1
  C  C276  1  0.815600  0.010700  0.910600  1
  C  C277  1  0.147800  0.968100  0.128400  1
  C  C278  1  0.852200  0.031900  0.871600  1
  C  C279  1  0.133600  0.893600  0.140900  1
  C  C280  1  0.866400  0.106400  0.859100  1
  C  C281  1  0.156000  0.840300  0.114300  1
  C  C282  1  0.844000  0.159700  0.885700  1
  C  C283  1  0.192500  0.861500  0.075200  1
  C  C284  1  0.807500  0.138500  0.924800  1
  C  C285  1  0.206700  0.936000  0.062800  1
  C  C286  1  0.793300  0.064000  0.937200  1
  C  C287  1  0.029000  0.663900  0.083800  1
  C  C288  1  0.971000  0.336100  0.916200  1
  C  C289  1  0.967000  0.686900  0.073300  1
  C  C290  1  0.033000  0.313100  0.926700  1
  C  C291  1  0.883100  0.626000  0.042600  1
  C  C292  1  0.116900  0.374000  0.957400  1
  C  C293  1  0.862000  0.543000  0.022400  1
  C  C294  1  0.138000  0.457000  0.977600  1
  C  C295  1  0.924000  0.519800  0.032900  1
  C  C296  1  0.076000  0.480200  0.967100  1
  C  C297  1  0.007900  0.580400  0.063600  1
  C  C298  1  0.992100  0.419600  0.936400  1
  C  C299  1  0.211200  0.711400  0.121300  1
  C  C300  1  0.788800  0.288600  0.878700  1
  C  C301  1  0.259000  0.704300  0.161200  1
  C  C302  1  0.741000  0.295700  0.838800  1
  C  C303  1  0.321700  0.683000  0.155100  1
  C  C304  1  0.678300  0.317000  0.844900  1
  C  C305  1  0.336600  0.668000  0.109000  1
  C  C306  1  0.663400  0.332000  0.891000  1
  C  C307  1  0.288800  0.675000  0.069000  1
  C  C308  1  0.711200  0.325000  0.931000  1
  C  C309  1  0.226100  0.696800  0.075100  1
  C  C310  1  0.773900  0.303200  0.924900  1
  C  C311  1  0.080000  0.321000  0.108000  1
  C  C312  1  0.920000  0.679000  0.892000  1
  C  C313  1  0.183000  0.442000  0.175000  1
  C  C314  1  0.817000  0.558000  0.825000  1
  C  C315  1  0.102000  0.466000  0.109000  1
  C  C316  1  0.898000  0.534000  0.891000  1
  C  C317  1  0.535000  0.335000  0.286800  1
  C  C318  1  0.465000  0.665000  0.713200  1
  C  C319  1  0.694000  0.395000  0.309000  1
  C  C320  1  0.306000  0.605000  0.691000  1
  C  C321  1  0.587000  0.239000  0.300000  1
  C  C322  1  0.413000  0.761000  0.700000  1
  C  C323  1  0.024000  0.381000  0.263000  1
  C  C324  1  0.976000  0.619000  0.737000  1
  C  C325  1  0.940000  0.448000  0.264000  1
  C  C326  1  0.060000  0.552000  0.736000  1
  C  C327  1  0.940000  0.381000  0.188000  1
  C  C328  1  0.060000  0.619000  0.812000  1
  C  C329  1  0.436000  0.159000  0.160000  1
  C  C330  1  0.564000  0.841000  0.840000  1
  C  C331  1  0.446000  0.129000  0.117000  1
  C  C332  1  0.554000  0.871000  0.883000  1
  C  C333  1  0.449000  0.052000  0.118000  1
  C  C334  1  0.551000  0.948000  0.882000  1
  C  C335  1  0.417000  0.027000  0.163000  1
  C  C336  1  0.583000  0.973000  0.837000  1
  C  C337  1  0.240000  0.483000  0.370000  1
  C  C338  1  0.760000  0.517000  0.630000  1
  C  C339  1  0.178000  0.558000  0.420000  1
  C  C340  1  0.822000  0.442000  0.580000  1
  C  C341  1  0.320000  0.625000  0.437000  1
  C  C342  1  0.680000  0.375000  0.563000  1
  C  C343  1  0.035000  0.349000  0.462000  1
  C  C344  1  0.965000  0.651000  0.538000  1
  C  C345  1  0.316000  0.954000  0.536000  1
  C  C346  1  0.684000  0.046000  0.464000  1
  C  C347  1  0.159000  0.841000  0.504000  1
  C  C348  1  0.841000  0.159000  0.496000  1
  C  C349  1  0.329000  0.482000  0.959000  1
  C  C350  1  0.671000  0.518000  0.041000  1
  C  C351  1  0.379000  0.523000  0.012000  1
  C  C352  1  0.621000  0.477000  0.988000  1
  C  C353  1  0.385000  0.564000  0.967000  1
  C  C354  1  0.615000  0.436000  0.033000  1
  C  C355  1  0.384000  0.622000  0.983000  1
  C  C356  1  0.616000  0.378000  0.017000  1
  C  C357  1  0.108000  0.042000  0.487000  1
  C  C358  1  0.892000  0.958000  0.513000  1
  C  C359  1  0.139000  0.168000  0.502000  1
  C  C360  1  0.861000  0.832000  0.498000  1
  C  C361  1  0.161000  0.154000  0.669000  1
  C  C362  1  0.839000  0.846000  0.331000  1
  C  C363  1  0.238000  0.967000  0.534000  1
  C  C364  1  0.762000  0.033000  0.466000  1
  C  C365  1  0.473000  0.137000  0.394000  1
  C  C366  1  0.527000  0.863000  0.606000  1
  C  C367  1  0.073000  0.442000  0.550000  1
  C  C368  1  0.927000  0.558000  0.450000  1
  C  C369  1  0.922000  0.869000  0.178000  1
  C  C370  1  0.078000  0.131000  0.822000  1
  Br  Br371  1  0.767700  0.979200  0.201480  1
  Br  Br372  1  0.232300  0.020800  0.798520  1
  Br  Br373  1  0.732600  0.225500  0.216820  1
  Br  Br374  1  0.267400  0.774500  0.783180  1
  Br  Br375  1  0.374400  0.502700  0.279700  1
  Br  Br376  1  0.625600  0.497300  0.720300  1
  Br  Br377  1  0.682700  0.605300  0.312800  1
  Br  Br378  1  0.317300  0.394700  0.687200  1
  Br  Br379  1  0.267700  0.882500  0.235600  1
  Br  Br380  1  0.732300  0.117500  0.764400  1
  Br  Br381  1  0.989100  0.611400  0.187960  1
  Br  Br382  1  0.010900  0.388600  0.812040  1
  N  N383  1  0.119000  0.404000  0.128500  1
  N  N384  1  0.881000  0.596000  0.871500  1
  N  N385  1  0.599000  0.324000  0.295100  1
  N  N386  1  0.401000  0.676000  0.704900  1
  N  N387  1  0.970000  0.399000  0.238000  1
  N  N388  1  0.030000  0.601000  0.762000  1
  N  N389  1  0.249000  0.555000  0.408000  1
  N  N390  1  0.751000  0.445000  0.592000  1
  N  N391  1  0.033000  0.411000  0.490000  1
  N  N392  1  0.967000  0.589000  0.510000  1
  N  N393  1  0.220000  0.169000  0.709000  1
  N  N394  1  0.780000  0.831000  0.291000  1
  N  N395  1  0.087000  0.141000  0.672000  1
  N  N396  1  0.913000  0.859000  0.328000  1
  N  N397  1  0.423000  0.064000  0.348000  1
  N  N398  1  0.577000  0.936000  0.652000  1
  O  O399  1  0.231000  0.107000  0.408100  1
  O  O400  1  0.769000  0.893000  0.591900  1
  O  O401  1  0.145200  0.045000  0.311700  1
  O  O402  1  0.854800  0.955000  0.688300  1
  O  O403  1  0.063000  0.092000  0.394200  1
  O  O404  1  0.937000  0.908000  0.605800  1
  O  O405  1  0.078200  0.160200  0.317300  1
  O  O406  1  0.921800  0.839800  0.682700  1
  O  O407  1  0.221000  0.262000  0.419700  1
  O  O408  1  0.779000  0.738000  0.580300  1
  O  O409  1  0.267000  0.228000  0.337700  1
  O  O410  1  0.733000  0.772000  0.662300  1
  O  O411  1  0.195400  0.062300  0.077800  1
  O  O412  1  0.804600  0.937700  0.922200  1
  O  O413  1  0.125300  0.019900  0.154000  1
  O  O414  1  0.874700  0.980100  0.846000  1
  O  O415  1  0.175300  0.210000  0.086600  1
  O  O416  1  0.824700  0.790000  0.913400  1
  O  O417  1  0.245100  0.206100  0.174100  1
  O  O418  1  0.754900  0.793900  0.825900  1
  O  O419  1  0.022000  0.038100  0.064000  1
  O  O420  1  0.978000  0.961900  0.936000  1
  O  O421  1  0.057300  0.137500  0.154900  1
  O  O422  1  0.942700  0.862500  0.845100  1
  O  O423  1  0.026000  0.285000  0.065800  1
  O  O424  1  0.974000  0.715000  0.934200  1
  O  O425  1  0.459000  0.282000  0.279000  1
  O  O426  1  0.541000  0.718000  0.721000  1
  O  O427  1  0.026000  0.310000  0.235000  1
  O  O428  1  0.974000  0.690000  0.765000  1
  O  O429  1  0.407000  0.092000  0.188000  1
  O  O430  1  0.593000  0.908000  0.812000  1
  O  O431  1  0.178000  0.424000  0.344000  1
  O  O432  1  0.822000  0.576000  0.656000  1
  O  O433  1  0.112000  0.181000  0.900000  1
  O  O434  1  0.888000  0.819000  0.100000  1
  O  O435  1  0.065000  0.316000  0.424000  1
  O  O436  1  0.935000  0.684000  0.576000  1
  O  O437  1  0.188000  0.171000  0.618000  1
  O  O438  1  0.812000  0.829000  0.382000  1
  O  O439  1  0.352000  0.229000  0.007000  1
  O  O440  1  0.648000  0.771000  0.993000  1
  O  O441  1  0.274000  0.241000  0.981000  1
  O  O442  1  0.726000  0.759000  0.019000  1
  O  O443  1  0.906000  0.863000  0.128000  1
  O  O444  1  0.094000  0.137000  0.872000  1
  O  O445  1  0.437000  0.188000  0.386000  1
  O  O446  1  0.563000  0.812000  0.614000  1
