# generated using pymatgen
data_Cs5Ti2P6H78Pd3C168Br12N3O22
_symmetry_space_group_name_H-M   'P 1'
_cell_length_a   20.47690000
_cell_length_b   20.47690000
_cell_length_c   21.99820000
_cell_angle_alpha   90.00000000
_cell_angle_beta   90.00000000
_cell_angle_gamma   120.00000000
_symmetry_Int_Tables_number   1
_chemical_formula_structural   Cs5Ti2P6H78Pd3C168Br12N3O22
_chemical_formula_sum   'Cs10 Ti4 P12 H156 Pd6 C336 Br24 N6 O44'
_cell_volume   7988.14972944
_cell_formula_units_Z   2
loop_
 _symmetry_equiv_pos_site_id
 _symmetry_equiv_pos_as_xyz
  1  'x, y, z'
loop_
 _atom_site_type_symbol
 _atom_site_label
 _atom_site_symmetry_multiplicity
 _atom_site_fract_x
 _atom_site_fract_y
 _atom_site_fract_z
 _atom_site_occupancy
  Cs  Cs1  1  0.666667  0.333333  0.923020  1
  Cs  Cs2  1  0.333333  0.666667  0.423020  1
  Cs  Cs3  1  0.333333  0.666667  0.076980  1
  Cs  Cs4  1  0.666667  0.333333  0.576980  1
  Cs  Cs5  1  0.803430  0.360670  0.250000  1
  Cs  Cs6  1  0.557240  0.196570  0.250000  1
  Cs  Cs7  1  0.639330  0.442760  0.250000  1
  Cs  Cs8  1  0.442760  0.803430  0.750000  1
  Cs  Cs9  1  0.360670  0.557240  0.750000  1
  Cs  Cs10  1  0.196570  0.639330  0.750000  1
  Ti  Ti11  1  0.666667  0.333333  0.096210  1.0
  Ti  Ti12  1  0.333333  0.666667  0.596210  1.0
  Ti  Ti13  1  0.333333  0.666667  0.903790  1.0
  Ti  Ti14  1  0.666667  0.333333  0.403790  1.0
  P  P15  1  0.978600  0.680820  0.144280  1.0
  P  P16  1  0.702220  0.021400  0.144280  1.0
  P  P17  1  0.319180  0.297780  0.144280  1.0
  P  P18  1  0.297780  0.978600  0.644280  1.0
  P  P19  1  0.680820  0.702220  0.644280  1.0
  P  P20  1  0.021400  0.319180  0.644280  1.0
  P  P21  1  0.021400  0.319180  0.855720  1.0
  P  P22  1  0.297780  0.978600  0.855720  1.0
  P  P23  1  0.680820  0.702220  0.855720  1.0
  P  P24  1  0.702220  0.021400  0.355720  1.0
  P  P25  1  0.319180  0.297780  0.355720  1.0
  P  P26  1  0.978600  0.680820  0.355720  1.0
  H  H27  1  0.843400  0.552100  0.186600  1.0
  H  H28  1  0.708700  0.156600  0.186600  1.0
  H  H29  1  0.447900  0.291300  0.186600  1.0
  H  H30  1  0.291300  0.843400  0.686600  1.0
  H  H31  1  0.552100  0.708700  0.686600  1.0
  H  H32  1  0.156600  0.447900  0.686600  1.0
  H  H33  1  0.156600  0.447900  0.813400  1.0
  H  H34  1  0.291300  0.843400  0.813400  1.0
  H  H35  1  0.552100  0.708700  0.813400  1.0
  H  H36  1  0.708700  0.156600  0.313400  1.0
  H  H37  1  0.447900  0.291300  0.313400  1.0
  H  H38  1  0.843400  0.552100  0.313400  1.0
  H  H39  1  0.963500  0.604700  0.029700  1.0
  H  H40  1  0.641200  0.036500  0.029700  1.0
  H  H41  1  0.395300  0.358800  0.029700  1.0
  H  H42  1  0.358800  0.963500  0.529700  1.0
  H  H43  1  0.604700  0.641200  0.529700  1.0
  H  H44  1  0.036500  0.395300  0.529700  1.0
  H  H45  1  0.036500  0.395300  0.970300  1.0
  H  H46  1  0.358800  0.963500  0.970300  1.0
  H  H47  1  0.604700  0.641200  0.970300  1.0
  H  H48  1  0.641200  0.036500  0.470300  1.0
  H  H49  1  0.395300  0.358800  0.470300  1.0
  H  H50  1  0.963500  0.604700  0.470300  1.0
  H  H51  1  0.876500  0.489200  0.988300  1.0
  H  H52  1  0.612700  0.123500  0.988300  1.0
  H  H53  1  0.510800  0.387300  0.988300  1.0
  H  H54  1  0.387300  0.876500  0.488300  1.0
  H  H55  1  0.489200  0.612700  0.488300  1.0
  H  H56  1  0.123500  0.510800  0.488300  1.0
  H  H57  1  0.123500  0.510800  0.011700  1.0
  H  H58  1  0.387300  0.876500  0.011700  1.0
  H  H59  1  0.489200  0.612700  0.011700  1.0
  H  H60  1  0.612700  0.123500  0.511700  1.0
  H  H61  1  0.510800  0.387300  0.511700  1.0
  H  H62  1  0.876500  0.489200  0.511700  1.0
  H  H63  1  0.013700  0.829400  0.178500  1.0
  H  H64  1  0.815700  0.986300  0.178500  1.0
  H  H65  1  0.170600  0.184300  0.178500  1.0
  H  H66  1  0.184300  0.013700  0.678500  1.0
  H  H67  1  0.829400  0.815700  0.678500  1.0
  H  H68  1  0.986300  0.170600  0.678500  1.0
  H  H69  1  0.986300  0.170600  0.821500  1.0
  H  H70  1  0.184300  0.013700  0.821500  1.0
  H  H71  1  0.829400  0.815700  0.821500  1.0
  H  H72  1  0.815700  0.986300  0.321500  1.0
  H  H73  1  0.170600  0.184300  0.321500  1.0
  H  H74  1  0.013700  0.829400  0.321500  1.0
  H  H75  1  0.991200  0.921500  0.139300  1.0
  H  H76  1  0.930300  0.008800  0.139300  1.0
  H  H77  1  0.078500  0.069700  0.139300  1.0
  H  H78  1  0.069700  0.991200  0.639300  1.0
  H  H79  1  0.921500  0.930300  0.639300  1.0
  H  H80  1  0.008800  0.078500  0.639300  1.0
  H  H81  1  0.008800  0.078500  0.860700  1.0
  H  H82  1  0.069700  0.991200  0.860700  1.0
  H  H83  1  0.921500  0.930300  0.860700  1.0
  H  H84  1  0.930300  0.008800  0.360700  1.0
  H  H85  1  0.078500  0.069700  0.360700  1.0
  H  H86  1  0.991200  0.921500  0.360700  1.0
  H  H87  1  0.918000  0.897900  0.052800  1.0
  H  H88  1  0.979900  0.082000  0.052800  1.0
  H  H89  1  0.102100  0.020100  0.052800  1.0
  H  H90  1  0.020100  0.918000  0.552800  1.0
  H  H91  1  0.897900  0.979900  0.552800  1.0
  H  H92  1  0.082000  0.102100  0.552800  1.0
  H  H93  1  0.082000  0.102100  0.947200  1.0
  H  H94  1  0.020100  0.918000  0.947200  1.0
  H  H95  1  0.897900  0.979900  0.947200  1.0
  H  H96  1  0.979900  0.082000  0.447200  1.0
  H  H97  1  0.102100  0.020100  0.447200  1.0
  H  H98  1  0.918000  0.897900  0.447200  1.0
  H  H99  1  0.867700  0.782500  0.004700  1.0
  H  H100  1  0.914800  0.132300  0.004700  1.0
  H  H101  1  0.217500  0.085200  0.004700  1.0
  H  H102  1  0.085200  0.867700  0.504700  1.0
  H  H103  1  0.782500  0.914800  0.504700  1.0
  H  H104  1  0.132300  0.217500  0.504700  1.0
  H  H105  1  0.132300  0.217500  0.995300  1.0
  H  H106  1  0.085200  0.867700  0.995300  1.0
  H  H107  1  0.782500  0.914800  0.995300  1.0
  H  H108  1  0.914800  0.132300  0.495300  1.0
  H  H109  1  0.217500  0.085200  0.495300  1.0
  H  H110  1  0.867700  0.782500  0.495300  1.0
  H  H111  1  0.892500  0.690000  0.041700  1.0
  H  H112  1  0.797500  0.107500  0.041700  1.0
  H  H113  1  0.310000  0.202500  0.041700  1.0
  H  H114  1  0.202500  0.892500  0.541700  1.0
  H  H115  1  0.690000  0.797500  0.541700  1.0
  H  H116  1  0.107500  0.310000  0.541700  1.0
  H  H117  1  0.107500  0.310000  0.958300  1.0
  H  H118  1  0.202500  0.892500  0.958300  1.0
  H  H119  1  0.690000  0.797500  0.958300  1.0
  H  H120  1  0.797500  0.107500  0.458300  1.0
  H  H121  1  0.310000  0.202500  0.458300  1.0
  H  H122  1  0.892500  0.690000  0.458300  1.0
  H  H123  1  0.107200  0.818100  0.099100  1.0
  H  H124  1  0.710900  0.892800  0.099100  1.0
  H  H125  1  0.181900  0.289100  0.099100  1.0
  H  H126  1  0.289100  0.107200  0.599100  1.0
  H  H127  1  0.818100  0.710900  0.599100  1.0
  H  H128  1  0.892800  0.181900  0.599100  1.0
  H  H129  1  0.892800  0.181900  0.900900  1.0
  H  H130  1  0.289100  0.107200  0.900900  1.0
  H  H131  1  0.818100  0.710900  0.900900  1.0
  H  H132  1  0.710900  0.892800  0.400900  1.0
  H  H133  1  0.181900  0.289100  0.400900  1.0
  H  H134  1  0.107200  0.818100  0.400900  1.0
  H  H135  1  0.224700  0.848600  0.060600  1.0
  H  H136  1  0.623900  0.775300  0.060600  1.0
  H  H137  1  0.151400  0.376100  0.060600  1.0
  H  H138  1  0.376100  0.224700  0.560600  1.0
  H  H139  1  0.848600  0.623900  0.560600  1.0
  H  H140  1  0.775300  0.151400  0.560600  1.0
  H  H141  1  0.775300  0.151400  0.939400  1.0
  H  H142  1  0.376100  0.224700  0.939400  1.0
  H  H143  1  0.848600  0.623900  0.939400  1.0
  H  H144  1  0.623900  0.775300  0.439400  1.0
  H  H145  1  0.151400  0.376100  0.439400  1.0
  H  H146  1  0.224700  0.848600  0.439400  1.0
  H  H147  1  0.252500  0.755500  0.038500  1.0
  H  H148  1  0.503000  0.747500  0.038500  1.0
  H  H149  1  0.244500  0.497000  0.038500  1.0
  H  H150  1  0.497000  0.252500  0.538500  1.0
  H  H151  1  0.755500  0.503000  0.538500  1.0
  H  H152  1  0.747500  0.244500  0.538500  1.0
  H  H153  1  0.747500  0.244500  0.961500  1.0
  H  H154  1  0.497000  0.252500  0.961500  1.0
  H  H155  1  0.755500  0.503000  0.961500  1.0
  H  H156  1  0.503000  0.747500  0.461500  1.0
  H  H157  1  0.244500  0.497000  0.461500  1.0
  H  H158  1  0.252500  0.755500  0.461500  1.0
  H  H159  1  0.170600  0.632000  0.067000  1.0
  H  H160  1  0.461400  0.829400  0.067000  1.0
  H  H161  1  0.368000  0.538600  0.067000  1.0
  H  H162  1  0.538600  0.170600  0.567000  1.0
  H  H163  1  0.632000  0.461400  0.567000  1.0
  H  H164  1  0.829400  0.368000  0.567000  1.0
  H  H165  1  0.829400  0.368000  0.933000  1.0
  H  H166  1  0.538600  0.170600  0.933000  1.0
  H  H167  1  0.632000  0.461400  0.933000  1.0
  H  H168  1  0.461400  0.829400  0.433000  1.0
  H  H169  1  0.368000  0.538600  0.433000  1.0
  H  H170  1  0.170600  0.632000  0.433000  1.0
  H  H171  1  0.055000  0.600300  0.110900  1.0
  H  H172  1  0.545300  0.945000  0.110900  1.0
  H  H173  1  0.399700  0.454700  0.110900  1.0
  H  H174  1  0.454700  0.055000  0.610900  1.0
  H  H175  1  0.600300  0.545300  0.610900  1.0
  H  H176  1  0.945000  0.399700  0.610900  1.0
  H  H177  1  0.945000  0.399700  0.889100  1.0
  H  H178  1  0.454700  0.055000  0.889100  1.0
  H  H179  1  0.600300  0.545300  0.889100  1.0
  H  H180  1  0.545300  0.945000  0.389100  1.0
  H  H181  1  0.399700  0.454700  0.389100  1.0
  H  H182  1  0.055000  0.600300  0.389100  1.0
  Pd  Pd183  1  0.977190  0.678770  0.250000  1.0
  Pd  Pd184  1  0.701580  0.022810  0.250000  1.0
  Pd  Pd185  1  0.321230  0.298420  0.250000  1.0
  Pd  Pd186  1  0.298420  0.977190  0.750000  1.0
  Pd  Pd187  1  0.678770  0.701580  0.750000  1.0
  Pd  Pd188  1  0.022810  0.321230  0.750000  1.0
  C  C189  1  0.880500  0.297700  0.109800  1
  C  C190  1  0.417200  0.119500  0.109800  1
  C  C191  1  0.702300  0.582800  0.109800  1
  C  C192  1  0.582800  0.880500  0.609800  1
  C  C193  1  0.297700  0.417200  0.609800  1
  C  C194  1  0.119500  0.702300  0.609800  1
  C  C195  1  0.119500  0.702300  0.890200  1
  C  C196  1  0.582800  0.880500  0.890200  1
  C  C197  1  0.297700  0.417200  0.890200  1
  C  C198  1  0.417200  0.119500  0.390200  1
  C  C199  1  0.702300  0.582800  0.390200  1
  C  C200  1  0.880500  0.297700  0.390200  1
  C  C201  1  0.944600  0.314000  0.080500  1
  C  C202  1  0.369400  0.055400  0.080500  1
  C  C203  1  0.686000  0.630600  0.080500  1
  C  C204  1  0.630600  0.944600  0.580500  1
  C  C205  1  0.314000  0.369400  0.580500  1
  C  C206  1  0.055400  0.686000  0.580500  1
  C  C207  1  0.055400  0.686000  0.919500  1
  C  C208  1  0.630600  0.944600  0.919500  1
  C  C209  1  0.314000  0.369400  0.919500  1
  C  C210  1  0.369400  0.055400  0.419500  1
  C  C211  1  0.686000  0.630600  0.419500  1
  C  C212  1  0.944600  0.314000  0.419500  1
  C  C213  1  0.989500  0.408300  0.088100  1
  C  C214  1  0.418800  0.010500  0.088100  1
  C  C215  1  0.591700  0.581200  0.088100  1
  C  C216  1  0.581200  0.989500  0.588100  1
  C  C217  1  0.408300  0.418800  0.588100  1
  C  C218  1  0.010500  0.591700  0.588100  1
  C  C219  1  0.010500  0.591700  0.911900  1
  C  C220  1  0.581200  0.989500  0.911900  1
  C  C221  1  0.408300  0.418800  0.911900  1
  C  C222  1  0.418800  0.010500  0.411900  1
  C  C223  1  0.591700  0.581200  0.411900  1
  C  C224  1  0.989500  0.408300  0.411900  1
  C  C225  1  0.959000  0.414800  0.146500  1
  C  C226  1  0.455800  0.041000  0.146500  1
  C  C227  1  0.585200  0.544200  0.146500  1
  C  C228  1  0.544200  0.959000  0.646500  1
  C  C229  1  0.414800  0.455800  0.646500  1
  C  C230  1  0.041000  0.585200  0.646500  1
  C  C231  1  0.041000  0.585200  0.853500  1
  C  C232  1  0.544200  0.959000  0.853500  1
  C  C233  1  0.414800  0.455800  0.853500  1
  C  C234  1  0.455800  0.041000  0.353500  1
  C  C235  1  0.585200  0.544200  0.353500  1
  C  C236  1  0.959000  0.414800  0.353500  1
  C  C237  1  0.974100  0.792900  0.808600  1
  C  C238  1  0.818800  0.025900  0.808600  1
  C  C239  1  0.207100  0.181200  0.808600  1
  C  C240  1  0.181200  0.974100  0.308600  1
  C  C241  1  0.792900  0.818800  0.308600  1
  C  C242  1  0.025900  0.207100  0.308600  1
  C  C243  1  0.025900  0.207100  0.191400  1
  C  C244  1  0.181200  0.974100  0.191400  1
  C  C245  1  0.792900  0.818800  0.191400  1
  C  C246  1  0.818800  0.025900  0.691400  1
  C  C247  1  0.207100  0.181200  0.691400  1
  C  C248  1  0.974100  0.792900  0.691400  1
  C  C249  1  0.937700  0.708400  0.791900  1
  C  C250  1  0.770700  0.062300  0.791900  1
  C  C251  1  0.291600  0.229300  0.791900  1
  C  C252  1  0.229300  0.937700  0.291900  1
  C  C253  1  0.708400  0.770700  0.291900  1
  C  C254  1  0.062300  0.291600  0.291900  1
  C  C255  1  0.062300  0.291600  0.208100  1
  C  C256  1  0.229300  0.937700  0.208100  1
  C  C257  1  0.708400  0.770700  0.208100  1
  C  C258  1  0.770700  0.062300  0.708100  1
  C  C259  1  0.291600  0.229300  0.708100  1
  C  C260  1  0.937700  0.708400  0.708100  1
  C  C261  1  0.871900  0.694800  0.750000  1
  C  C262  1  0.822900  0.128100  0.750000  1
  C  C263  1  0.305200  0.177100  0.750000  1
  C  C264  1  0.177100  0.871900  0.250000  1
  C  C265  1  0.694800  0.822900  0.250000  1
  C  C266  1  0.128100  0.305200  0.250000  1
  C  C267  1  0.895300  0.773000  0.750000  1
  C  C268  1  0.877700  0.104700  0.750000  1
  C  C269  1  0.227000  0.122300  0.750000  1
  C  C270  1  0.122300  0.895300  0.250000  1
  C  C271  1  0.773000  0.877700  0.250000  1
  C  C272  1  0.104700  0.227000  0.250000  1
  C  C273  1  0.544400  0.351500  0.858700  1
  C  C274  1  0.807100  0.455600  0.858700  1
  C  C275  1  0.648500  0.192900  0.858700  1
  C  C276  1  0.192900  0.544400  0.358700  1
  C  C277  1  0.351500  0.807100  0.358700  1
  C  C278  1  0.455600  0.648500  0.358700  1
  C  C279  1  0.455600  0.648500  0.141300  1
  C  C280  1  0.192900  0.544400  0.141300  1
  C  C281  1  0.351500  0.807100  0.141300  1
  C  C282  1  0.807100  0.455600  0.641300  1
  C  C283  1  0.648500  0.192900  0.641300  1
  C  C284  1  0.544400  0.351500  0.641300  1
  C  C285  1  0.534300  0.366800  0.802400  1
  C  C286  1  0.832500  0.465700  0.802400  1
  C  C287  1  0.633200  0.167500  0.802400  1
  C  C288  1  0.167500  0.534300  0.302400  1
  C  C289  1  0.366800  0.832500  0.302400  1
  C  C290  1  0.465700  0.633200  0.302400  1
  C  C291  1  0.465700  0.633200  0.197600  1
  C  C292  1  0.167500  0.534300  0.197600  1
  C  C293  1  0.366800  0.832500  0.197600  1
  C  C294  1  0.832500  0.465700  0.697600  1
  C  C295  1  0.633200  0.167500  0.697600  1
  C  C296  1  0.534300  0.366800  0.697600  1
  C  C297  1  0.515200  0.261100  0.775000  1
  C  C298  1  0.745900  0.484800  0.775000  1
  C  C299  1  0.738900  0.254100  0.775000  1
  C  C300  1  0.254100  0.515200  0.275000  1
  C  C301  1  0.261100  0.745900  0.275000  1
  C  C302  1  0.484800  0.738900  0.275000  1
  C  C303  1  0.484800  0.738900  0.225000  1
  C  C304  1  0.254100  0.515200  0.225000  1
  C  C305  1  0.261100  0.745900  0.225000  1
  C  C306  1  0.745900  0.484800  0.725000  1
  C  C307  1  0.738900  0.254100  0.725000  1
  C  C308  1  0.515200  0.261100  0.725000  1
  C  C309  1  0.808100  0.452500  0.062500  1.0
  C  C310  1  0.644400  0.191900  0.062500  1.0
  C  C311  1  0.547500  0.355600  0.062500  1.0
  C  C312  1  0.355600  0.808100  0.562500  1.0
  C  C313  1  0.452500  0.644400  0.562500  1.0
  C  C314  1  0.191900  0.547500  0.562500  1.0
  C  C315  1  0.191900  0.547500  0.937500  1.0
  C  C316  1  0.355600  0.808100  0.937500  1.0
  C  C317  1  0.452500  0.644400  0.937500  1.0
  C  C318  1  0.644400  0.191900  0.437500  1.0
  C  C319  1  0.547500  0.355600  0.437500  1.0
  C  C320  1  0.808100  0.452500  0.437500  1.0
  C  C321  1  0.797500  0.471500  0.121300  1.0
  C  C322  1  0.674000  0.202500  0.121300  1.0
  C  C323  1  0.528500  0.326000  0.121300  1.0
  C  C324  1  0.326000  0.797500  0.621300  1.0
  C  C325  1  0.471500  0.674000  0.621300  1.0
  C  C326  1  0.202500  0.528500  0.621300  1.0
  C  C327  1  0.202500  0.528500  0.878700  1.0
  C  C328  1  0.326000  0.797500  0.878700  1.0
  C  C329  1  0.471500  0.674000  0.878700  1.0
  C  C330  1  0.674000  0.202500  0.378700  1.0
  C  C331  1  0.528500  0.326000  0.378700  1.0
  C  C332  1  0.797500  0.471500  0.378700  1.0
  C  C333  1  0.849700  0.539600  0.146300  1.0
  C  C334  1  0.689900  0.150300  0.146300  1.0
  C  C335  1  0.460400  0.310100  0.146300  1.0
  C  C336  1  0.310100  0.849700  0.646300  1.0
  C  C337  1  0.539600  0.689900  0.646300  1.0
  C  C338  1  0.150300  0.460400  0.646300  1.0
  C  C339  1  0.150300  0.460400  0.853700  1.0
  C  C340  1  0.310100  0.849700  0.853700  1.0
  C  C341  1  0.539600  0.689900  0.853700  1.0
  C  C342  1  0.689900  0.150300  0.353700  1.0
  C  C343  1  0.460400  0.310100  0.353700  1.0
  C  C344  1  0.849700  0.539600  0.353700  1.0
  C  C345  1  0.912600  0.590400  0.111300  1.0
  C  C346  1  0.677800  0.087400  0.111300  1.0
  C  C347  1  0.409600  0.322200  0.111300  1.0
  C  C348  1  0.322200  0.912600  0.611300  1.0
  C  C349  1  0.590400  0.677800  0.611300  1.0
  C  C350  1  0.087400  0.409600  0.611300  1.0
  C  C351  1  0.087400  0.409600  0.888700  1.0
  C  C352  1  0.322200  0.912600  0.888700  1.0
  C  C353  1  0.590400  0.677800  0.888700  1.0
  C  C354  1  0.677800  0.087400  0.388700  1.0
  C  C355  1  0.409600  0.322200  0.388700  1.0
  C  C356  1  0.912600  0.590400  0.388700  1.0
  C  C357  1  0.921100  0.570400  0.053200  1.0
  C  C358  1  0.649300  0.078900  0.053200  1.0
  C  C359  1  0.429600  0.350700  0.053200  1.0
  C  C360  1  0.350700  0.921100  0.553200  1.0
  C  C361  1  0.570400  0.649300  0.553200  1.0
  C  C362  1  0.078900  0.429600  0.553200  1.0
  C  C363  1  0.078900  0.429600  0.946800  1.0
  C  C364  1  0.350700  0.921100  0.946800  1.0
  C  C365  1  0.570400  0.649300  0.946800  1.0
  C  C366  1  0.649300  0.078900  0.446800  1.0
  C  C367  1  0.429600  0.350700  0.446800  1.0
  C  C368  1  0.921100  0.570400  0.446800  1.0
  C  C369  1  0.869700  0.502100  0.028400  1.0
  C  C370  1  0.632400  0.130300  0.028400  1.0
  C  C371  1  0.497900  0.367600  0.028400  1.0
  C  C372  1  0.367600  0.869700  0.528400  1.0
  C  C373  1  0.502100  0.632400  0.528400  1.0
  C  C374  1  0.130300  0.497900  0.528400  1.0
  C  C375  1  0.130300  0.497900  0.971600  1.0
  C  C376  1  0.367600  0.869700  0.971600  1.0
  C  C377  1  0.502100  0.632400  0.971600  1.0
  C  C378  1  0.632400  0.130300  0.471600  1.0
  C  C379  1  0.497900  0.367600  0.471600  1.0
  C  C380  1  0.869700  0.502100  0.471600  1.0
  C  C381  1  0.956800  0.749900  0.113300  1.0
  C  C382  1  0.793100  0.043200  0.113300  1.0
  C  C383  1  0.250100  0.206900  0.113300  1.0
  C  C384  1  0.206900  0.956800  0.613300  1.0
  C  C385  1  0.749900  0.793100  0.613300  1.0
  C  C386  1  0.043200  0.250100  0.613300  1.0
  C  C387  1  0.043200  0.250100  0.886700  1.0
  C  C388  1  0.206900  0.956800  0.886700  1.0
  C  C389  1  0.749900  0.793100  0.886700  1.0
  C  C390  1  0.793100  0.043200  0.386700  1.0
  C  C391  1  0.250100  0.206900  0.386700  1.0
  C  C392  1  0.956800  0.749900  0.386700  1.0
  C  C393  1  0.984700  0.819500  0.142400  1.0
  C  C394  1  0.834800  0.015300  0.142400  1.0
  C  C395  1  0.180500  0.165200  0.142400  1.0
  C  C396  1  0.165200  0.984700  0.642400  1.0
  C  C397  1  0.819500  0.834800  0.642400  1.0
  C  C398  1  0.015300  0.180500  0.642400  1.0
  C  C399  1  0.015300  0.180500  0.857600  1.0
  C  C400  1  0.165200  0.984700  0.857600  1.0
  C  C401  1  0.819500  0.834800  0.857600  1.0
  C  C402  1  0.834800  0.015300  0.357600  1.0
  C  C403  1  0.180500  0.165200  0.357600  1.0
  C  C404  1  0.984700  0.819500  0.357600  1.0
  C  C405  1  0.970700  0.874000  0.119500  1.0
  C  C406  1  0.903300  0.029300  0.119500  1.0
  C  C407  1  0.126000  0.096700  0.119500  1.0
  C  C408  1  0.096700  0.970700  0.619500  1.0
  C  C409  1  0.874000  0.903300  0.619500  1.0
  C  C410  1  0.029300  0.126000  0.619500  1.0
  C  C411  1  0.029300  0.126000  0.880500  1.0
  C  C412  1  0.096700  0.970700  0.880500  1.0
  C  C413  1  0.874000  0.903300  0.880500  1.0
  C  C414  1  0.903300  0.029300  0.380500  1.0
  C  C415  1  0.126000  0.096700  0.380500  1.0
  C  C416  1  0.970700  0.874000  0.380500  1.0
  C  C417  1  0.927500  0.860100  0.068300  1.0
  C  C418  1  0.932600  0.072500  0.068300  1.0
  C  C419  1  0.139900  0.067400  0.068300  1.0
  C  C420  1  0.067400  0.927500  0.568300  1.0
  C  C421  1  0.860100  0.932600  0.568300  1.0
  C  C422  1  0.072500  0.139900  0.568300  1.0
  C  C423  1  0.072500  0.139900  0.931700  1.0
  C  C424  1  0.067400  0.927500  0.931700  1.0
  C  C425  1  0.860100  0.932600  0.931700  1.0
  C  C426  1  0.932600  0.072500  0.431700  1.0
  C  C427  1  0.139900  0.067400  0.431700  1.0
  C  C428  1  0.927500  0.860100  0.431700  1.0
  C  C429  1  0.898200  0.792300  0.039800  1.0
  C  C430  1  0.894100  0.101800  0.039800  1.0
  C  C431  1  0.207700  0.105900  0.039800  1.0
  C  C432  1  0.105900  0.898200  0.539800  1.0
  C  C433  1  0.792300  0.894100  0.539800  1.0
  C  C434  1  0.101800  0.207700  0.539800  1.0
  C  C435  1  0.101800  0.207700  0.960200  1.0
  C  C436  1  0.105900  0.898200  0.960200  1.0
  C  C437  1  0.792300  0.894100  0.960200  1.0
  C  C438  1  0.894100  0.101800  0.460200  1.0
  C  C439  1  0.207700  0.105900  0.460200  1.0
  C  C440  1  0.898200  0.792300  0.460200  1.0
  C  C441  1  0.912900  0.737000  0.062100  1.0
  C  C442  1  0.824100  0.087100  0.062100  1.0
  C  C443  1  0.263000  0.175900  0.062100  1.0
  C  C444  1  0.175900  0.912900  0.562100  1.0
  C  C445  1  0.737000  0.824100  0.562100  1.0
  C  C446  1  0.087100  0.263000  0.562100  1.0
  C  C447  1  0.087100  0.263000  0.937900  1.0
  C  C448  1  0.175900  0.912900  0.937900  1.0
  C  C449  1  0.737000  0.824100  0.937900  1.0
  C  C450  1  0.824100  0.087100  0.437900  1.0
  C  C451  1  0.263000  0.175900  0.437900  1.0
  C  C452  1  0.912900  0.737000  0.437900  1.0
  C  C453  1  0.069200  0.705900  0.109600  1.0
  C  C454  1  0.636700  0.930800  0.109600  1.0
  C  C455  1  0.294100  0.363300  0.109600  1.0
  C  C456  1  0.363300  0.069200  0.609600  1.0
  C  C457  1  0.705900  0.636700  0.609600  1.0
  C  C458  1  0.930800  0.294100  0.609600  1.0
  C  C459  1  0.930800  0.294100  0.890400  1.0
  C  C460  1  0.363300  0.069200  0.890400  1.0
  C  C461  1  0.705900  0.636700  0.890400  1.0
  C  C462  1  0.636700  0.930800  0.390400  1.0
  C  C463  1  0.294100  0.363300  0.390400  1.0
  C  C464  1  0.069200  0.705900  0.390400  1.0
  C  C465  1  0.120000  0.779900  0.093500  1.0
  C  C466  1  0.659900  0.880000  0.093500  1.0
  C  C467  1  0.220100  0.340100  0.093500  1.0
  C  C468  1  0.340100  0.120000  0.593500  1.0
  C  C469  1  0.779900  0.659900  0.593500  1.0
  C  C470  1  0.880000  0.220100  0.593500  1.0
  C  C471  1  0.880000  0.220100  0.906500  1.0
  C  C472  1  0.340100  0.120000  0.906500  1.0
  C  C473  1  0.779900  0.659900  0.906500  1.0
  C  C474  1  0.659900  0.880000  0.406500  1.0
  C  C475  1  0.220100  0.340100  0.406500  1.0
  C  C476  1  0.120000  0.779900  0.406500  1.0
  C  C477  1  0.188900  0.797600  0.069300  1.0
  C  C478  1  0.608700  0.811100  0.069300  1.0
  C  C479  1  0.202400  0.391300  0.069300  1.0
  C  C480  1  0.391300  0.188900  0.569300  1.0
  C  C481  1  0.797600  0.608700  0.569300  1.0
  C  C482  1  0.811100  0.202400  0.569300  1.0
  C  C483  1  0.811100  0.202400  0.930700  1.0
  C  C484  1  0.391300  0.188900  0.930700  1.0
  C  C485  1  0.797600  0.608700  0.930700  1.0
  C  C486  1  0.608700  0.811100  0.430700  1.0
  C  C487  1  0.202400  0.391300  0.430700  1.0
  C  C488  1  0.188900  0.797600  0.430700  1.0
  C  C489  1  0.206200  0.742900  0.057800  1.0
  C  C490  1  0.536700  0.793800  0.057800  1.0
  C  C491  1  0.257100  0.463300  0.057800  1.0
  C  C492  1  0.463300  0.206200  0.557800  1.0
  C  C493  1  0.742900  0.536700  0.557800  1.0
  C  C494  1  0.793800  0.257100  0.557800  1.0
  C  C495  1  0.793800  0.257100  0.942200  1.0
  C  C496  1  0.463300  0.206200  0.942200  1.0
  C  C497  1  0.742900  0.536700  0.942200  1.0
  C  C498  1  0.536700  0.793800  0.442200  1.0
  C  C499  1  0.257100  0.463300  0.442200  1.0
  C  C500  1  0.206200  0.742900  0.442200  1.0
  C  C501  1  0.157400  0.669700  0.073700  1.0
  C  C502  1  0.512300  0.842600  0.073700  1.0
  C  C503  1  0.330300  0.487700  0.073700  1.0
  C  C504  1  0.487700  0.157400  0.573700  1.0
  C  C505  1  0.669700  0.512300  0.573700  1.0
  C  C506  1  0.842600  0.330300  0.573700  1.0
  C  C507  1  0.842600  0.330300  0.926300  1.0
  C  C508  1  0.487700  0.157400  0.926300  1.0
  C  C509  1  0.669700  0.512300  0.926300  1.0
  C  C510  1  0.512300  0.842600  0.426300  1.0
  C  C511  1  0.330300  0.487700  0.426300  1.0
  C  C512  1  0.157400  0.669700  0.426300  1.0
  C  C513  1  0.088900  0.651100  0.099700  1.0
  C  C514  1  0.562200  0.911100  0.099700  1.0
  C  C515  1  0.348900  0.437800  0.099700  1.0
  C  C516  1  0.437800  0.088900  0.599700  1.0
  C  C517  1  0.651100  0.562200  0.599700  1.0
  C  C518  1  0.911100  0.348900  0.599700  1.0
  C  C519  1  0.911100  0.348900  0.900300  1.0
  C  C520  1  0.437800  0.088900  0.900300  1.0
  C  C521  1  0.651100  0.562200  0.900300  1.0
  C  C522  1  0.562200  0.911100  0.400300  1.0
  C  C523  1  0.348900  0.437800  0.400300  1.0
  C  C524  1  0.088900  0.651100  0.400300  1.0
  Br  Br525  1  0.093000  0.669900  0.250000  1
  Br  Br526  1  0.576900  0.907000  0.250000  1
  Br  Br527  1  0.330100  0.423100  0.250000  1
  Br  Br528  1  0.423100  0.093000  0.750000  1
  Br  Br529  1  0.669900  0.576900  0.750000  1
  Br  Br530  1  0.907000  0.330100  0.750000  1
  Br  Br531  1  0.108500  0.699900  0.250000  1
  Br  Br532  1  0.591400  0.891500  0.250000  1
  Br  Br533  1  0.300100  0.408600  0.250000  1
  Br  Br534  1  0.408600  0.108500  0.750000  1
  Br  Br535  1  0.699900  0.591400  0.750000  1
  Br  Br536  1  0.891500  0.300100  0.750000  1
  Br  Br537  1  0.864490  0.690000  0.250000  1.0
  Br  Br538  1  0.825510  0.135510  0.250000  1.0
  Br  Br539  1  0.310000  0.174490  0.250000  1.0
  Br  Br540  1  0.174490  0.864490  0.750000  1.0
  Br  Br541  1  0.690000  0.825510  0.750000  1.0
  Br  Br542  1  0.135510  0.310000  0.750000  1.0
  Br  Br543  1  0.059100  0.626140  0.250000  1.0
  Br  Br544  1  0.567040  0.940900  0.250000  1.0
  Br  Br545  1  0.373860  0.432960  0.250000  1.0
  Br  Br546  1  0.432960  0.059100  0.750000  1.0
  Br  Br547  1  0.626140  0.567040  0.750000  1.0
  Br  Br548  1  0.940900  0.373860  0.750000  1.0
  N  N549  1  0.519500  0.332500  0.750000  1
  N  N550  1  0.813000  0.480500  0.750000  1
  N  N551  1  0.667500  0.187000  0.750000  1
  N  N552  1  0.187000  0.519500  0.250000  1
  N  N553  1  0.332500  0.813000  0.250000  1
  N  N554  1  0.480500  0.667500  0.250000  1
  O  O555  1  0.903900  0.350400  0.161300  1
  O  O556  1  0.446500  0.096100  0.161300  1
  O  O557  1  0.649600  0.553500  0.161300  1
  O  O558  1  0.553500  0.903900  0.661300  1
  O  O559  1  0.350400  0.446500  0.661300  1
  O  O560  1  0.096100  0.649600  0.661300  1
  O  O561  1  0.096100  0.649600  0.838700  1
  O  O562  1  0.553500  0.903900  0.838700  1
  O  O563  1  0.350400  0.446500  0.838700  1
  O  O564  1  0.446500  0.096100  0.338700  1
  O  O565  1  0.649600  0.553500  0.338700  1
  O  O566  1  0.903900  0.350400  0.338700  1
  O  O567  1  0.000000  0.000000  0.250000  1
  O  O568  1  0.000000  0.000000  0.750000  1
  O  O569  1  0.966800  0.833100  0.750000  1
  O  O570  1  0.866300  0.033200  0.750000  1
  O  O571  1  0.166900  0.133700  0.750000  1
  O  O572  1  0.133700  0.966800  0.250000  1
  O  O573  1  0.833100  0.866300  0.250000  1
  O  O574  1  0.033200  0.166900  0.250000  1
  O  O575  1  0.754700  0.384200  0.043600  1.0
  O  O576  1  0.629500  0.245300  0.043600  1.0
  O  O577  1  0.615800  0.370500  0.043600  1.0
  O  O578  1  0.370500  0.754700  0.543600  1.0
  O  O579  1  0.384200  0.629500  0.543600  1.0
  O  O580  1  0.245300  0.615800  0.543600  1.0
  O  O581  1  0.245300  0.615800  0.956400  1.0
  O  O582  1  0.370500  0.754700  0.956400  1.0
  O  O583  1  0.384200  0.629500  0.956400  1.0
  O  O584  1  0.629500  0.245300  0.456400  1.0
  O  O585  1  0.615800  0.370500  0.456400  1.0
  O  O586  1  0.754700  0.384200  0.456400  1.0
  O  O587  1  0.734100  0.419600  0.149000  1.0
  O  O588  1  0.685500  0.265900  0.149000  1.0
  O  O589  1  0.580400  0.314500  0.149000  1.0
  O  O590  1  0.314500  0.734100  0.649000  1.0
  O  O591  1  0.419600  0.685500  0.649000  1.0
  O  O592  1  0.265900  0.580400  0.649000  1.0
  O  O593  1  0.265900  0.580400  0.851000  1.0
  O  O594  1  0.314500  0.734100  0.851000  1.0
  O  O595  1  0.419600  0.685500  0.851000  1.0
  O  O596  1  0.685500  0.265900  0.351000  1.0
  O  O597  1  0.580400  0.314500  0.351000  1.0
  O  O598  1  0.734100  0.419600  0.351000  1.0
