# generated using pymatgen
data_H65Pd2C40(N3O5)2
_symmetry_space_group_name_H-M   'P 1'
_cell_length_a   11.68800000
_cell_length_b   13.03300000
_cell_length_c   18.81081434
_cell_angle_alpha   96.81728005
_cell_angle_beta   108.09975442
_cell_angle_gamma   90.00000000
_symmetry_Int_Tables_number   1
_chemical_formula_structural   H65Pd2C40(N3O5)2
_chemical_formula_sum   'H130 Pd4 C80 N12 O20'
_cell_volume   2702.33290155
_cell_formula_units_Z   2
loop_
 _symmetry_equiv_pos_site_id
 _symmetry_equiv_pos_as_xyz
  1  'x, y, z'
loop_
 _atom_site_type_symbol
 _atom_site_label
 _atom_site_symmetry_multiplicity
 _atom_site_fract_x
 _atom_site_fract_y
 _atom_site_fract_z
 _atom_site_occupancy
  C  C1  1  0.681200  0.932700  0.362400  1
  C  C2  1  0.318800  0.067300  0.637600  1
  C  C3  1  0.713600  0.187200  0.427200  1
  C  C4  1  0.286400  0.812800  0.572800  1
  C  C5  1  0.522500  0.801600  0.045000  1
  C  C6  1  0.477500  0.198400  0.955000  1
  C  C7  1  0.484800  0.842900  0.969600  1
  C  C8  1  0.515200  0.157100  0.030400  1
  C  C9  1  0.602600  0.468300  0.205200  1
  C  C10  1  0.397400  0.531700  0.794800  1
  C  C11  1  0.559500  0.470000  0.119000  1
  C  C12  1  0.440500  0.530000  0.881000  1
  C  C13  1  0.842900  0.458100  0.685800  1
  C  C14  1  0.157100  0.541900  0.314200  1
  C  C15  1  0.882300  0.464600  0.764600  1
  C  C16  1  0.117700  0.535400  0.235400  1
  C  C17  1  0.531200  0.040000  0.514400  1
  C  C18  1  0.016800  0.960000  0.485600  1
  C  C19  1  0.468800  0.960000  0.485600  1
  C  C20  1  0.983200  0.040000  0.514400  1
  C  C21  1  0.451900  0.939000  0.487800  1
  C  C22  1  0.964100  0.061000  0.512200  1
  C  C23  1  0.548100  0.061000  0.512200  1
  C  C24  1  0.035900  0.939000  0.487800  1
  C  C25  1  0.388800  0.330300  0.290200  1.0
  C  C26  1  0.098600  0.669700  0.709800  1.0
  C  C27  1  0.611200  0.669700  0.709800  1.0
  C  C28  1  0.901400  0.330300  0.290200  1.0
  C  C29  1  0.383800  0.211000  0.266800  1.0
  C  C30  1  0.117000  0.789000  0.733200  1.0
  C  C31  1  0.616200  0.789000  0.733200  1.0
  C  C32  1  0.883000  0.211000  0.266800  1.0
  C  C33  1  0.446900  0.168500  0.219600  1.0
  C  C34  1  0.227300  0.831500  0.780400  1.0
  C  C35  1  0.553100  0.831500  0.780400  1.0
  C  C36  1  0.772700  0.168500  0.219600  1.0
  C  C37  1  0.432700  0.061600  0.192400  1.0
  C  C38  1  0.240300  0.938400  0.807600  1.0
  C  C39  1  0.567300  0.938400  0.807600  1.0
  C  C40  1  0.759700  0.061600  0.192400  1.0
  C  C41  1  0.360900  0.999000  0.217400  1.0
  C  C42  1  0.143500  0.001000  0.782600  1.0
  C  C43  1  0.639100  0.001000  0.782600  1.0
  C  C44  1  0.856500  0.999000  0.217400  1.0
  C  C45  1  0.302900  0.040700  0.266400  1.0
  C  C46  1  0.036500  0.959300  0.733600  1.0
  C  C47  1  0.697100  0.959300  0.733600  1.0
  C  C48  1  0.963500  0.040700  0.266400  1.0
  C  C49  1  0.316200  0.145800  0.293000  1.0
  C  C50  1  0.023200  0.854200  0.707000  1.0
  C  C51  1  0.683800  0.854200  0.707000  1.0
  C  C52  1  0.976800  0.145800  0.293000  1.0
  C  C53  1  0.337500  0.884700  0.183800  1.0
  C  C54  1  0.153700  0.115300  0.816200  1.0
  C  C55  1  0.662500  0.115300  0.816200  1.0
  C  C56  1  0.846300  0.884700  0.183800  1.0
  C  C57  1  0.386300  0.706100  0.176600  1.0
  C  C58  1  0.209700  0.293900  0.823400  1.0
  C  C59  1  0.613700  0.293900  0.823400  1.0
  C  C60  1  0.790300  0.706100  0.176600  1.0
  C  C61  1  0.441200  0.810000  0.301200  1.0
  C  C62  1  0.140000  0.190000  0.698800  1.0
  C  C63  1  0.558800  0.190000  0.698800  1.0
  C  C64  1  0.860000  0.810000  0.301200  1.0
  C  C65  1  0.565800  0.766200  0.341400  1.0
  C  C66  1  0.224400  0.233800  0.658600  1.0
  C  C67  1  0.434200  0.233800  0.658600  1.0
  C  C68  1  0.775600  0.766200  0.341400  1.0
  C  C69  1  0.634000  0.345400  0.479800  1.0
  C  C70  1  0.154200  0.654600  0.520200  1.0
  C  C71  1  0.366000  0.654600  0.520200  1.0
  C  C72  1  0.845800  0.345400  0.479800  1.0
  C  C73  1  0.505500  0.329000  0.426600  1.0
  C  C74  1  0.078900  0.671000  0.573400  1.0
  C  C75  1  0.494500  0.671000  0.573400  1.0
  C  C76  1  0.921100  0.329000  0.426600  1.0
  C  C77  1  0.482700  0.490500  0.367400  1.0
  C  C78  1  0.115300  0.509500  0.632600  1.0
  C  C79  1  0.517300  0.509500  0.632600  1.0
  C  C80  1  0.884700  0.490500  0.367400  1.0
  H  H81  1  0.708600  0.931800  0.417200  1
  H  H82  1  0.291400  0.068200  0.582800  1
  H  H83  1  0.738000  0.160300  0.476000  1
  H  H84  1  0.262000  0.839700  0.524000  1
  H  H85  1  0.488800  0.918700  0.977600  1
  H  H86  1  0.511200  0.081300  0.022400  1
  H  H87  1  0.554000  0.541800  0.108000  1
  H  H88  1  0.446000  0.458200  0.892000  1
  H  H89  1  0.893200  0.537500  0.786400  1
  H  H90  1  0.106800  0.462500  0.213600  1
  H  H91  1  0.504300  0.879700  0.492400  1
  H  H92  1  0.011900  0.120300  0.507600  1
  H  H93  1  0.495700  0.120300  0.507600  1
  H  H94  1  0.988100  0.879700  0.492400  1
  H  H95  1  0.402700  0.938700  0.435200  1
  H  H96  1  0.967500  0.061300  0.564800  1
  H  H97  1  0.597300  0.061300  0.564800  1
  H  H98  1  0.032500  0.938700  0.435200  1
  H  H99  1  0.399900  0.934800  0.519400  1
  H  H100  1  0.880500  0.065200  0.480600  1
  H  H101  1  0.600100  0.065200  0.480600  1
  H  H102  1  0.119500  0.934800  0.519400  1
  H  H103  1  0.387900  0.365200  0.246000  1.0
  H  H104  1  0.141900  0.634800  0.754000  1.0
  H  H105  1  0.612100  0.634800  0.754000  1.0
  H  H106  1  0.858100  0.365200  0.246000  1.0
  H  H107  1  0.314800  0.348800  0.303000  1.0
  H  H108  1  0.011800  0.651200  0.697000  1.0
  H  H109  1  0.685200  0.651200  0.697000  1.0
  H  H110  1  0.988200  0.348800  0.303000  1.0
  H  H111  1  0.500000  0.211300  0.205600  1.0
  H  H112  1  0.294400  0.788700  0.794400  1.0
  H  H113  1  0.500000  0.788700  0.794400  1.0
  H  H114  1  0.705600  0.211300  0.205600  1.0
  H  H115  1  0.471700  0.033200  0.157600  1.0
  H  H116  1  0.314100  0.966800  0.842400  1.0
  H  H117  1  0.528300  0.966800  0.842400  1.0
  H  H118  1  0.685900  0.033200  0.157600  1.0
  H  H119  1  0.252800  0.997300  0.282400  1.0
  H  H120  1  0.970400  0.002700  0.717600  1.0
  H  H121  1  0.747200  0.002700  0.717600  1.0
  H  H122  1  0.029600  0.997300  0.282400  1.0
  H  H123  1  0.279200  0.172900  0.329200  1.0
  H  H124  1  0.950000  0.827100  0.670800  1.0
  H  H125  1  0.720800  0.827100  0.670800  1.0
  H  H126  1  0.050000  0.172900  0.329200  1.0
  H  H127  1  0.261200  0.860000  0.189600  1.0
  H  H128  1  0.071600  0.140000  0.810400  1.0
  H  H129  1  0.738800  0.140000  0.810400  1.0
  H  H130  1  0.928400  0.860000  0.189600  1.0
  H  H131  1  0.326300  0.879700  0.129000  1.0
  H  H132  1  0.197300  0.120300  0.871000  1.0
  H  H133  1  0.673700  0.120300  0.871000  1.0
  H  H134  1  0.802700  0.879700  0.129000  1.0
  H  H135  1  0.305000  0.694300  0.179200  1.0
  H  H136  1  0.125800  0.305700  0.820800  1.0
  H  H137  1  0.695000  0.305700  0.820800  1.0
  H  H138  1  0.874200  0.694300  0.179200  1.0
  H  H139  1  0.438600  0.652400  0.199800  1.0
  H  H140  1  0.238800  0.347600  0.800200  1.0
  H  H141  1  0.561400  0.347600  0.800200  1.0
  H  H142  1  0.761200  0.652400  0.199800  1.0
  H  H143  1  0.383000  0.703400  0.123600  1.0
  H  H144  1  0.259400  0.296600  0.876400  1.0
  H  H145  1  0.617000  0.296600  0.876400  1.0
  H  H146  1  0.740600  0.703400  0.123600  1.0
  H  H147  1  0.374800  0.764700  0.303600  1.0
  H  H148  1  0.071200  0.235300  0.696400  1.0
  H  H149  1  0.625200  0.235300  0.696400  1.0
  H  H150  1  0.928800  0.764700  0.303600  1.0
  H  H151  1  0.433900  0.880300  0.325600  1.0
  H  H152  1  0.108300  0.119700  0.674400  1.0
  H  H153  1  0.566100  0.119700  0.674400  1.0
  H  H154  1  0.891700  0.880300  0.325600  1.0
  H  H155  1  0.580900  0.774600  0.396600  1.0
  H  H156  1  0.184300  0.225400  0.603400  1.0
  H  H157  1  0.419100  0.225400  0.603400  1.0
  H  H158  1  0.815700  0.774600  0.396600  1.0
  H  H159  1  0.566200  0.691600  0.323800  1.0
  H  H160  1  0.242400  0.308400  0.676200  1.0
  H  H161  1  0.433800  0.308400  0.676200  1.0
  H  H162  1  0.757600  0.691600  0.323800  1.0
  H  H163  1  0.652300  0.420100  0.496800  1.0
  H  H164  1  0.155500  0.579900  0.503200  1.0
  H  H165  1  0.347700  0.579900  0.503200  1.0
  H  H166  1  0.844500  0.420100  0.496800  1.0
  H  H167  1  0.642900  0.309700  0.524800  1.0
  H  H168  1  0.118100  0.690300  0.475200  1.0
  H  H169  1  0.357100  0.690300  0.475200  1.0
  H  H170  1  0.881900  0.309700  0.524800  1.0
  H  H171  1  0.483400  0.254100  0.415200  1.0
  H  H172  1  0.068200  0.745900  0.584800  1.0
  H  H173  1  0.516600  0.745900  0.584800  1.0
  H  H174  1  0.931800  0.254100  0.415200  1.0
  H  H175  1  0.449200  0.363400  0.450800  1.0
  H  H176  1  0.998400  0.636600  0.549200  1.0
  H  H177  1  0.550800  0.636600  0.549200  1.0
  H  H178  1  0.001600  0.363400  0.450800  1.0
  H  H179  1  0.405400  0.505100  0.375600  1.0
  H  H180  1  0.029800  0.494900  0.624400  1.0
  H  H181  1  0.594600  0.494900  0.624400  1.0
  H  H182  1  0.970200  0.505100  0.375600  1.0
  H  H183  1  0.486500  0.520200  0.322600  1.0
  H  H184  1  0.163900  0.479800  0.677400  1.0
  H  H185  1  0.513500  0.479800  0.677400  1.0
  H  H186  1  0.836100  0.520200  0.322600  1.0
  H  H187  1  0.548600  0.521000  0.411600  1.0
  H  H188  1  0.137000  0.479000  0.588400  1.0
  H  H189  1  0.451400  0.479000  0.588400  1.0
  H  H190  1  0.863000  0.521000  0.411600  1.0
  H  H191  1  0.605400  0.968700  0.347800  1.0
  H  H192  1  0.257600  0.031300  0.652200  1.0
  H  H193  1  0.394600  0.031300  0.652200  1.0
  H  H194  1  0.742400  0.968700  0.347800  1.0
  H  H195  1  0.767900  0.162700  0.398800  1.0
  H  H196  1  0.369100  0.837300  0.601200  1.0
  H  H197  1  0.232100  0.837300  0.601200  1.0
  H  H198  1  0.630900  0.162700  0.398800  1.0
  H  H199  1  0.402100  0.818400  0.941200  1.0
  H  H200  1  0.460900  0.181600  0.058800  1.0
  H  H201  1  0.597900  0.181600  0.058800  1.0
  H  H202  1  0.539100  0.818400  0.941200  1.0
  H  H203  1  0.480100  0.434700  0.097200  1.0
  H  H204  1  0.382900  0.565300  0.902800  1.0
  H  H205  1  0.519900  0.565300  0.902800  1.0
  H  H206  1  0.617100  0.434700  0.097200  1.0
  H  H207  1  0.959100  0.430500  0.781200  1.0
  H  H208  1  0.177900  0.569500  0.218800  1.0
  H  H209  1  0.040900  0.569500  0.218800  1.0
  H  H210  1  0.822100  0.430500  0.781200  1.0
  N  N211  1  0.661800  0.823300  0.323600  1
  N  N212  1  0.338200  0.176700  0.676400  1
  N  N213  1  0.719800  0.303200  0.439600  1
  N  N214  1  0.280200  0.696800  0.560400  1
  N  N215  1  0.496000  0.372600  0.355600  1.0
  N  N216  1  0.140400  0.627400  0.644400  1.0
  N  N217  1  0.504000  0.627400  0.644400  1.0
  N  N218  1  0.859600  0.372600  0.355600  1.0
  N  N219  1  0.436800  0.813000  0.218800  1.0
  N  N220  1  0.218000  0.187000  0.781200  1.0
  N  N221  1  0.563200  0.187000  0.781200  1.0
  N  N222  1  0.782000  0.813000  0.218800  1.0
  O  O223  1  0.551700  0.866300  0.103400  1
  O  O224  1  0.448300  0.133700  0.896600  1
  O  O225  1  0.521500  0.704600  0.043000  1
  O  O226  1  0.478500  0.295400  0.957000  1
  O  O227  1  0.612900  0.379600  0.225800  1
  O  O228  1  0.387100  0.620400  0.774200  1
  O  O229  1  0.622400  0.552000  0.244800  1
  O  O230  1  0.377600  0.448000  0.755200  1
  O  O231  1  0.825200  0.539800  0.650400  1
  O  O232  1  0.174800  0.460200  0.349600  1
  O  O233  1  0.825100  0.370700  0.650200  1
  O  O234  1  0.174900  0.629300  0.349800  1
  O  O235  1  0.637400  0.020100  0.546800  1
  O  O236  1  0.090600  0.979900  0.453200  1
  O  O237  1  0.362600  0.979900  0.453200  1
  O  O238  1  0.909400  0.020100  0.546800  1
  O  O239  1  0.475400  0.122300  0.510800  1
  O  O240  1  0.964600  0.877700  0.489200  1
  O  O241  1  0.524600  0.877700  0.489200  1
  O  O242  1  0.035400  0.122300  0.510800  1
  Pd  Pd243  1  0.669130  0.357090  0.338260  1
  Pd  Pd244  1  0.330870  0.642910  0.661740  1
  Pd  Pd245  1  0.605430  0.831800  0.210860  1
  Pd  Pd246  1  0.394570  0.168200  0.789140  1
