# generated using pymatgen
data_P2H84Pd3C57N12O31F6
_symmetry_space_group_name_H-M   'P 1'
_cell_length_a   15.72540000
_cell_length_b   18.50620000
_cell_length_c   18.50620000
_cell_angle_alpha   120.00000000
_cell_angle_beta   90.00000000
_cell_angle_gamma   90.00000000
_symmetry_Int_Tables_number   1
_chemical_formula_structural   P2H84Pd3C57N12O31F6
_chemical_formula_sum   'P4 H168 Pd6 C114 N24 O62 F12'
_cell_volume   4664.08907092
_cell_formula_units_Z   2
loop_
 _symmetry_equiv_pos_site_id
 _symmetry_equiv_pos_as_xyz
  1  'x, y, z'
loop_
 _atom_site_type_symbol
 _atom_site_label
 _atom_site_symmetry_multiplicity
 _atom_site_fract_x
 _atom_site_fract_y
 _atom_site_fract_z
 _atom_site_occupancy
  P  P1  1  0.153000  0.333333  0.666667  1
  P  P2  1  0.847000  0.666667  0.333333  1
  P  P3  1  0.764000  0.333333  0.666667  1
  P  P4  1  0.236000  0.666667  0.333333  1
  H  H5  1  0.090200  0.940200  0.698800  1
  H  H6  1  0.090200  0.758600  0.059800  1
  H  H7  1  0.090200  0.301200  0.241400  1
  H  H8  1  0.909800  0.059800  0.301200  1
  H  H9  1  0.909800  0.241400  0.940200  1
  H  H10  1  0.909800  0.698800  0.758600  1
  H  H11  1  0.175400  0.989900  0.732100  1
  H  H12  1  0.175400  0.742200  0.010100  1
  H  H13  1  0.175400  0.267900  0.257800  1
  H  H14  1  0.824600  0.010100  0.267900  1
  H  H15  1  0.824600  0.257800  0.989900  1
  H  H16  1  0.824600  0.732100  0.742200  1
  H  H17  1  0.914200  0.605700  0.836900  1
  H  H18  1  0.914200  0.231200  0.394300  1
  H  H19  1  0.914200  0.163100  0.768800  1
  H  H20  1  0.085800  0.394300  0.163100  1
  H  H21  1  0.085800  0.768800  0.605700  1
  H  H22  1  0.085800  0.836900  0.231200  1
  H  H23  1  0.843200  0.674000  0.864200  1
  H  H24  1  0.843200  0.190200  0.326000  1
  H  H25  1  0.843200  0.135800  0.809800  1
  H  H26  1  0.156800  0.326000  0.135800  1
  H  H27  1  0.156800  0.809800  0.674000  1
  H  H28  1  0.156800  0.864200  0.190200  1
  H  H29  1  0.487500  0.199200  0.889100  1
  H  H30  1  0.487500  0.689900  0.800800  1
  H  H31  1  0.487500  0.110900  0.310100  1
  H  H32  1  0.512500  0.800800  0.110900  1
  H  H33  1  0.512500  0.310100  0.199200  1
  H  H34  1  0.512500  0.889100  0.689900  1
  H  H35  1  0.425800  0.198700  0.822200  1
  H  H36  1  0.425800  0.623500  0.801300  1
  H  H37  1  0.425800  0.177800  0.376500  1
  H  H38  1  0.574200  0.801300  0.177800  1
  H  H39  1  0.574200  0.376500  0.198700  1
  H  H40  1  0.574200  0.822200  0.623500  1
  H  H41  1  0.913100  0.288600  0.554200  1
  H  H42  1  0.913100  0.265600  0.711400  1
  H  H43  1  0.913100  0.445800  0.734400  1
  H  H44  1  0.086900  0.711400  0.445800  1
  H  H45  1  0.086900  0.734400  0.288600  1
  H  H46  1  0.086900  0.554200  0.265600  1
  H  H47  1  0.953400  0.211400  0.476500  1
  H  H48  1  0.953400  0.265100  0.788600  1
  H  H49  1  0.953400  0.523500  0.734900  1
  H  H50  1  0.046600  0.788600  0.523500  1
  H  H51  1  0.046600  0.734900  0.211400  1
  H  H52  1  0.046600  0.476500  0.265100  1
  H  H53  1  0.736900  0.560600  0.789100  1
  H  H54  1  0.736900  0.228500  0.439400  1
  H  H55  1  0.736900  0.210900  0.771500  1
  H  H56  1  0.263100  0.439400  0.210900  1
  H  H57  1  0.263100  0.771500  0.560600  1
  H  H58  1  0.263100  0.789100  0.228500  1
  H  H59  1  0.765100  0.535400  0.854800  1
  H  H60  1  0.765100  0.319400  0.464600  1
  H  H61  1  0.765100  0.145200  0.680600  1
  H  H62  1  0.234900  0.464600  0.145200  1
  H  H63  1  0.234900  0.680600  0.535400  1
  H  H64  1  0.234900  0.854800  0.319400  1
  H  H65  1  0.265100  0.345100  0.631000  1
  H  H66  1  0.265100  0.285900  0.654900  1
  H  H67  1  0.265100  0.369000  0.714100  1
  H  H68  1  0.734900  0.654900  0.369000  1
  H  H69  1  0.734900  0.714100  0.345100  1
  H  H70  1  0.734900  0.631000  0.285900  1
  H  H71  1  0.302700  0.305600  0.764300  1.0
  H  H72  1  0.302700  0.458700  0.694400  1.0
  H  H73  1  0.302700  0.235700  0.541300  1.0
  H  H74  1  0.697300  0.694400  0.235700  1.0
  H  H75  1  0.697300  0.541300  0.305600  1.0
  H  H76  1  0.697300  0.764300  0.458700  1.0
  H  H77  1  0.295600  0.352100  0.002700  1.0
  H  H78  1  0.295600  0.650600  0.647900  1.0
  H  H79  1  0.295600  0.997300  0.349400  1.0
  H  H80  1  0.704400  0.647900  0.997300  1.0
  H  H81  1  0.704400  0.349400  0.352100  1.0
  H  H82  1  0.704400  0.002700  0.650600  1.0
  H  H83  1  0.192500  0.246500  0.964800  1.0
  H  H84  1  0.192500  0.718300  0.753500  1.0
  H  H85  1  0.192500  0.035200  0.281700  1.0
  H  H86  1  0.807500  0.753500  0.035200  1.0
  H  H87  1  0.807500  0.281700  0.246500  1.0
  H  H88  1  0.807500  0.964800  0.718300  1.0
  H  H89  1  0.151500  0.169400  0.823000  1.0
  H  H90  1  0.151500  0.653600  0.830600  1.0
  H  H91  1  0.151500  0.177000  0.346400  1.0
  H  H92  1  0.848500  0.830600  0.177000  1.0
  H  H93  1  0.848500  0.346400  0.169400  1.0
  H  H94  1  0.848500  0.823000  0.653600  1.0
  H  H95  1  0.450400  0.530200  0.934200  1.0
  H  H96  1  0.450400  0.404000  0.469800  1.0
  H  H97  1  0.450400  0.065800  0.596000  1.0
  H  H98  1  0.549600  0.469800  0.065800  1.0
  H  H99  1  0.549600  0.596000  0.530200  1.0
  H  H100  1  0.549600  0.934200  0.404000  1.0
  H  H101  1  0.428000  0.526300  0.847800  1.0
  H  H102  1  0.428000  0.321500  0.473700  1.0
  H  H103  1  0.428000  0.152200  0.678500  1.0
  H  H104  1  0.572000  0.473700  0.152200  1.0
  H  H105  1  0.572000  0.678500  0.526300  1.0
  H  H106  1  0.572000  0.847800  0.321500  1.0
  H  H107  1  0.570500  0.496200  0.847900  1.0
  H  H108  1  0.570500  0.351700  0.503800  1.0
  H  H109  1  0.570500  0.152100  0.648300  1.0
  H  H110  1  0.429500  0.503800  0.152100  1.0
  H  H111  1  0.429500  0.648300  0.496200  1.0
  H  H112  1  0.429500  0.847900  0.351700  1.0
  H  H113  1  0.548500  0.424300  0.869000  1.0
  H  H114  1  0.548500  0.444700  0.575700  1.0
  H  H115  1  0.548500  0.131000  0.555300  1.0
  H  H116  1  0.451500  0.575700  0.131000  1.0
  H  H117  1  0.451500  0.555300  0.424300  1.0
  H  H118  1  0.451500  0.869000  0.444700  1.0
  H  H119  1  0.140900  0.892700  0.415300  1.0
  H  H120  1  0.140900  0.522600  0.107300  1.0
  H  H121  1  0.140900  0.584700  0.477400  1.0
  H  H122  1  0.859100  0.107300  0.584700  1.0
  H  H123  1  0.859100  0.477400  0.892700  1.0
  H  H124  1  0.859100  0.415300  0.522600  1.0
  H  H125  1  0.043600  0.932100  0.345000  1.0
  H  H126  1  0.043600  0.412900  0.067900  1.0
  H  H127  1  0.043600  0.655000  0.587100  1.0
  H  H128  1  0.956400  0.067900  0.655000  1.0
  H  H129  1  0.956400  0.587100  0.932100  1.0
  H  H130  1  0.956400  0.345000  0.412900  1.0
  H  H131  1  0.994200  0.074600  0.411800  1.0
  H  H132  1  0.994200  0.337200  0.925400  1.0
  H  H133  1  0.994200  0.588200  0.662800  1.0
  H  H134  1  0.005800  0.925400  0.588200  1.0
  H  H135  1  0.005800  0.662800  0.074600  1.0
  H  H136  1  0.005800  0.411800  0.337200  1.0
  H  H137  1  0.058600  0.171000  0.541000  1.0
  H  H138  1  0.058600  0.370000  0.829000  1.0
  H  H139  1  0.058600  0.459000  0.630000  1.0
  H  H140  1  0.941400  0.829000  0.459000  1.0
  H  H141  1  0.941400  0.630000  0.171000  1.0
  H  H142  1  0.941400  0.541000  0.370000  1.0
  H  H143  1  0.247500  0.867700  0.478500  1.0
  H  H144  1  0.247500  0.610800  0.132300  1.0
  H  H145  1  0.247500  0.521500  0.389200  1.0
  H  H146  1  0.752500  0.132300  0.521500  1.0
  H  H147  1  0.752500  0.389200  0.867700  1.0
  H  H148  1  0.752500  0.478500  0.610800  1.0
  H  H149  1  0.346900  0.854300  0.563600  1.0
  H  H150  1  0.346900  0.709300  0.145700  1.0
  H  H151  1  0.346900  0.436400  0.290700  1.0
  H  H152  1  0.653100  0.145700  0.436400  1.0
  H  H153  1  0.653100  0.290700  0.854300  1.0
  H  H154  1  0.653100  0.563600  0.709300  1.0
  H  H155  1  0.377500  0.969600  0.697500  1.0
  H  H156  1  0.377500  0.727900  0.030400  1.0
  H  H157  1  0.377500  0.302500  0.272100  1.0
  H  H158  1  0.622500  0.030400  0.302500  1.0
  H  H159  1  0.622500  0.272100  0.969600  1.0
  H  H160  1  0.622500  0.697500  0.727900  1.0
  H  H161  1  0.301300  0.092300  0.737300  1.0
  H  H162  1  0.301300  0.645000  0.907700  1.0
  H  H163  1  0.301300  0.262700  0.355000  1.0
  H  H164  1  0.698700  0.907700  0.262700  1.0
  H  H165  1  0.698700  0.355000  0.092300  1.0
  H  H166  1  0.698700  0.737300  0.645000  1.0
  H  H167  1  0.661800  0.320400  0.588000  1.0
  H  H168  1  0.661800  0.267600  0.679600  1.0
  H  H169  1  0.661800  0.412000  0.732400  1.0
  H  H170  1  0.338200  0.679600  0.412000  1.0
  H  H171  1  0.338200  0.732400  0.320400  1.0
  H  H172  1  0.338200  0.588000  0.267600  1.0
  Pd  Pd173  1  0.178190  0.163890  0.663590  1.0
  Pd  Pd174  1  0.178190  0.499700  0.836110  1.0
  Pd  Pd175  1  0.178190  0.336410  0.500300  1.0
  Pd  Pd176  1  0.821810  0.836110  0.336410  1.0
  Pd  Pd177  1  0.821810  0.500300  0.163890  1.0
  Pd  Pd178  1  0.821810  0.663590  0.499700  1.0
  C  C179  1  0.281300  0.292400  0.804400  1.0
  C  C180  1  0.281300  0.512000  0.707600  1.0
  C  C181  1  0.281300  0.195600  0.488000  1.0
  C  C182  1  0.718700  0.707600  0.195600  1.0
  C  C183  1  0.718700  0.488000  0.292400  1.0
  C  C184  1  0.718700  0.804400  0.512000  1.0
  C  C185  1  0.307800  0.335200  0.885200  1.0
  C  C186  1  0.307800  0.550000  0.664800  1.0
  C  C187  1  0.307800  0.114800  0.450000  1.0
  C  C188  1  0.692200  0.664800  0.114800  1.0
  C  C189  1  0.692200  0.450000  0.335200  1.0
  C  C190  1  0.692200  0.885200  0.550000  1.0
  C  C191  1  0.276300  0.320300  0.946700  1.0
  C  C192  1  0.276300  0.626400  0.679700  1.0
  C  C193  1  0.276300  0.053300  0.373600  1.0
  C  C194  1  0.723700  0.679700  0.053300  1.0
  C  C195  1  0.723700  0.373600  0.320300  1.0
  C  C196  1  0.723700  0.946700  0.626400  1.0
  C  C197  1  0.216300  0.258400  0.924700  1.0
  C  C198  1  0.216300  0.666300  0.741600  1.0
  C  C199  1  0.216300  0.075300  0.333700  1.0
  C  C200  1  0.783700  0.741600  0.075300  1.0
  C  C201  1  0.783700  0.333700  0.258400  1.0
  C  C202  1  0.783700  0.924700  0.666300  1.0
  C  C203  1  0.191800  0.213200  0.839900  1.0
  C  C204  1  0.191800  0.626700  0.786800  1.0
  C  C205  1  0.191800  0.160100  0.373300  1.0
  C  C206  1  0.808200  0.786800  0.160100  1.0
  C  C207  1  0.808200  0.373300  0.213200  1.0
  C  C208  1  0.808200  0.839900  0.626700  1.0
  C  C209  1  0.373000  0.405600  0.913500  1.0
  C  C210  1  0.373000  0.507900  0.594400  1.0
  C  C211  1  0.373000  0.086500  0.492100  1.0
  C  C212  1  0.627000  0.594400  0.086500  1.0
  C  C213  1  0.627000  0.492100  0.405600  1.0
  C  C214  1  0.627000  0.913500  0.507900  1.0
  C  C215  1  0.445400  0.492500  0.873100  1.0
  C  C216  1  0.445400  0.380600  0.507500  1.0
  C  C217  1  0.445400  0.126900  0.619400  1.0
  C  C218  1  0.554600  0.507500  0.126900  1.0
  C  C219  1  0.554600  0.619400  0.492500  1.0
  C  C220  1  0.554600  0.873100  0.380600  1.0
  C  C221  1  0.528500  0.452500  0.838600  1.0
  C  C222  1  0.528500  0.386100  0.547500  1.0
  C  C223  1  0.528500  0.161400  0.613900  1.0
  C  C224  1  0.471500  0.547500  0.161400  1.0
  C  C225  1  0.471500  0.613900  0.452500  1.0
  C  C226  1  0.471500  0.838600  0.386100  1.0
  C  C227  1  0.523500  0.306700  0.725900  1.0
  C  C228  1  0.523500  0.419200  0.693300  1.0
  C  C229  1  0.523500  0.274100  0.580800  1.0
  C  C230  1  0.476500  0.693300  0.274100  1.0
  C  C231  1  0.476500  0.580800  0.306700  1.0
  C  C232  1  0.476500  0.725900  0.419200  1.0
  C  C233  1  0.156600  0.009400  0.513900  1.0
  C  C234  1  0.156600  0.504500  0.990600  1.0
  C  C235  1  0.156600  0.486100  0.495500  1.0
  C  C236  1  0.843400  0.990600  0.486100  1.0
  C  C237  1  0.843400  0.495500  0.009400  1.0
  C  C238  1  0.843400  0.513900  0.504500  1.0
  C  C239  1  0.123700  0.949300  0.439000  1.0
  C  C240  1  0.123700  0.489700  0.050700  1.0
  C  C241  1  0.123700  0.561000  0.510300  1.0
  C  C242  1  0.876300  0.050700  0.561000  1.0
  C  C243  1  0.876300  0.510300  0.949300  1.0
  C  C244  1  0.876300  0.439000  0.489700  1.0
  C  C245  1  0.064900  0.972400  0.398300  1.0
  C  C246  1  0.064900  0.425900  0.027600  1.0
  C  C247  1  0.064900  0.601700  0.574100  1.0
  C  C248  1  0.935100  0.027600  0.601700  1.0
  C  C249  1  0.935100  0.574100  0.972400  1.0
  C  C250  1  0.935100  0.398300  0.425900  1.0
  C  C251  1  0.036200  0.057300  0.436800  1.0
  C  C252  1  0.036200  0.379500  0.942700  1.0
  C  C253  1  0.036200  0.563200  0.620500  1.0
  C  C254  1  0.963800  0.942700  0.563200  1.0
  C  C255  1  0.963800  0.620500  0.057300  1.0
  C  C256  1  0.963800  0.436800  0.379500  1.0
  C  C257  1  0.074400  0.113800  0.514400  1.0
  C  C258  1  0.074400  0.400600  0.886200  1.0
  C  C259  1  0.074400  0.485600  0.599400  1.0
  C  C260  1  0.925600  0.886200  0.485600  1.0
  C  C261  1  0.925600  0.599400  0.113800  1.0
  C  C262  1  0.925600  0.514400  0.400600  1.0
  C  C263  1  0.217500  0.992100  0.560600  1.0
  C  C264  1  0.217500  0.568500  0.007900  1.0
  C  C265  1  0.217500  0.439400  0.431500  1.0
  C  C266  1  0.782500  0.007900  0.439400  1.0
  C  C267  1  0.782500  0.431500  0.992100  1.0
  C  C268  1  0.782500  0.560600  0.568500  1.0
  C  C269  1  0.259900  0.913800  0.532000  1.0
  C  C270  1  0.259900  0.618200  0.086200  1.0
  C  C271  1  0.259900  0.468000  0.381800  1.0
  C  C272  1  0.740100  0.086200  0.468000  1.0
  C  C273  1  0.740100  0.381800  0.913800  1.0
  C  C274  1  0.740100  0.532000  0.618200  1.0
  C  C275  1  0.318500  0.906000  0.582500  1.0
  C  C276  1  0.318500  0.676500  0.094000  1.0
  C  C277  1  0.318500  0.417500  0.323500  1.0
  C  C278  1  0.681500  0.094000  0.417500  1.0
  C  C279  1  0.681500  0.323500  0.906000  1.0
  C  C280  1  0.681500  0.582500  0.676500  1.0
  C  C281  1  0.337000  0.973200  0.661300  1.0
  C  C282  1  0.337000  0.688100  0.026800  1.0
  C  C283  1  0.337000  0.338700  0.311900  1.0
  C  C284  1  0.663000  0.026800  0.338700  1.0
  C  C285  1  0.663000  0.311900  0.973200  1.0
  C  C286  1  0.663000  0.661300  0.688100  1.0
  C  C287  1  0.291500  0.046200  0.683100  1.0
  C  C288  1  0.291500  0.636900  0.953800  1.0
  C  C289  1  0.291500  0.316900  0.363100  1.0
  C  C290  1  0.708500  0.953800  0.316900  1.0
  C  C291  1  0.708500  0.363100  0.046200  1.0
  C  C292  1  0.708500  0.683100  0.636900  1.0
  N  N293  1  0.223100  0.229700  0.782100  1.0
  N  N294  1  0.223100  0.552400  0.770300  1.0
  N  N295  1  0.223100  0.217900  0.447600  1.0
  N  N296  1  0.776900  0.770300  0.217900  1.0
  N  N297  1  0.776900  0.447600  0.229700  1.0
  N  N298  1  0.776900  0.782100  0.552400  1.0
  N  N299  1  0.524400  0.390900  0.748400  1.0
  N  N300  1  0.524400  0.357500  0.609100  1.0
  N  N301  1  0.524400  0.251600  0.642500  1.0
  N  N302  1  0.475600  0.609100  0.251600  1.0
  N  N303  1  0.475600  0.642500  0.390900  1.0
  N  N304  1  0.475600  0.748400  0.357500  1.0
  N  N305  1  0.128500  0.091100  0.549900  1.0
  N  N306  1  0.128500  0.458800  0.908900  1.0
  N  N307  1  0.128500  0.450100  0.541200  1.0
  N  N308  1  0.871500  0.908900  0.450100  1.0
  N  N309  1  0.871500  0.541200  0.091100  1.0
  N  N310  1  0.871500  0.549900  0.458800  1.0
  N  N311  1  0.237100  0.057200  0.636400  1.0
  N  N312  1  0.237100  0.579200  0.942800  1.0
  N  N313  1  0.237100  0.363600  0.420800  1.0
  N  N314  1  0.762900  0.942800  0.363600  1.0
  N  N315  1  0.762900  0.420800  0.057200  1.0
  N  N316  1  0.762900  0.636400  0.579200  1.0
  O  O317  1  0.247300  0.333333  0.666667  1
  O  O318  1  0.752700  0.666667  0.333333  1
  O  O319  1  0.114500  0.994400  0.733900  1
  O  O320  1  0.114500  0.739500  0.005600  1
  O  O321  1  0.114500  0.266100  0.260500  1
  O  O322  1  0.885500  0.005600  0.266100  1
  O  O323  1  0.885500  0.260500  0.994400  1
  O  O324  1  0.885500  0.733900  0.739500  1
  O  O325  1  0.891000  0.648500  0.827800  1
  O  O326  1  0.891000  0.179300  0.351500  1
  O  O327  1  0.891000  0.172200  0.820700  1
  O  O328  1  0.109000  0.351500  0.172200  1
  O  O329  1  0.109000  0.820700  0.648500  1
  O  O330  1  0.109000  0.827800  0.179300  1
  O  O331  1  0.465000  0.166000  0.833000  1
  O  O332  1  0.465000  0.667000  0.834000  1
  O  O333  1  0.465000  0.167000  0.333000  1
  O  O334  1  0.535000  0.834000  0.167000  1
  O  O335  1  0.535000  0.333000  0.166000  1
  O  O336  1  0.535000  0.833000  0.667000  1
  O  O337  1  0.957000  0.270700  0.512700  1
  O  O338  1  0.957000  0.242000  0.729300  1
  O  O339  1  0.957000  0.487300  0.758000  1
  O  O340  1  0.043000  0.729300  0.487300  1
  O  O341  1  0.043000  0.758000  0.270700  1
  O  O342  1  0.043000  0.512700  0.242000  1
  O  O343  1  0.733600  0.575200  0.846600  1
  O  O344  1  0.733600  0.271400  0.424800  1
  O  O345  1  0.733600  0.153400  0.728600  1
  O  O346  1  0.266400  0.424800  0.153400  1
  O  O347  1  0.266400  0.728600  0.575200  1
  O  O348  1  0.266400  0.846600  0.271400  1
  O  O349  1  0.410800  0.434400  0.975700  1.0
  O  O350  1  0.410800  0.541300  0.565600  1.0
  O  O351  1  0.410800  0.024300  0.458700  1.0
  O  O352  1  0.589200  0.565600  0.024300  1.0
  O  O353  1  0.589200  0.458700  0.434400  1.0
  O  O354  1  0.589200  0.975700  0.541300  1.0
  O  O355  1  0.381100  0.428800  0.855800  1.0
  O  O356  1  0.381100  0.427000  0.571200  1.0
  O  O357  1  0.381100  0.144200  0.573000  1.0
  O  O358  1  0.618900  0.571200  0.144200  1.0
  O  O359  1  0.618900  0.573000  0.428800  1.0
  O  O360  1  0.618900  0.855800  0.427000  1.0
  O  O361  1  0.520800  0.284500  0.776700  1.0
  O  O362  1  0.520800  0.492200  0.715500  1.0
  O  O363  1  0.520800  0.223300  0.507800  1.0
  O  O364  1  0.479200  0.715500  0.223300  1.0
  O  O365  1  0.479200  0.507800  0.284500  1.0
  O  O366  1  0.479200  0.776700  0.492200  1.0
  O  O367  1  0.113200  0.265800  0.683300  1.0
  O  O368  1  0.113200  0.417500  0.734200  1.0
  O  O369  1  0.113200  0.316700  0.582500  1.0
  O  O370  1  0.886800  0.734200  0.316700  1.0
  O  O371  1  0.886800  0.582500  0.265800  1.0
  O  O372  1  0.886800  0.683300  0.417500  1.0
  O  O373  1  0.702400  0.288500  0.582200  1.0
  O  O374  1  0.702400  0.293700  0.711500  1.0
  O  O375  1  0.702400  0.417800  0.706300  1.0
  O  O376  1  0.297600  0.711500  0.417800  1.0
  O  O377  1  0.297600  0.706300  0.288500  1.0
  O  O378  1  0.297600  0.582200  0.293700  1.0
  F  F379  1  0.036900  0.226400  0.036900  1
  F  F380  1  0.036900  0.810500  0.773600  1
  F  F381  1  0.036900  0.963100  0.189500  1
  F  F382  1  0.963100  0.773600  0.963100  1
  F  F383  1  0.963100  0.189500  0.226400  1
  F  F384  1  0.963100  0.036900  0.810500  1
  F  F385  1  0.826600  0.376200  0.626300  1.0
  F  F386  1  0.826600  0.250100  0.623800  1.0
  F  F387  1  0.826600  0.373700  0.749900  1.0
  F  F388  1  0.173400  0.623800  0.373700  1.0
  F  F389  1  0.173400  0.749900  0.376200  1.0
  F  F390  1  0.173400  0.626300  0.250100  1.0
