# generated using pymatgen
data_AsPH108Pd3C66N12O37F6
_symmetry_space_group_name_H-M   'P 1'
_cell_length_a   15.74000000
_cell_length_b   18.55100000
_cell_length_c   18.55100000
_cell_angle_alpha   120.00000000
_cell_angle_beta   90.00000000
_cell_angle_gamma   90.00000000
_symmetry_Int_Tables_number   1
_chemical_formula_structural   AsPH108Pd3C66N12O37F6
_chemical_formula_sum   'As2 P2 H216 Pd6 C132 N24 O74 F12'
_cell_volume   4691.04944503
_cell_formula_units_Z   2
loop_
 _symmetry_equiv_pos_site_id
 _symmetry_equiv_pos_as_xyz
  1  'x, y, z'
loop_
 _atom_site_type_symbol
 _atom_site_label
 _atom_site_symmetry_multiplicity
 _atom_site_fract_x
 _atom_site_fract_y
 _atom_site_fract_z
 _atom_site_occupancy
  As  As1  1  0.345800  0.333333  0.666667  1
  As  As2  1  0.654200  0.666667  0.333333  1
  P  P3  1  0.262500  0.666667  0.333333  1
  P  P4  1  0.737500  0.333333  0.666667  1
  H  H5  1  0.382300  0.031000  0.317600  1
  H  H6  1  0.382300  0.286600  0.969000  1
  H  H7  1  0.382300  0.682400  0.713400  1
  H  H8  1  0.617700  0.969000  0.682400  1
  H  H9  1  0.617700  0.713400  0.031000  1
  H  H10  1  0.617700  0.317600  0.286600  1
  H  H11  1  0.384700  0.935700  0.251800  1
  H  H12  1  0.384700  0.316100  0.064300  1
  H  H13  1  0.384700  0.748200  0.683900  1
  H  H14  1  0.615300  0.064300  0.748200  1
  H  H15  1  0.615300  0.683900  0.935700  1
  H  H16  1  0.615300  0.251800  0.316100  1
  H  H17  1  0.325600  0.995400  0.237400  1
  H  H18  1  0.325600  0.242000  0.004600  1
  H  H19  1  0.325600  0.762600  0.758000  1
  H  H20  1  0.674400  0.004600  0.762600  1
  H  H21  1  0.674400  0.758000  0.995400  1
  H  H22  1  0.674400  0.237400  0.242000  1
  H  H23  1  0.502600  0.992500  0.090000  1
  H  H24  1  0.502600  0.097500  0.007500  1
  H  H25  1  0.502600  0.910000  0.902500  1
  H  H26  1  0.497400  0.007500  0.910000  1
  H  H27  1  0.497400  0.902500  0.992500  1
  H  H28  1  0.497400  0.090000  0.097500  1
  H  H29  1  0.405400  0.974600  0.090700  1
  H  H30  1  0.405400  0.116100  0.025400  1
  H  H31  1  0.405400  0.909300  0.883900  1
  H  H32  1  0.594600  0.025400  0.909300  1
  H  H33  1  0.594600  0.883900  0.974600  1
  H  H34  1  0.594600  0.090700  0.116100  1
  H  H35  1  0.472500  0.908500  0.082700  1
  H  H36  1  0.472500  0.174200  0.091500  1
  H  H37  1  0.472500  0.917300  0.825800  1
  H  H38  1  0.527500  0.091500  0.917300  1
  H  H39  1  0.527500  0.825800  0.908500  1
  H  H40  1  0.527500  0.082700  0.174200  1
  H  H41  1  0.738900  0.132500  0.385800  1
  H  H42  1  0.738900  0.253300  0.867500  1
  H  H43  1  0.738900  0.614200  0.746700  1
  H  H44  1  0.261100  0.867500  0.614200  1
  H  H45  1  0.261100  0.746700  0.132500  1
  H  H46  1  0.261100  0.385800  0.253300  1
  H  H47  1  0.758400  0.135200  0.457300  1
  H  H48  1  0.758400  0.322100  0.864800  1
  H  H49  1  0.758400  0.542700  0.677900  1
  H  H50  1  0.241600  0.864800  0.542700  1
  H  H51  1  0.241600  0.677900  0.135200  1
  H  H52  1  0.241600  0.457300  0.322100  1
  H  H53  1  0.640100  0.213200  0.353600  1
  H  H54  1  0.640100  0.140400  0.786800  1
  H  H55  1  0.640100  0.646400  0.859600  1
  H  H56  1  0.359900  0.786800  0.646400  1
  H  H57  1  0.359900  0.859600  0.213200  1
  H  H58  1  0.359900  0.353600  0.140400  1
  H  H59  1  0.630500  0.159600  0.381500  1
  H  H60  1  0.630500  0.221900  0.840400  1
  H  H61  1  0.630500  0.618500  0.778100  1
  H  H62  1  0.369500  0.840400  0.618500  1
  H  H63  1  0.369500  0.778100  0.159600  1
  H  H64  1  0.369500  0.381500  0.221900  1
  H  H65  1  0.222600  0.850000  0.830700  1
  H  H66  1  0.222600  0.980700  0.150000  1
  H  H67  1  0.222600  0.169300  0.019300  1
  H  H68  1  0.777400  0.150000  0.169300  1
  H  H69  1  0.777400  0.019300  0.850000  1
  H  H70  1  0.777400  0.830700  0.980700  1
  H  H71  1  0.268000  0.878100  0.900700  1
  H  H72  1  0.268000  0.022600  0.121900  1
  H  H73  1  0.268000  0.099300  0.977400  1
  H  H74  1  0.732000  0.121900  0.099300  1
  H  H75  1  0.732000  0.977400  0.878100  1
  H  H76  1  0.732000  0.900700  0.022600  1
  H  H77  1  0.997100  0.315800  0.139800  1
  H  H78  1  0.997100  0.824000  0.684200  1
  H  H79  1  0.997100  0.860200  0.176000  1
  H  H80  1  0.002900  0.684200  0.860200  1
  H  H81  1  0.002900  0.176000  0.315800  1
  H  H82  1  0.002900  0.139800  0.824000  1
  H  H83  1  0.921400  0.308400  0.168500  1
  H  H84  1  0.921400  0.860100  0.691600  1
  H  H85  1  0.921400  0.831500  0.139900  1
  H  H86  1  0.078600  0.691600  0.831500  1
  H  H87  1  0.078600  0.139900  0.308400  1
  H  H88  1  0.078600  0.168500  0.860100  1
  H  H89  1  0.847900  0.161700  0.888500  1
  H  H90  1  0.847900  0.726800  0.838300  1
  H  H91  1  0.847900  0.111500  0.273200  1
  H  H92  1  0.152100  0.838300  0.111500  1
  H  H93  1  0.152100  0.273200  0.161700  1
  H  H94  1  0.152100  0.888500  0.726800  1
  H  H95  1  0.905000  0.217500  0.939400  1
  H  H96  1  0.905000  0.721900  0.782500  1
  H  H97  1  0.905000  0.060600  0.278100  1
  H  H98  1  0.095000  0.782500  0.060600  1
  H  H99  1  0.095000  0.278100  0.217500  1
  H  H100  1  0.095000  0.939400  0.721900  1
  H  H101  1  0.866100  0.191500  0.091100  1
  H  H102  1  0.866100  0.899600  0.808500  1
  H  H103  1  0.866100  0.908900  0.100400  1
  H  H104  1  0.133900  0.808500  0.908900  1
  H  H105  1  0.133900  0.100400  0.191500  1
  H  H106  1  0.133900  0.091100  0.899600  1
  H  H107  1  0.925300  0.199600  0.043700  1
  H  H108  1  0.925300  0.844100  0.800400  1
  H  H109  1  0.925300  0.956300  0.155900  1
  H  H110  1  0.074700  0.800400  0.956300  1
  H  H111  1  0.074700  0.155900  0.199600  1
  H  H112  1  0.074700  0.043700  0.844100  1
  H  H113  1  0.231400  0.288100  0.658300  1
  H  H114  1  0.231400  0.370200  0.711900  1
  H  H115  1  0.231400  0.341700  0.629800  1
  H  H116  1  0.768600  0.711900  0.341700  1
  H  H117  1  0.768600  0.629800  0.288100  1
  H  H118  1  0.768600  0.658300  0.370200  1
  H  H119  1  0.195700  0.235600  0.697600  1.0
  H  H120  1  0.195700  0.462000  0.764400  1.0
  H  H121  1  0.195700  0.302400  0.538000  1.0
  H  H122  1  0.804300  0.764400  0.302400  1.0
  H  H123  1  0.804300  0.538000  0.235600  1.0
  H  H124  1  0.804300  0.697600  0.462000  1.0
  H  H125  1  0.209600  0.996800  0.647700  1.0
  H  H126  1  0.209600  0.650900  0.003200  1.0
  H  H127  1  0.209600  0.352300  0.349100  1.0
  H  H128  1  0.790400  0.003200  0.352300  1.0
  H  H129  1  0.790400  0.349100  0.996800  1.0
  H  H130  1  0.790400  0.647700  0.650900  1.0
  H  H131  1  0.304300  0.037100  0.753300  1.0
  H  H132  1  0.304300  0.716200  0.962900  1.0
  H  H133  1  0.304300  0.246700  0.283800  1.0
  H  H134  1  0.695700  0.962900  0.246700  1.0
  H  H135  1  0.695700  0.283800  0.037100  1.0
  H  H136  1  0.695700  0.753300  0.716200  1.0
  H  H137  1  0.347800  0.177700  0.831300  1.0
  H  H138  1  0.347800  0.653600  0.822300  1.0
  H  H139  1  0.347800  0.168700  0.346400  1.0
  H  H140  1  0.652200  0.822300  0.168700  1.0
  H  H141  1  0.652200  0.346400  0.177700  1.0
  H  H142  1  0.652200  0.831300  0.653600  1.0
  H  H143  1  0.068800  0.156300  0.477500  1.0
  H  H144  1  0.068800  0.321200  0.843700  1.0
  H  H145  1  0.068800  0.522500  0.678800  1.0
  H  H146  1  0.931200  0.843700  0.522500  1.0
  H  H147  1  0.931200  0.678800  0.156300  1.0
  H  H148  1  0.931200  0.477500  0.321200  1.0
  H  H149  1  0.047000  0.070600  0.470700  1.0
  H  H150  1  0.047000  0.400100  0.929400  1.0
  H  H151  1  0.047000  0.529300  0.599900  1.0
  H  H152  1  0.953000  0.929400  0.529300  1.0
  H  H153  1  0.953000  0.599900  0.070600  1.0
  H  H154  1  0.953000  0.470700  0.400100  1.0
  H  H155  1  0.953000  0.131700  0.574500  1.0
  H  H156  1  0.953000  0.442800  0.868300  1.0
  H  H157  1  0.953000  0.425500  0.557200  1.0
  H  H158  1  0.047000  0.868300  0.425500  1.0
  H  H159  1  0.047000  0.557200  0.131700  1.0
  H  H160  1  0.047000  0.574500  0.442800  1.0
  H  H161  1  0.931100  0.153700  0.505200  1.0
  H  H162  1  0.931100  0.351500  0.846300  1.0
  H  H163  1  0.931100  0.494800  0.648500  1.0
  H  H164  1  0.068900  0.846300  0.494800  1.0
  H  H165  1  0.068900  0.648500  0.153700  1.0
  H  H166  1  0.068900  0.505200  0.351500  1.0
  H  H167  1  0.354000  0.585400  0.104700  1.0
  H  H168  1  0.354000  0.519300  0.414600  1.0
  H  H169  1  0.354000  0.895300  0.480700  1.0
  H  H170  1  0.646000  0.414600  0.895300  1.0
  H  H171  1  0.646000  0.480700  0.585400  1.0
  H  H172  1  0.646000  0.104700  0.519300  1.0
  H  H173  1  0.457100  0.651000  0.070000  1.0
  H  H174  1  0.457100  0.419000  0.349000  1.0
  H  H175  1  0.457100  0.930000  0.581000  1.0
  H  H176  1  0.542900  0.349000  0.930000  1.0
  H  H177  1  0.542900  0.581000  0.651000  1.0
  H  H178  1  0.542900  0.070000  0.419000  1.0
  H  H179  1  0.502200  0.586400  0.925700  1.0
  H  H180  1  0.502200  0.339300  0.413600  1.0
  H  H181  1  0.502200  0.074300  0.660700  1.0
  H  H182  1  0.497800  0.413600  0.074300  1.0
  H  H183  1  0.497800  0.660700  0.586400  1.0
  H  H184  1  0.497800  0.925700  0.339300  1.0
  H  H185  1  0.441100  0.461000  0.830800  1.0
  H  H186  1  0.441100  0.369800  0.539000  1.0
  H  H187  1  0.441100  0.169200  0.630200  1.0
  H  H188  1  0.558900  0.539000  0.169200  1.0
  H  H189  1  0.558900  0.630200  0.461000  1.0
  H  H190  1  0.558900  0.830800  0.369800  1.0
  H  H191  1  0.250900  0.518900  0.129800  1.0
  H  H192  1  0.250900  0.610900  0.481100  1.0
  H  H193  1  0.250900  0.870200  0.389100  1.0
  H  H194  1  0.749100  0.481100  0.870200  1.0
  H  H195  1  0.749100  0.389100  0.518900  1.0
  H  H196  1  0.749100  0.129800  0.610900  1.0
  H  H197  1  0.159400  0.433600  0.149100  1.0
  H  H198  1  0.159400  0.715500  0.566400  1.0
  H  H199  1  0.159400  0.850900  0.284500  1.0
  H  H200  1  0.840600  0.566400  0.850900  1.0
  H  H201  1  0.840600  0.284500  0.433600  1.0
  H  H202  1  0.840600  0.149100  0.715500  1.0
  H  H203  1  0.121500  0.306600  0.032000  1.0
  H  H204  1  0.121500  0.725400  0.693400  1.0
  H  H205  1  0.121500  0.968000  0.274600  1.0
  H  H206  1  0.878500  0.693400  0.968000  1.0
  H  H207  1  0.878500  0.274600  0.306600  1.0
  H  H208  1  0.878500  0.032000  0.725400  1.0
  H  H209  1  0.194700  0.261800  0.907400  1.0
  H  H210  1  0.194700  0.645600  0.738200  1.0
  H  H211  1  0.194700  0.092600  0.354400  1.0
  H  H212  1  0.805300  0.738200  0.092600  1.0
  H  H213  1  0.805300  0.354400  0.261800  1.0
  H  H214  1  0.805300  0.907400  0.645600  1.0
  H  H215  1  0.154500  0.593000  0.277200  1.0
  H  H216  1  0.154500  0.684200  0.407000  1.0
  H  H217  1  0.154500  0.722800  0.315800  1.0
  H  H218  1  0.845500  0.407000  0.722800  1.0
  H  H219  1  0.845500  0.315800  0.593000  1.0
  H  H220  1  0.845500  0.277200  0.684200  1.0
  Pd  Pd221  1  0.320900  0.335880  0.836890  1.0
  Pd  Pd222  1  0.320900  0.501010  0.664120  1.0
  Pd  Pd223  1  0.320900  0.163110  0.498990  1.0
  Pd  Pd224  1  0.679100  0.664120  0.163110  1.0
  Pd  Pd225  1  0.679100  0.498990  0.335880  1.0
  Pd  Pd226  1  0.679100  0.836890  0.501010  1.0
  C  C227  1  0.379200  0.990600  0.259300  1
  C  C228  1  0.379200  0.268700  0.009400  1
  C  C229  1  0.379200  0.740700  0.731300  1
  C  C230  1  0.620800  0.009400  0.740700  1
  C  C231  1  0.620800  0.731300  0.990600  1
  C  C232  1  0.620800  0.259300  0.268700  1
  C  C233  1  0.463400  0.008500  0.205400  1
  C  C234  1  0.463400  0.196900  0.991500  1
  C  C235  1  0.463400  0.794600  0.803100  1
  C  C236  1  0.536600  0.991500  0.794600  1
  C  C237  1  0.536600  0.803100  0.008500  1
  C  C238  1  0.536600  0.205400  0.196900  1
  C  C239  1  0.460700  0.967000  0.107700  1
  C  C240  1  0.460700  0.140700  0.033000  1
  C  C241  1  0.460700  0.892300  0.859300  1
  C  C242  1  0.539300  0.033000  0.892300  1
  C  C243  1  0.539300  0.859300  0.967000  1
  C  C244  1  0.539300  0.107700  0.140700  1
  C  C245  1  0.218000  0.195700  0.708700  1.0
  C  C246  1  0.218000  0.513000  0.804300  1.0
  C  C247  1  0.218000  0.291300  0.487000  1.0
  C  C248  1  0.782000  0.804300  0.291300  1.0
  C  C249  1  0.782000  0.487000  0.195700  1.0
  C  C250  1  0.782000  0.708700  0.513000  1.0
  C  C251  1  0.192200  0.115200  0.662800  1.0
  C  C252  1  0.192200  0.547600  0.884800  1.0
  C  C253  1  0.192200  0.337200  0.452400  1.0
  C  C254  1  0.807800  0.884800  0.337200  1.0
  C  C255  1  0.807800  0.452400  0.115200  1.0
  C  C256  1  0.807800  0.662800  0.547600  1.0
  C  C257  1  0.226300  0.052100  0.679200  1.0
  C  C258  1  0.226300  0.627100  0.947900  1.0
  C  C259  1  0.226300  0.320800  0.372900  1.0
  C  C260  1  0.773700  0.947900  0.320800  1.0
  C  C261  1  0.773700  0.372900  0.052100  1.0
  C  C262  1  0.773700  0.679200  0.627100  1.0
  C  C263  1  0.282100  0.076100  0.740800  1.0
  C  C264  1  0.282100  0.664700  0.923900  1.0
  C  C265  1  0.282100  0.259200  0.335300  1.0
  C  C266  1  0.717900  0.923900  0.259200  1.0
  C  C267  1  0.717900  0.335300  0.076100  1.0
  C  C268  1  0.717900  0.740800  0.664700  1.0
  C  C269  1  0.308500  0.161500  0.788500  1.0
  C  C270  1  0.308500  0.627000  0.838500  1.0
  C  C271  1  0.308500  0.211500  0.373000  1.0
  C  C272  1  0.691500  0.838500  0.211500  1.0
  C  C273  1  0.691500  0.373000  0.161500  1.0
  C  C274  1  0.691500  0.788500  0.627000  1.0
  C  C275  1  0.128900  0.088800  0.594800  1.0
  C  C276  1  0.128900  0.506000  0.911200  1.0
  C  C277  1  0.128900  0.405200  0.494000  1.0
  C  C278  1  0.871100  0.911200  0.405200  1.0
  C  C279  1  0.871100  0.494000  0.088800  1.0
  C  C280  1  0.871100  0.594800  0.506000  1.0
  C  C281  1  0.052200  0.129900  0.509100  1.0
  C  C282  1  0.052200  0.379200  0.870100  1.0
  C  C283  1  0.052200  0.490900  0.620800  1.0
  C  C284  1  0.947800  0.870100  0.490900  1.0
  C  C285  1  0.947800  0.620800  0.129900  1.0
  C  C286  1  0.947800  0.509100  0.379200  1.0
  C  C287  1  0.972300  0.162100  0.547600  1.0
  C  C288  1  0.972300  0.385500  0.837900  1.0
  C  C289  1  0.972300  0.452400  0.614500  1.0
  C  C290  1  0.027700  0.837900  0.452400  1.0
  C  C291  1  0.027700  0.614500  0.162100  1.0
  C  C292  1  0.027700  0.547600  0.385500  1.0
  C  C293  1  0.977100  0.306600  0.580800  1.0
  C  C294  1  0.977100  0.274200  0.693400  1.0
  C  C295  1  0.977100  0.419200  0.725800  1.0
  C  C296  1  0.022900  0.693400  0.419200  1.0
  C  C297  1  0.022900  0.725800  0.306600  1.0
  C  C298  1  0.022900  0.580800  0.274200  1.0
  C  C299  1  0.345100  0.488100  0.992200  1.0
  C  C300  1  0.345100  0.504100  0.511900  1.0
  C  C301  1  0.345100  0.007800  0.495900  1.0
  C  C302  1  0.654900  0.511900  0.007800  1.0
  C  C303  1  0.654900  0.495900  0.488100  1.0
  C  C304  1  0.654900  0.992200  0.504100  1.0
  C  C305  1  0.374300  0.561300  0.050400  1.0
  C  C306  1  0.374300  0.489100  0.438700  1.0
  C  C307  1  0.374300  0.949600  0.510900  1.0
  C  C308  1  0.625700  0.438700  0.949600  1.0
  C  C309  1  0.625700  0.510900  0.561300  1.0
  C  C310  1  0.625700  0.050400  0.489100  1.0
  C  C311  1  0.434100  0.600600  0.029900  1.0
  C  C312  1  0.434100  0.429300  0.399400  1.0
  C  C313  1  0.434100  0.970100  0.570700  1.0
  C  C314  1  0.565900  0.399400  0.970100  1.0
  C  C315  1  0.565900  0.570700  0.600600  1.0
  C  C316  1  0.565900  0.029900  0.429300  1.0
  C  C317  1  0.461700  0.561300  0.942500  1.0
  C  C318  1  0.461700  0.381200  0.438700  1.0
  C  C319  1  0.461700  0.057500  0.618800  1.0
  C  C320  1  0.538300  0.438700  0.057500  1.0
  C  C321  1  0.538300  0.618800  0.561300  1.0
  C  C322  1  0.538300  0.942500  0.381200  1.0
  C  C323  1  0.425700  0.486400  0.886600  1.0
  C  C324  1  0.425700  0.400200  0.513600  1.0
  C  C325  1  0.425700  0.113400  0.599800  1.0
  C  C326  1  0.574300  0.513600  0.113400  1.0
  C  C327  1  0.574300  0.599800  0.486400  1.0
  C  C328  1  0.574300  0.886600  0.400200  1.0
  C  C329  1  0.279700  0.437400  0.008500  1.0
  C  C330  1  0.279700  0.571100  0.562600  1.0
  C  C331  1  0.279700  0.991500  0.428900  1.0
  C  C332  1  0.720300  0.562600  0.991500  1.0
  C  C333  1  0.720300  0.428900  0.437400  1.0
  C  C334  1  0.720300  0.008500  0.571100  1.0
  C  C335  1  0.239100  0.465800  0.085900  1.0
  C  C336  1  0.239100  0.620100  0.534200  1.0
  C  C337  1  0.239100  0.914100  0.379900  1.0
  C  C338  1  0.760900  0.534200  0.914100  1.0
  C  C339  1  0.760900  0.379900  0.465800  1.0
  C  C340  1  0.760900  0.085900  0.620100  1.0
  C  C341  1  0.183200  0.416800  0.097300  1.0
  C  C342  1  0.183200  0.680500  0.583200  1.0
  C  C343  1  0.183200  0.902700  0.319500  1.0
  C  C344  1  0.816800  0.583200  0.902700  1.0
  C  C345  1  0.816800  0.319500  0.416800  1.0
  C  C346  1  0.816800  0.097300  0.680500  1.0
  C  C347  1  0.163000  0.340300  0.028300  1.0
  C  C348  1  0.163000  0.688000  0.659700  1.0
  C  C349  1  0.163000  0.971700  0.312000  1.0
  C  C350  1  0.837000  0.659700  0.971700  1.0
  C  C351  1  0.837000  0.312000  0.340300  1.0
  C  C352  1  0.837000  0.028300  0.688000  1.0
  C  C353  1  0.206400  0.314400  0.952100  1.0
  C  C354  1  0.206400  0.637700  0.685600  1.0
  C  C355  1  0.206400  0.047900  0.362300  1.0
  C  C356  1  0.793600  0.685600  0.047900  1.0
  C  C357  1  0.793600  0.362300  0.314400  1.0
  C  C358  1  0.793600  0.952100  0.637700  1.0
  N  N359  1  0.275600  0.218300  0.770200  1.0
  N  N360  1  0.275600  0.551900  0.781700  1.0
  N  N361  1  0.275600  0.229800  0.448100  1.0
  N  N362  1  0.724400  0.781700  0.229800  1.0
  N  N363  1  0.724400  0.448100  0.218300  1.0
  N  N364  1  0.724400  0.770200  0.551900  1.0
  N  N365  1  0.976800  0.251600  0.609900  1.0
  N  N366  1  0.976800  0.358300  0.748400  1.0
  N  N367  1  0.976800  0.390100  0.641700  1.0
  N  N368  1  0.023200  0.748400  0.390100  1.0
  N  N369  1  0.023200  0.641700  0.251600  1.0
  N  N370  1  0.023200  0.609900  0.358300  1.0
  N  N371  1  0.369300  0.449600  0.910800  1.0
  N  N372  1  0.369300  0.461200  0.550400  1.0
  N  N373  1  0.369300  0.089200  0.538800  1.0
  N  N374  1  0.630700  0.550400  0.089200  1.0
  N  N375  1  0.630700  0.538800  0.449600  1.0
  N  N376  1  0.630700  0.910800  0.461200  1.0
  N  N377  1  0.261700  0.360500  0.941700  1.0
  N  N378  1  0.261700  0.581200  0.639500  1.0
  N  N379  1  0.261700  0.058300  0.418800  1.0
  N  N380  1  0.738300  0.639500  0.058300  1.0
  N  N381  1  0.738300  0.418800  0.360500  1.0
  N  N382  1  0.738300  0.941700  0.581200  1.0
  O  O383  1  0.248800  0.333333  0.666667  1
  O  O384  1  0.751200  0.666667  0.333333  1
  O  O385  1  0.543100  0.042000  0.231800  1
  O  O386  1  0.543100  0.189800  0.958000  1
  O  O387  1  0.543100  0.768200  0.810200  1
  O  O388  1  0.456900  0.958000  0.768200  1
  O  O389  1  0.456900  0.810200  0.042000  1
  O  O390  1  0.456900  0.231800  0.189800  1
  O  O391  1  0.768900  0.154900  0.427400  1
  O  O392  1  0.768900  0.272500  0.845100  1
  O  O393  1  0.768900  0.572600  0.727500  1
  O  O394  1  0.231100  0.845100  0.572600  1
  O  O395  1  0.231100  0.727500  0.154900  1
  O  O396  1  0.231100  0.427400  0.272500  1
  O  O397  1  0.609000  0.177600  0.353300  1
  O  O398  1  0.609000  0.175700  0.822400  1
  O  O399  1  0.609000  0.646700  0.824300  1
  O  O400  1  0.391000  0.822400  0.646700  1
  O  O401  1  0.391000  0.824300  0.177600  1
  O  O402  1  0.391000  0.353300  0.175700  1
  O  O403  1  0.247900  0.836500  0.860500  1
  O  O404  1  0.247900  0.024000  0.163500  1
  O  O405  1  0.247900  0.139500  0.976000  1
  O  O406  1  0.752100  0.163500  0.139500  1
  O  O407  1  0.752100  0.976000  0.836500  1
  O  O408  1  0.752100  0.860500  0.024000  1
  O  O409  1  0.958300  0.341300  0.172100  1
  O  O410  1  0.958300  0.830800  0.658700  1
  O  O411  1  0.958300  0.827900  0.169200  1
  O  O412  1  0.041700  0.658700  0.827900  1
  O  O413  1  0.041700  0.169200  0.341300  1
  O  O414  1  0.041700  0.172100  0.830800  1
  O  O415  1  0.884700  0.194800  0.892400  1
  O  O416  1  0.884700  0.697600  0.805200  1
  O  O417  1  0.884700  0.107600  0.302400  1
  O  O418  1  0.115300  0.805200  0.107600  1
  O  O419  1  0.115300  0.302400  0.194800  1
  O  O420  1  0.115300  0.892400  0.697600  1
  O  O421  1  0.878200  0.215000  0.065000  1
  O  O422  1  0.878200  0.850000  0.785000  1
  O  O423  1  0.878200  0.935000  0.150000  1
  O  O424  1  0.121800  0.785000  0.935000  1
  O  O425  1  0.121800  0.150000  0.215000  1
  O  O426  1  0.121800  0.065000  0.850000  1
  O  O427  1  0.089500  0.023600  0.565600  1.0
  O  O428  1  0.089500  0.542000  0.976400  1.0
  O  O429  1  0.089500  0.434400  0.458000  1.0
  O  O430  1  0.910500  0.976400  0.434400  1.0
  O  O431  1  0.910500  0.458000  0.023600  1.0
  O  O432  1  0.910500  0.565600  0.542000  1.0
  O  O433  1  0.118800  0.144400  0.571100  1.0
  O  O434  1  0.118800  0.426700  0.855600  1.0
  O  O435  1  0.118800  0.428900  0.573300  1.0
  O  O436  1  0.881200  0.855600  0.428900  1.0
  O  O437  1  0.881200  0.573300  0.144400  1.0
  O  O438  1  0.881200  0.571100  0.426700  1.0
  O  O439  1  0.979800  0.283700  0.507200  1.0
  O  O440  1  0.979800  0.223500  0.716300  1.0
  O  O441  1  0.979800  0.492800  0.776500  1.0
  O  O442  1  0.020200  0.716300  0.492800  1.0
  O  O443  1  0.020200  0.776500  0.283700  1.0
  O  O444  1  0.020200  0.507200  0.223500  1.0
  O  O445  1  0.386800  0.316900  0.735800  1.0
  O  O446  1  0.386800  0.418900  0.683100  1.0
  O  O447  1  0.386800  0.264200  0.581100  1.0
  O  O448  1  0.613200  0.683100  0.264200  1.0
  O  O449  1  0.613200  0.581100  0.316900  1.0
  O  O450  1  0.613200  0.735800  0.418900  1.0
  O  O451  1  0.201300  0.581000  0.287600  1.0
  O  O452  1  0.201300  0.706600  0.419000  1.0
  O  O453  1  0.201300  0.712400  0.293400  1.0
  O  O454  1  0.798700  0.419000  0.712400  1.0
  O  O455  1  0.798700  0.293400  0.581000  1.0
  O  O456  1  0.798700  0.287600  0.706600  1.0
  F  F457  1  0.542200  0.244200  0.513000  1
  F  F458  1  0.542200  0.268800  0.755800  1
  F  F459  1  0.542200  0.487000  0.731200  1
  F  F460  1  0.457800  0.755800  0.487000  1
  F  F461  1  0.457800  0.731200  0.244200  1
  F  F462  1  0.457800  0.513000  0.268800  1
  F  F463  1  0.325500  0.625700  0.248300  1.0
  F  F464  1  0.325500  0.622600  0.374300  1.0
  F  F465  1  0.325500  0.751700  0.377400  1.0
  F  F466  1  0.674500  0.374300  0.751700  1.0
  F  F467  1  0.674500  0.377400  0.625700  1.0
  F  F468  1  0.674500  0.248300  0.622600  1.0
