# generated using pymatgen
data_Co2H71C65N11O7
_symmetry_space_group_name_H-M   'P 1'
_cell_length_a   15.95170000
_cell_length_b   16.13020000
_cell_length_c   21.81400000
_cell_angle_alpha   90.00000000
_cell_angle_beta   96.57600000
_cell_angle_gamma   90.00000000
_symmetry_Int_Tables_number   1
_chemical_formula_structural   Co2H71C65N11O7
_chemical_formula_sum   'Co8 H284 C260 N44 O28'
_cell_volume   5575.90407152
_cell_formula_units_Z   4
loop_
 _symmetry_equiv_pos_site_id
 _symmetry_equiv_pos_as_xyz
  1  'x, y, z'
loop_
 _atom_site_type_symbol
 _atom_site_label
 _atom_site_symmetry_multiplicity
 _atom_site_fract_x
 _atom_site_fract_y
 _atom_site_fract_z
 _atom_site_occupancy
  Co  Co1  1  0.709340  0.543290  0.830850  1
  Co  Co2  1  0.790660  0.043290  0.169150  1
  Co  Co3  1  0.290660  0.456710  0.169150  1
  Co  Co4  1  0.209340  0.956710  0.830850  1
  Co  Co5  1  0.232540  0.319380  0.632280  1
  Co  Co6  1  0.267460  0.819380  0.367720  1
  Co  Co7  1  0.767460  0.680620  0.367720  1
  Co  Co8  1  0.732540  0.180620  0.632280  1
  H  H9  1  0.450900  0.608300  0.672800  1
  H  H10  1  0.049100  0.108300  0.327200  1
  H  H11  1  0.549100  0.391700  0.327200  1
  H  H12  1  0.950900  0.891700  0.672800  1
  H  H13  1  0.526700  0.633000  0.767300  1
  H  H14  1  0.973300  0.133000  0.232700  1
  H  H15  1  0.473300  0.367000  0.232700  1
  H  H16  1  0.026700  0.867000  0.767300  1
  H  H17  1  0.381100  0.474100  0.846000  1
  H  H18  1  0.118900  0.974100  0.154000  1
  H  H19  1  0.618900  0.525900  0.154000  1
  H  H20  1  0.881100  0.025900  0.846000  1
  H  H21  1  0.303000  0.452100  0.752300  1
  H  H22  1  0.197000  0.952100  0.247700  1
  H  H23  1  0.697000  0.547900  0.247700  1
  H  H24  1  0.803000  0.047900  0.752300  1
  H  H25  1  0.553100  0.616400  0.874100  1
  H  H26  1  0.946900  0.116400  0.125900  1
  H  H27  1  0.446900  0.383600  0.125900  1
  H  H28  1  0.053100  0.883600  0.874100  1
  H  H29  1  0.476400  0.587700  0.907700  1
  H  H30  1  0.023600  0.087700  0.092300  1
  H  H31  1  0.523600  0.412300  0.092300  1
  H  H32  1  0.976400  0.912300  0.907700  1
  H  H33  1  0.485700  0.434200  0.953400  1
  H  H34  1  0.014300  0.934200  0.046600  1
  H  H35  1  0.514300  0.565800  0.046600  1
  H  H36  1  0.985700  0.065800  0.953400  1
  H  H37  1  0.606000  0.339600  0.979100  1
  H  H38  1  0.894000  0.839600  0.020900  1
  H  H39  1  0.394000  0.660400  0.020900  1
  H  H40  1  0.106000  0.160400  0.979100  1
  H  H41  1  0.741800  0.304100  0.995800  1
  H  H42  1  0.758200  0.804100  0.004200  1
  H  H43  1  0.258200  0.695900  0.004200  1
  H  H44  1  0.241800  0.195900  0.995800  1
  H  H45  1  0.875700  0.250000  0.008600  1
  H  H46  1  0.624300  0.750000  0.991400  1
  H  H47  1  0.124300  0.750000  0.991400  1
  H  H48  1  0.375700  0.250000  0.008600  1
  H  H49  1  0.976400  0.299400  0.949200  1
  H  H50  1  0.523600  0.799400  0.050800  1
  H  H51  1  0.023600  0.700600  0.050800  1
  H  H52  1  0.476400  0.200600  0.949200  1
  H  H53  1  0.941500  0.399700  0.877100  1
  H  H54  1  0.558500  0.899700  0.122900  1
  H  H55  1  0.058500  0.600300  0.122900  1
  H  H56  1  0.441500  0.100300  0.877100  1
  H  H57  1  0.260600  0.494300  0.648700  1
  H  H58  1  0.239400  0.994300  0.351300  1
  H  H59  1  0.739400  0.505700  0.351300  1
  H  H60  1  0.760600  0.005700  0.648700  1
  H  H61  1  0.308100  0.567000  0.620100  1
  H  H62  1  0.191900  0.067000  0.379900  1
  H  H63  1  0.691900  0.433000  0.379900  1
  H  H64  1  0.808100  0.933000  0.620100  1
  H  H65  1  0.439000  0.519300  0.559000  1
  H  H66  1  0.061000  0.019300  0.441000  1
  H  H67  1  0.561000  0.480700  0.441000  1
  H  H68  1  0.939000  0.980700  0.559000  1
  H  H69  1  0.463000  0.389600  0.503100  1
  H  H70  1  0.037000  0.889600  0.496900  1
  H  H71  1  0.537000  0.610400  0.496900  1
  H  H72  1  0.963000  0.110400  0.503100  1
  H  H73  1  0.441400  0.261300  0.469100  1
  H  H74  1  0.058600  0.761300  0.530900  1
  H  H75  1  0.558600  0.738700  0.530900  1
  H  H76  1  0.941400  0.238700  0.469100  1
  H  H77  1  0.433400  0.128200  0.432800  1
  H  H78  1  0.066600  0.628200  0.567200  1
  H  H79  1  0.566600  0.871800  0.567200  1
  H  H80  1  0.933400  0.371800  0.432800  1
  H  H81  1  0.338100  0.036600  0.468600  1
  H  H82  1  0.161900  0.536600  0.531400  1
  H  H83  1  0.661900  0.963400  0.531400  1
  H  H84  1  0.838100  0.463400  0.468600  1
  H  H85  1  0.258100  0.077900  0.543200  1
  H  H86  1  0.241900  0.577900  0.456800  1
  H  H87  1  0.741900  0.922100  0.456800  1
  H  H88  1  0.758100  0.422100  0.543200  1
  H  H89  1  0.462900  0.309100  0.827400  1
  H  H90  1  0.037100  0.809100  0.172600  1
  H  H91  1  0.537100  0.690900  0.172600  1
  H  H92  1  0.962900  0.190900  0.827400  1
  H  H93  1  0.587000  0.376300  0.815900  1
  H  H94  1  0.913000  0.876300  0.184100  1
  H  H95  1  0.413000  0.623700  0.184100  1
  H  H96  1  0.087000  0.123700  0.815900  1
  H  H97  1  0.563600  0.315500  0.637500  1
  H  H98  1  0.936400  0.815500  0.362500  1
  H  H99  1  0.436400  0.684500  0.362500  1
  H  H100  1  0.063600  0.184500  0.637500  1
  H  H101  1  0.439000  0.247500  0.649200  1
  H  H102  1  0.061000  0.747500  0.350800  1
  H  H103  1  0.561000  0.752500  0.350800  1
  H  H104  1  0.939000  0.252500  0.649200  1
  H  H105  1  0.706600  0.393300  0.757900  1
  H  H106  1  0.793400  0.893300  0.242100  1
  H  H107  1  0.293400  0.606700  0.242100  1
  H  H108  1  0.206600  0.106700  0.757900  1
  H  H109  1  0.700000  0.364700  0.689000  1
  H  H110  1  0.800000  0.864700  0.311000  1
  H  H111  1  0.300000  0.635300  0.311000  1
  H  H112  1  0.200000  0.135300  0.689000  1
  H  H113  1  0.635500  0.478200  0.605900  1
  H  H114  1  0.864500  0.978200  0.394100  1
  H  H115  1  0.364500  0.521800  0.394100  1
  H  H116  1  0.135500  0.021800  0.605900  1
  H  H117  1  0.634700  0.631200  0.609900  1
  H  H118  1  0.865300  0.131200  0.390100  1
  H  H119  1  0.365300  0.368800  0.390100  1
  H  H120  1  0.134700  0.868800  0.609900  1
  H  H121  1  0.642600  0.758400  0.650300  1
  H  H122  1  0.857400  0.258400  0.349700  1
  H  H123  1  0.357400  0.241600  0.349700  1
  H  H124  1  0.142600  0.741600  0.650300  1
  H  H125  1  0.643000  0.892200  0.685700  1
  H  H126  1  0.857000  0.392200  0.314300  1
  H  H127  1  0.357000  0.107800  0.314300  1
  H  H128  1  0.143000  0.607800  0.685700  1
  H  H129  1  0.670100  0.918100  0.789300  1
  H  H130  1  0.829900  0.418100  0.210700  1
  H  H131  1  0.329900  0.081900  0.210700  1
  H  H132  1  0.170100  0.581900  0.789300  1
  H  H133  1  0.693500  0.812200  0.857400  1
  H  H134  1  0.806500  0.312200  0.142600  1
  H  H135  1  0.306500  0.187800  0.142600  1
  H  H136  1  0.193500  0.687800  0.857400  1
  H  H137  1  0.337700  0.198000  0.708300  1
  H  H138  1  0.162300  0.698000  0.291700  1
  H  H139  1  0.662300  0.802000  0.291700  1
  H  H140  1  0.837700  0.302000  0.708300  1
  H  H141  1  0.370600  0.182200  0.777600  1
  H  H142  1  0.129400  0.682200  0.222400  1
  H  H143  1  0.629400  0.817800  0.222400  1
  H  H144  1  0.870600  0.317800  0.777600  1
  H  H145  1  0.295800  0.269500  0.859000  1
  H  H146  1  0.204200  0.769500  0.141000  1
  H  H147  1  0.704200  0.730500  0.141000  1
  H  H148  1  0.795800  0.230500  0.859000  1
  H  H149  1  0.165400  0.352000  0.849300  1
  H  H150  1  0.334600  0.852000  0.150700  1
  H  H151  1  0.834600  0.648000  0.150700  1
  H  H152  1  0.665400  0.148000  0.849300  1
  H  H153  1  0.049800  0.415300  0.804400  1
  H  H154  1  0.450200  0.915300  0.195600  1
  H  H155  1  0.950200  0.584700  0.195600  1
  H  H156  1  0.549800  0.084700  0.804400  1
  H  H157  1  0.926500  0.476700  0.765200  1
  H  H158  1  0.573500  0.976700  0.234800  1
  H  H159  1  0.073500  0.523300  0.234800  1
  H  H160  1  0.426500  0.023300  0.765200  1
  H  H161  1  0.897500  0.493000  0.659600  1
  H  H162  1  0.602500  0.993000  0.340400  1
  H  H163  1  0.102500  0.507000  0.340400  1
  H  H164  1  0.397500  0.007000  0.659600  1
  H  H165  1  0.992000  0.450900  0.595100  1
  H  H166  1  0.508000  0.950900  0.404900  1
  H  H167  1  0.008000  0.549100  0.404900  1
  H  H168  1  0.492000  0.049100  0.595100  1
  H  H169  1  0.109800  0.239600  0.509900  1
  H  H170  1  0.390200  0.739600  0.490100  1
  H  H171  1  0.890200  0.760400  0.490100  1
  H  H172  1  0.609800  0.260400  0.509900  1
  H  H173  1  0.134700  0.248400  0.350800  1
  H  H174  1  0.365300  0.748400  0.649200  1
  H  H175  1  0.865300  0.751600  0.649200  1
  H  H176  1  0.634700  0.251600  0.350800  1
  H  H177  1  0.140800  0.345400  0.351700  1
  H  H178  1  0.359200  0.845400  0.648300  1
  H  H179  1  0.859200  0.654600  0.648300  1
  H  H180  1  0.640800  0.154600  0.351700  1
  H  H181  1  0.053800  0.301900  0.355900  1
  H  H182  1  0.446200  0.801900  0.644100  1
  H  H183  1  0.946200  0.698100  0.644100  1
  H  H184  1  0.553800  0.198100  0.355900  1
  H  H185  1  0.143600  0.374500  0.507300  1
  H  H186  1  0.356400  0.874500  0.492700  1
  H  H187  1  0.856400  0.625500  0.492700  1
  H  H188  1  0.643600  0.125500  0.507300  1
  H  H189  1  0.117400  0.418200  0.443800  1
  H  H190  1  0.382600  0.918200  0.556200  1
  H  H191  1  0.882600  0.581800  0.556200  1
  H  H192  1  0.617400  0.081800  0.443800  1
  H  H193  1  0.210600  0.388400  0.461000  1
  H  H194  1  0.289400  0.888400  0.539000  1
  H  H195  1  0.789400  0.611600  0.539000  1
  H  H196  1  0.710600  0.111600  0.461000  1
  H  H197  1  0.860400  0.786300  0.861300  1
  H  H198  1  0.639600  0.286300  0.138700  1
  H  H199  1  0.139600  0.213700  0.138700  1
  H  H200  1  0.360400  0.713700  0.861300  1
  H  H201  1  0.877700  0.636500  0.773000  1
  H  H202  1  0.622300  0.136500  0.227000  1
  H  H203  1  0.122300  0.363500  0.227000  1
  H  H204  1  0.377700  0.863500  0.773000  1
  H  H205  1  0.961000  0.685100  0.765500  1
  H  H206  1  0.539000  0.185100  0.234500  1
  H  H207  1  0.039000  0.314900  0.234500  1
  H  H208  1  0.461000  0.814900  0.765500  1
  H  H209  1  0.876700  0.733600  0.769900  1
  H  H210  1  0.623300  0.233600  0.230100  1
  H  H211  1  0.123300  0.266400  0.230100  1
  H  H212  1  0.376700  0.766400  0.769900  1
  H  H213  1  0.000100  0.639700  0.920700  1
  H  H214  1  0.499900  0.139700  0.079300  1
  H  H215  1  0.999900  0.360300  0.079300  1
  H  H216  1  0.500100  0.860300  0.920700  1
  H  H217  1  0.025600  0.613100  0.856300  1
  H  H218  1  0.474400  0.113100  0.143700  1
  H  H219  1  0.974400  0.386900  0.143700  1
  H  H220  1  0.525600  0.886900  0.856300  1
  H  H221  1  0.945300  0.574600  0.880500  1
  H  H222  1  0.554700  0.074600  0.119500  1
  H  H223  1  0.054700  0.425400  0.119500  1
  H  H224  1  0.445300  0.925400  0.880500  1
  H  H225  1  0.274600  0.371300  0.012600  1
  H  H226  1  0.225400  0.871300  0.987400  1
  H  H227  1  0.725400  0.628700  0.987400  1
  H  H228  1  0.774600  0.128700  0.012600  1
  H  H229  1  0.173900  0.562400  0.923900  1
  H  H230  1  0.326100  0.062400  0.076100  1
  H  H231  1  0.826100  0.437600  0.076100  1
  H  H232  1  0.673900  0.937600  0.923900  1
  H  H233  1  0.201100  0.497200  0.876600  1
  H  H234  1  0.298900  0.997200  0.123400  1
  H  H235  1  0.798900  0.502800  0.123400  1
  H  H236  1  0.701100  0.002800  0.876600  1
  H  H237  1  0.269700  0.542300  0.921900  1
  H  H238  1  0.230300  0.042300  0.078100  1
  H  H239  1  0.730300  0.457700  0.078100  1
  H  H240  1  0.769700  0.957700  0.921900  1
  H  H241  1  0.106200  0.490600  0.994700  1
  H  H242  1  0.393800  0.990600  0.005300  1
  H  H243  1  0.893800  0.509400  0.005300  1
  H  H244  1  0.606200  0.009400  0.994700  1
  H  H245  1  0.136200  0.402400  0.018000  1
  H  H246  1  0.363800  0.902400  0.982000  1
  H  H247  1  0.863800  0.597600  0.982000  1
  H  H248  1  0.636200  0.097600  0.018000  1
  H  H249  1  0.092900  0.414100  0.950400  1
  H  H250  1  0.407100  0.914100  0.049600  1
  H  H251  1  0.907100  0.585900  0.049600  1
  H  H252  1  0.592900  0.085900  0.950400  1
  H  H253  1  0.222500  0.254200  0.390700  1
  H  H254  1  0.277500  0.754200  0.609300  1
  H  H255  1  0.777500  0.745800  0.609300  1
  H  H256  1  0.722500  0.245800  0.390700  1
  H  H257  1  0.170300  0.326100  0.356400  1
  H  H258  1  0.329700  0.826100  0.643600  1
  H  H259  1  0.829700  0.673900  0.643600  1
  H  H260  1  0.670300  0.173900  0.356400  1
  H  H261  1  0.131800  0.236800  0.357400  1
  H  H262  1  0.368200  0.736800  0.642600  1
  H  H263  1  0.868200  0.763200  0.642600  1
  H  H264  1  0.631800  0.263200  0.357400  1
  H  H265  1  0.174100  0.410100  0.045200  1
  H  H266  1  0.325900  0.910100  0.954800  1
  H  H267  1  0.825900  0.589900  0.954800  1
  H  H268  1  0.674100  0.089900  0.045200  1
  H  H269  1  0.253400  0.364100  0.025600  1
  H  H270  1  0.246600  0.864100  0.974400  1
  H  H271  1  0.746600  0.635900  0.974400  1
  H  H272  1  0.753400  0.135900  0.025600  1
  H  H273  1  0.163300  0.342900  0.992900  1
  H  H274  1  0.336700  0.842900  0.007100  1
  H  H275  1  0.836700  0.657100  0.007100  1
  H  H276  1  0.663300  0.157100  0.992900  1
  H  H277  1  0.111700  0.521100  0.985900  1
  H  H278  1  0.388300  0.021100  0.014100  1
  H  H279  1  0.888300  0.478900  0.014100  1
  H  H280  1  0.611700  0.978900  0.985900  1
  H  H281  1  0.084500  0.454200  0.935400  1
  H  H282  1  0.415500  0.954200  0.064600  1
  H  H283  1  0.915500  0.545800  0.064600  1
  H  H284  1  0.584500  0.045800  0.935400  1
  H  H285  1  0.130100  0.535300  0.917600  1
  H  H286  1  0.369900  0.035300  0.082400  1
  H  H287  1  0.869900  0.464700  0.082400  1
  H  H288  1  0.630100  0.964700  0.917600  1
  H  H289  1  0.281500  0.518900  0.914400  1
  H  H290  1  0.218500  0.018900  0.085600  1
  H  H291  1  0.718500  0.481100  0.085600  1
  H  H292  1  0.781500  0.981100  0.914400  1
  C  C293  1  0.369100  0.526800  0.701900  1
  C  C294  1  0.130900  0.026800  0.298100  1
  C  C295  1  0.630900  0.473200  0.298100  1
  C  C296  1  0.869100  0.973200  0.701900  1
  C  C297  1  0.436200  0.581000  0.707500  1
  C  C298  1  0.063800  0.081000  0.292500  1
  C  C299  1  0.563800  0.419000  0.292500  1
  C  C300  1  0.936200  0.919000  0.707500  1
  C  C301  1  0.482300  0.595300  0.764400  1
  C  C302  1  0.017700  0.095300  0.235600  1
  C  C303  1  0.517700  0.404700  0.235600  1
  C  C304  1  0.982300  0.904700  0.764400  1
  C  C305  1  0.463600  0.554700  0.816600  1
  C  C306  1  0.036400  0.054700  0.183400  1
  C  C307  1  0.536400  0.445300  0.183400  1
  C  C308  1  0.963600  0.945300  0.816600  1
  C  C309  1  0.395600  0.501400  0.811200  1
  C  C310  1  0.104400  0.001400  0.188800  1
  C  C311  1  0.604400  0.498600  0.188800  1
  C  C312  1  0.895600  0.998600  0.811200  1
  C  C313  1  0.348900  0.488000  0.754800  1
  C  C314  1  0.151100  0.988000  0.245200  1
  C  C315  1  0.651100  0.512000  0.245200  1
  C  C316  1  0.848900  0.012000  0.754800  1
  C  C317  1  0.514400  0.570900  0.878400  1
  C  C318  1  0.985600  0.070900  0.121600  1
  C  C319  1  0.485600  0.429100  0.121600  1
  C  C320  1  0.014400  0.929100  0.878400  1
  C  C321  1  0.538700  0.438900  0.939800  1
  C  C322  1  0.961300  0.938900  0.060200  1
  C  C323  1  0.461300  0.561100  0.060200  1
  C  C324  1  0.038700  0.061100  0.939800  1
  C  C325  1  0.605000  0.386700  0.954400  1
  C  C326  1  0.895000  0.886700  0.045600  1
  C  C327  1  0.395000  0.613300  0.045600  1
  C  C328  1  0.105000  0.113300  0.954400  1
  C  C329  1  0.671800  0.418200  0.924600  1
  C  C330  1  0.828200  0.918200  0.075400  1
  C  C331  1  0.328200  0.581800  0.075400  1
  C  C332  1  0.171800  0.081800  0.924600  1
  C  C333  1  0.758200  0.386500  0.928210  1
  C  C334  1  0.741800  0.886500  0.071790  1
  C  C335  1  0.241800  0.613500  0.071790  1
  C  C336  1  0.258200  0.113500  0.928210  1
  C  C337  1  0.781800  0.324100  0.971600  1
  C  C338  1  0.718200  0.824100  0.028400  1
  C  C339  1  0.218200  0.675900  0.028400  1
  C  C340  1  0.281800  0.175900  0.971600  1
  C  C341  1  0.861900  0.291500  0.979500  1
  C  C342  1  0.638100  0.791500  0.020500  1
  C  C343  1  0.138100  0.708500  0.020500  1
  C  C344  1  0.361900  0.208500  0.979500  1
  C  C345  1  0.921900  0.320700  0.943900  1
  C  C346  1  0.578100  0.820700  0.056100  1
  C  C347  1  0.078100  0.679300  0.056100  1
  C  C348  1  0.421900  0.179300  0.943900  1
  C  C349  1  0.900600  0.380900  0.900900  1
  C  C350  1  0.599400  0.880900  0.099100  1
  C  C351  1  0.099400  0.619100  0.099100  1
  C  C352  1  0.400600  0.119100  0.900900  1
  C  C353  1  0.819200  0.415600  0.891090  1
  C  C354  1  0.680800  0.915600  0.108910  1
  C  C355  1  0.180800  0.584400  0.108910  1
  C  C356  1  0.319200  0.084400  0.891090  1
  C  C357  1  0.315800  0.513900  0.640830  1
  C  C358  1  0.184200  0.013900  0.359170  1
  C  C359  1  0.684200  0.486100  0.359170  1
  C  C360  1  0.815800  0.986100  0.640830  1
  C  C361  1  0.411000  0.469300  0.562700  1
  C  C362  1  0.089000  0.969300  0.437300  1
  C  C363  1  0.589000  0.530700  0.437300  1
  C  C364  1  0.911000  0.030700  0.562700  1
  C  C365  1  0.424400  0.397900  0.531400  1
  C  C366  1  0.075600  0.897900  0.468600  1
  C  C367  1  0.575600  0.602100  0.468600  1
  C  C368  1  0.924400  0.102100  0.531400  1
  C  C369  1  0.367600  0.339600  0.550860  1
  C  C370  1  0.132400  0.839600  0.449140  1
  C  C371  1  0.632400  0.660400  0.449140  1
  C  C372  1  0.867600  0.160400  0.550860  1
  C  C373  1  0.355800  0.253300  0.530220  1
  C  C374  1  0.144200  0.753300  0.469780  1
  C  C375  1  0.644200  0.746700  0.469780  1
  C  C376  1  0.855800  0.246700  0.530220  1
  C  C377  1  0.404200  0.224600  0.484800  1
  C  C378  1  0.095800  0.724600  0.515200  1
  C  C379  1  0.595800  0.775400  0.515200  1
  C  C380  1  0.904200  0.275400  0.484800  1
  C  C381  1  0.399300  0.145100  0.462300  1
  C  C382  1  0.100700  0.645100  0.537700  1
  C  C383  1  0.600700  0.854900  0.537700  1
  C  C384  1  0.899300  0.354900  0.462300  1
  C  C385  1  0.343200  0.090300  0.484100  1
  C  C386  1  0.156800  0.590300  0.515900  1
  C  C387  1  0.656800  0.909700  0.515900  1
  C  C388  1  0.843200  0.409700  0.484100  1
  C  C389  1  0.295000  0.115800  0.528600  1
  C  C390  1  0.205000  0.615800  0.471400  1
  C  C391  1  0.705000  0.884200  0.471400  1
  C  C392  1  0.795000  0.384200  0.528600  1
  C  C393  1  0.298700  0.196600  0.553300  1
  C  C394  1  0.201300  0.696600  0.446700  1
  C  C395  1  0.701300  0.803400  0.446700  1
  C  C396  1  0.798700  0.303400  0.553300  1
  C  C397  1  0.436700  0.272500  0.739000  1
  C  C398  1  0.063300  0.772500  0.261000  1
  C  C399  1  0.563300  0.727500  0.261000  1
  C  C400  1  0.936700  0.227500  0.739000  1
  C  C401  1  0.482500  0.310600  0.788900  1
  C  C402  1  0.017500  0.810600  0.211100  1
  C  C403  1  0.517500  0.689400  0.211100  1
  C  C404  1  0.982500  0.189400  0.788900  1
  C  C405  1  0.557100  0.350900  0.781900  1
  C  C406  1  0.942900  0.850900  0.218100  1
  C  C407  1  0.442900  0.649100  0.218100  1
  C  C408  1  0.057100  0.149100  0.781900  1
  C  C409  1  0.588200  0.354200  0.725400  1
  C  C410  1  0.911800  0.854200  0.274600  1
  C  C411  1  0.411800  0.645800  0.274600  1
  C  C412  1  0.088200  0.145800  0.725400  1
  C  C413  1  0.543400  0.314800  0.675800  1
  C  C414  1  0.956600  0.814800  0.324200  1
  C  C415  1  0.456600  0.685200  0.324200  1
  C  C416  1  0.043400  0.185200  0.675800  1
  C  C417  1  0.468400  0.274100  0.682900  1
  C  C418  1  0.031600  0.774100  0.317100  1
  C  C419  1  0.531600  0.725900  0.317100  1
  C  C420  1  0.968400  0.225900  0.682900  1
  C  C421  1  0.671600  0.395800  0.718600  1
  C  C422  1  0.828400  0.895800  0.281400  1
  C  C423  1  0.328400  0.604200  0.281400  1
  C  C424  1  0.171600  0.104200  0.718600  1
  C  C425  1  0.646200  0.510600  0.641200  1
  C  C426  1  0.853800  0.010600  0.358800  1
  C  C427  1  0.353800  0.489400  0.358800  1
  C  C428  1  0.146200  0.989400  0.641200  1
  C  C429  1  0.645600  0.595200  0.643200  1
  C  C430  1  0.854400  0.095200  0.356800  1
  C  C431  1  0.354400  0.404800  0.356800  1
  C  C432  1  0.145600  0.904800  0.643200  1
  C  C433  1  0.665000  0.617000  0.705700  1
  C  C434  1  0.835000  0.117000  0.294300  1
  C  C435  1  0.335000  0.383000  0.294300  1
  C  C436  1  0.165000  0.883000  0.705700  1
  C  C437  1  0.669600  0.700500  0.732700  1
  C  C438  1  0.830400  0.200500  0.267300  1
  C  C439  1  0.330400  0.299500  0.267300  1
  C  C440  1  0.169600  0.799500  0.732700  1
  C  C441  1  0.653600  0.768300  0.692500  1
  C  C442  1  0.846400  0.268300  0.307500  1
  C  C443  1  0.346400  0.231700  0.307500  1
  C  C444  1  0.153600  0.731700  0.692500  1
  C  C445  1  0.653700  0.848600  0.713400  1
  C  C446  1  0.846300  0.348600  0.286600  1
  C  C447  1  0.346300  0.151400  0.286600  1
  C  C448  1  0.153700  0.651400  0.713400  1
  C  C449  1  0.669400  0.863800  0.774900  1
  C  C450  1  0.830600  0.363800  0.225100  1
  C  C451  1  0.330600  0.136200  0.225100  1
  C  C452  1  0.169400  0.636200  0.774900  1
  C  C453  1  0.684000  0.800300  0.815400  1
  C  C454  1  0.816000  0.300300  0.184600  1
  C  C455  1  0.316000  0.199700  0.184600  1
  C  C456  1  0.184000  0.699700  0.815400  1
  C  C457  1  0.685500  0.716100  0.796100  1
  C  C458  1  0.814500  0.216100  0.203900  1
  C  C459  1  0.314500  0.283900  0.203900  1
  C  C460  1  0.185500  0.783900  0.796100  1
  C  C461  1  0.357100  0.225200  0.747000  1
  C  C462  1  0.142900  0.725200  0.253000  1
  C  C463  1  0.642900  0.774800  0.253000  1
  C  C464  1  0.857100  0.274800  0.747000  1
  C  C465  1  0.266400  0.288400  0.822300  1
  C  C466  1  0.233600  0.788400  0.177700  1
  C  C467  1  0.733600  0.711600  0.177700  1
  C  C468  1  0.766400  0.211600  0.822300  1
  C  C469  1  0.194500  0.334000  0.817200  1
  C  C470  1  0.305500  0.834000  0.182800  1
  C  C471  1  0.805500  0.666000  0.182800  1
  C  C472  1  0.694500  0.166000  0.817200  1
  C  C473  1  0.172500  0.348700  0.754420  1
  C  C474  1  0.327500  0.848700  0.245580  1
  C  C475  1  0.827500  0.651300  0.245580  1
  C  C476  1  0.672500  0.151300  0.754420  1
  C  C477  1  0.098400  0.393300  0.724590  1
  C  C478  1  0.401600  0.893300  0.275410  1
  C  C479  1  0.901600  0.606700  0.275410  1
  C  C480  1  0.598400  0.106700  0.724590  1
  C  C481  1  0.038600  0.421900  0.761900  1
  C  C482  1  0.461400  0.921900  0.238100  1
  C  C483  1  0.961400  0.578100  0.238100  1
  C  C484  1  0.538600  0.078100  0.761900  1
  C  C485  1  0.964800  0.458700  0.738900  1
  C  C486  1  0.535200  0.958700  0.261100  1
  C  C487  1  0.035200  0.541300  0.261100  1
  C  C488  1  0.464800  0.041300  0.738900  1
  C  C489  1  0.948000  0.468600  0.676000  1
  C  C490  1  0.552000  0.968600  0.324000  1
  C  C491  1  0.052000  0.531400  0.324000  1
  C  C492  1  0.448000  0.031400  0.676000  1
  C  C493  1  0.004600  0.443200  0.637400  1
  C  C494  1  0.495400  0.943200  0.362600  1
  C  C495  1  0.995400  0.556800  0.362600  1
  C  C496  1  0.504600  0.056800  0.637400  1
  C  C497  1  0.081800  0.405600  0.660200  1
  C  C498  1  0.418200  0.905600  0.339800  1
  C  C499  1  0.918200  0.594400  0.339800  1
  C  C500  1  0.581800  0.094400  0.660200  1
  C  C501  1  0.108500  0.233100  0.467400  1
  C  C502  1  0.391500  0.733100  0.532600  1
  C  C503  1  0.891500  0.766900  0.532600  1
  C  C504  1  0.608500  0.266900  0.467400  1
  C  C505  1  0.113500  0.298200  0.367500  1
  C  C506  1  0.386500  0.798200  0.632500  1
  C  C507  1  0.886500  0.701800  0.632500  1
  C  C508  1  0.613500  0.201800  0.367500  1
  C  C509  1  0.152500  0.376100  0.464500  1
  C  C510  1  0.347500  0.876100  0.535500  1
  C  C511  1  0.847500  0.623900  0.535500  1
  C  C512  1  0.652500  0.123900  0.464500  1
  C  C513  1  0.894700  0.746900  0.882800  1
  C  C514  1  0.605300  0.246900  0.117200  1
  C  C515  1  0.105300  0.253100  0.117200  1
  C  C516  1  0.394700  0.753100  0.882800  1
  C  C517  1  0.909400  0.685900  0.784100  1
  C  C518  1  0.590600  0.185900  0.215900  1
  C  C519  1  0.090600  0.314100  0.215900  1
  C  C520  1  0.409400  0.814100  0.784100  1
  C  C521  1  0.979000  0.623800  0.879400  1
  C  C522  1  0.521000  0.123800  0.120600  1
  C  C523  1  0.021000  0.376200  0.120600  1
  C  C524  1  0.479000  0.876200  0.879400  1
  C  C525  1  0.276400  0.412000  0.982600  1
  C  C526  1  0.223600  0.912000  0.017400  1
  C  C527  1  0.723600  0.588000  0.017400  1
  C  C528  1  0.776400  0.088000  0.982600  1
  C  C529  1  0.213800  0.519600  0.917400  1
  C  C530  1  0.286200  0.019600  0.082600  1
  C  C531  1  0.786200  0.480400  0.082600  1
  C  C532  1  0.713800  0.980400  0.917400  1
  C  C533  1  0.129800  0.439000  0.983100  1
  C  C534  1  0.370200  0.939000  0.016900  1
  C  C535  1  0.870200  0.561000  0.016900  1
  C  C536  1  0.629800  0.061000  0.983100  1
  C  C537  1  0.166900  0.276800  0.380600  1
  C  C538  1  0.333100  0.776800  0.619400  1
  C  C539  1  0.833100  0.723200  0.619400  1
  C  C540  1  0.666900  0.223200  0.380600  1
  C  C541  1  0.198900  0.386400  0.011100  1
  C  C542  1  0.301100  0.886400  0.988900  1
  C  C543  1  0.801100  0.613600  0.988900  1
  C  C544  1  0.698900  0.113600  0.011100  1
  C  C545  1  0.126600  0.494500  0.949300  1
  C  C546  1  0.373400  0.994500  0.050700  1
  C  C547  1  0.873400  0.505500  0.050700  1
  C  C548  1  0.626600  0.005500  0.949300  1
  C  C549  1  0.278300  0.474500  0.941300  1
  C  C550  1  0.221700  0.974500  0.058700  1
  C  C551  1  0.721700  0.525500  0.058700  1
  C  C552  1  0.778300  0.025500  0.941300  1
  N  N553  1  0.645300  0.486900  0.892230  1
  N  N554  1  0.854700  0.986900  0.107770  1
  N  N555  1  0.354700  0.513100  0.107770  1
  N  N556  1  0.145300  0.013100  0.892230  1
  N  N557  1  0.562800  0.498100  0.902860  1
  N  N558  1  0.937200  0.998100  0.097140  1
  N  N559  1  0.437200  0.501900  0.097140  1
  N  N560  1  0.062800  0.001900  0.902860  1
  N  N561  1  0.351100  0.455200  0.599390  1
  N  N562  1  0.148900  0.955200  0.400610  1
  N  N563  1  0.648900  0.544800  0.400610  1
  N  N564  1  0.851100  0.044800  0.599390  1
  N  N565  1  0.323200  0.374900  0.593320  1
  N  N566  1  0.176800  0.874900  0.406680  1
  N  N567  1  0.676800  0.625100  0.406680  1
  N  N568  1  0.823200  0.125100  0.593320  1
  N  N569  1  0.676900  0.546600  0.739430  1
  N  N570  1  0.823100  0.046600  0.260570  1
  N  N571  1  0.323100  0.453400  0.260570  1
  N  N572  1  0.176900  0.953400  0.739430  1
  N  N573  1  0.664900  0.482500  0.698530  1
  N  N574  1  0.835100  0.982500  0.301470  1
  N  N575  1  0.335100  0.517500  0.301470  1
  N  N576  1  0.164900  0.017500  0.698530  1
  N  N577  1  0.287800  0.275200  0.765700  1
  N  N578  1  0.212200  0.775200  0.234300  1
  N  N579  1  0.712200  0.724800  0.234300  1
  N  N580  1  0.787800  0.224800  0.765700  1
  N  N581  1  0.230500  0.312200  0.722520  1
  N  N582  1  0.269500  0.812200  0.277480  1
  N  N583  1  0.769500  0.687800  0.277480  1
  N  N584  1  0.730500  0.187800  0.722520  1
  N  N585  1  0.131200  0.296700  0.436570  1
  N  N586  1  0.368800  0.796700  0.563430  1
  N  N587  1  0.868800  0.703300  0.563430  1
  N  N588  1  0.631200  0.203300  0.436570  1
  N  N589  1  0.928300  0.689700  0.850400  1
  N  N590  1  0.571700  0.189700  0.149600  1
  N  N591  1  0.071700  0.310300  0.149600  1
  N  N592  1  0.428300  0.810300  0.850400  1
  N  N593  1  0.208500  0.453300  0.963020  1
  N  N594  1  0.291500  0.953300  0.036980  1
  N  N595  1  0.791500  0.546700  0.036980  1
  N  N596  1  0.708500  0.046700  0.963020  1
  O  O597  1  0.803990  0.473200  0.847450  1
  O  O598  1  0.696010  0.973200  0.152550  1
  O  O599  1  0.196010  0.526800  0.152550  1
  O  O600  1  0.303990  0.026800  0.847450  1
  O  O601  1  0.250100  0.214750  0.597030  1
  O  O602  1  0.249900  0.714750  0.402970  1
  O  O603  1  0.749900  0.785250  0.402970  1
  O  O604  1  0.750100  0.285250  0.597030  1
  O  O605  1  0.700900  0.659100  0.839200  1
  O  O606  1  0.799100  0.159100  0.160800  1
  O  O607  1  0.299100  0.340900  0.160800  1
  O  O608  1  0.200900  0.840900  0.839200  1
  O  O609  1  0.133500  0.383100  0.619910  1
  O  O610  1  0.366500  0.883100  0.380090  1
  O  O611  1  0.866500  0.616900  0.380090  1
  O  O612  1  0.633500  0.116900  0.619910  1
  O  O613  1  0.085600  0.165600  0.446000  1
  O  O614  1  0.414400  0.665600  0.554000  1
  O  O615  1  0.914400  0.834400  0.554000  1
  O  O616  1  0.585600  0.334400  0.446000  1
  O  O617  1  0.905200  0.752200  0.938700  1
  O  O618  1  0.594800  0.252200  0.061300  1
  O  O619  1  0.094800  0.247800  0.061300  1
  O  O620  1  0.405200  0.747800  0.938700  1
  O  O621  1  0.344700  0.427200  0.960700  1
  O  O622  1  0.155300  0.927200  0.039300  1
  O  O623  1  0.655300  0.572800  0.039300  1
  O  O624  1  0.844700  0.072800  0.960700  1
