# generated using pymatgen
data_Cu4H96C118N17Cl8O9
_symmetry_space_group_name_H-M   'P 1'
_cell_length_a   14.72000000
_cell_length_b   14.76800000
_cell_length_c   21.86000000
_cell_angle_alpha   97.51300000
_cell_angle_beta   104.20800000
_cell_angle_gamma   90.13000000
_symmetry_Int_Tables_number   1
_chemical_formula_structural   Cu4H96C118N17Cl8O9
_chemical_formula_sum   'Cu8 H192 C236 N34 Cl16 O18'
_cell_volume   4564.20855166
_cell_formula_units_Z   2
loop_
 _symmetry_equiv_pos_site_id
 _symmetry_equiv_pos_as_xyz
  1  'x, y, z'
loop_
 _atom_site_type_symbol
 _atom_site_label
 _atom_site_symmetry_multiplicity
 _atom_site_fract_x
 _atom_site_fract_y
 _atom_site_fract_z
 _atom_site_occupancy
  Cu  Cu1  1  0.856960  0.218940  0.218950  1
  Cu  Cu2  1  0.143040  0.781060  0.781050  1
  Cu  Cu3  1  0.205630  0.557610  0.218210  1
  Cu  Cu4  1  0.794370  0.442390  0.781790  1
  Cu  Cu5  1  0.384550  0.081710  0.291440  1
  Cu  Cu6  1  0.615450  0.918290  0.708560  1
  Cu  Cu7  1  0.718800  0.731980  0.271100  1
  Cu  Cu8  1  0.281200  0.268020  0.728900  1
  H  H9  1  0.122100  0.431800  0.078800  1
  H  H10  1  0.877900  0.568200  0.921200  1
  H  H11  1  0.104700  0.274400  0.078200  1
  H  H12  1  0.895300  0.725600  0.921800  1
  H  H13  1  0.836100  0.306900  0.089700  1
  H  H14  1  0.163900  0.693100  0.910300  1
  H  H15  1  0.855000  0.462400  0.089300  1
  H  H16  1  0.145000  0.537600  0.910700  1
  H  H17  1  0.895800  0.158200  0.090200  1
  H  H18  1  0.104200  0.841800  0.909800  1
  H  H19  1  0.986700  0.138000  0.063500  1
  H  H20  1  0.013300  0.862000  0.936500  1
  H  H21  1  0.145100  0.119200  0.150000  1
  H  H22  1  0.854900  0.880800  0.850000  1
  H  H23  1  0.188200  0.116600  0.265300  1
  H  H24  1  0.811800  0.883400  0.734700  1
  H  H25  1  0.174500  0.132000  0.364800  1
  H  H26  1  0.825500  0.868000  0.635200  1
  H  H27  1  0.168800  0.138500  0.470100  1
  H  H28  1  0.831200  0.861500  0.529900  1
  H  H29  1  0.032200  0.176500  0.499000  1
  H  H30  1  0.967800  0.823500  0.501000  1
  H  H31  1  0.902400  0.214000  0.423300  1
  H  H32  1  0.097600  0.786000  0.576700  1
  H  H33  1  0.192800  0.403000  0.401400  1
  H  H34  1  0.807200  0.597000  0.598600  1
  H  H35  1  0.037700  0.415200  0.405800  1
  H  H36  1  0.962300  0.584800  0.594200  1
  H  H37  1  0.957900  0.397400  0.215400  1
  H  H38  1  0.042100  0.602600  0.784600  1
  H  H39  1  0.112400  0.379100  0.211000  1
  H  H40  1  0.887600  0.620900  0.789000  1
  H  H41  1  0.867000  0.372700  0.342400  1
  H  H42  1  0.133000  0.627300  0.657600  1
  H  H43  1  0.877600  0.480300  0.341700  1
  H  H44  1  0.122400  0.519700  0.658300  1
  H  H45  1  0.766300  0.541900  0.247900  1
  H  H46  1  0.233700  0.458100  0.752100  1
  H  H47  1  0.647600  0.471700  0.150700  1
  H  H48  1  0.352400  0.528300  0.849300  1
  H  H49  1  0.539700  0.347100  0.101500  1
  H  H50  1  0.460300  0.652900  0.898500  1
  H  H51  1  0.446800  0.235600  0.028800  1
  H  H52  1  0.553200  0.764400  0.971200  1
  H  H53  1  0.507700  0.091500  0.007100  1
  H  H54  1  0.492300  0.908500  0.992900  1
  H  H55  1  0.659900  0.061400  0.058300  1
  H  H56  1  0.340100  0.938600  0.941700  1
  H  H57  1  0.305900  0.438300  0.332200  1
  H  H58  1  0.694100  0.561700  0.667800  1
  H  H59  1  0.296400  0.329500  0.325300  1
  H  H60  1  0.703600  0.670500  0.674700  1
  H  H61  1  0.337200  0.247200  0.227300  1
  H  H62  1  0.662800  0.752800  0.772700  1
  H  H63  1  0.364300  0.291700  0.127300  1
  H  H64  1  0.635700  0.708300  0.872700  1
  H  H65  1  0.398400  0.393000  0.064800  1
  H  H66  1  0.601600  0.607000  0.935200  1
  H  H67  1  0.411600  0.478100  0.986400  1
  H  H68  1  0.588400  0.521900  0.013600  1
  H  H69  1  0.337900  0.619500  0.980800  1
  H  H70  1  0.662100  0.380500  0.019200  1
  H  H71  1  0.250100  0.668400  0.051700  1
  H  H72  1  0.749900  0.331600  0.948300  1
  H  H73  1  0.056900  0.594300  0.102200  1
  H  H74  1  0.943100  0.405700  0.897800  1
  H  H75  1  0.945300  0.597200  0.080000  1
  H  H76  1  0.054700  0.402800  0.920000  1
  H  H77  1  0.864600  0.632600  0.174500  1
  H  H78  1  0.135400  0.367400  0.825500  1
  H  H79  1  0.925300  0.672900  0.293600  1
  H  H80  1  0.074700  0.327100  0.706400  1
  H  H81  1  0.035700  0.736200  0.380100  1
  H  H82  1  0.964300  0.263800  0.619900  1
  H  H83  1  0.141100  0.774700  0.479900  1
  H  H84  1  0.858900  0.225300  0.520100  1
  H  H85  1  0.289200  0.724300  0.499600  1
  H  H86  1  0.710800  0.275700  0.500400  1
  H  H87  1  0.340300  0.636100  0.421400  1
  H  H88  1  0.659700  0.363900  0.578600  1
  H  H89  1  0.488700  0.814000  0.088700  1
  H  H90  1  0.511300  0.186000  0.911300  1
  H  H91  1  0.502000  0.972100  0.100400  1
  H  H92  1  0.498000  0.027900  0.899600  1
  H  H93  1  0.555200  0.981600  0.290800  1
  H  H94  1  0.444800  0.018400  0.709200  1
  H  H95  1  0.534700  0.823100  0.278800  1
  H  H96  1  0.465300  0.176900  0.721200  1
  H  H97  1  0.588100  0.110600  0.179000  1
  H  H98  1  0.411900  0.889400  0.821000  1
  H  H99  1  0.478900  0.117300  0.175900  1
  H  H100  1  0.521100  0.882700  0.824100  1
  H  H101  1  0.694600  0.198600  0.277800  1
  H  H102  1  0.305400  0.801400  0.722200  1
  H  H103  1  0.670900  0.285700  0.378800  1
  H  H104  1  0.329100  0.714300  0.621200  1
  H  H105  1  0.580800  0.358800  0.441500  1
  H  H106  1  0.419200  0.641200  0.558500  1
  H  H107  1  0.508300  0.419900  0.518700  1
  H  H108  1  0.491700  0.580100  0.481300  1
  H  H109  1  0.366200  0.355500  0.523500  1
  H  H110  1  0.633800  0.644500  0.476500  1
  H  H111  1  0.302000  0.228600  0.455300  1
  H  H112  1  0.698000  0.771400  0.544700  1
  H  H113  1  0.438400  0.679200  0.147000  1
  H  H114  1  0.561600  0.320800  0.853000  1
  H  H115  1  0.546900  0.673900  0.147100  1
  H  H116  1  0.453100  0.326100  0.852900  1
  H  H117  1  0.393100  0.607800  0.234100  1
  H  H118  1  0.606900  0.392200  0.765900  1
  H  H119  1  0.479200  0.544700  0.330700  1
  H  H120  1  0.520800  0.455300  0.669300  1
  H  H121  1  0.618800  0.469800  0.381900  1
  H  H122  1  0.381200  0.530200  0.618100  1
  H  H123  1  0.737600  0.431900  0.463100  1
  H  H124  1  0.262400  0.568100  0.536900  1
  H  H125  1  0.876500  0.520200  0.494800  1
  H  H126  1  0.123500  0.479800  0.505200  1
  H  H127  1  0.898200  0.644100  0.442800  1
  H  H128  1  0.101800  0.355900  0.557200  1
  H  H129  1  0.657800  0.786700  0.401300  1
  H  H130  1  0.342200  0.213300  0.598700  1
  H  H131  1  0.502800  0.801700  0.408700  1
  H  H132  1  0.497200  0.198300  0.591300  1
  H  H133  1  0.535400  0.076900  0.426600  1
  H  H134  1  0.464600  0.923100  0.573400  1
  H  H135  1  0.690300  0.061300  0.419400  1
  H  H136  1  0.309700  0.938700  0.580600  1
  H  H137  1  0.380700  0.917100  0.442400  1
  H  H138  1  0.619300  0.082900  0.557600  1
  H  H139  1  0.385300  0.015800  0.420300  1
  H  H140  1  0.614700  0.984200  0.579700  1
  H  H141  1  0.302400  0.784700  0.355400  1
  H  H142  1  0.697600  0.215300  0.644600  1
  H  H143  1  0.243000  0.763200  0.237200  1
  H  H144  1  0.757000  0.236800  0.762800  1
  H  H145  1  0.230100  0.790300  0.137800  1
  H  H146  1  0.769900  0.209700  0.862200  1
  H  H147  1  0.199400  0.812200  0.032900  1
  H  H148  1  0.800600  0.187800  0.967100  1
  H  H149  1  0.219600  0.957200  0.006300  1
  H  H150  1  0.780400  0.042800  0.993700  1
  H  H151  1  0.287300  0.075700  0.085200  1
  H  H152  1  0.712700  0.924300  0.914800  1
  H  H153  1  0.829300  0.952200  0.424900  1
  H  H154  1  0.170700  0.047800  0.575100  1
  H  H155  1  0.804000  0.846300  0.399700  1
  H  H156  1  0.196000  0.153700  0.600300  1
  H  H157  1  0.814600  0.062400  0.336300  1
  H  H158  1  0.185400  0.937600  0.663700  1
  H  H159  1  0.799700  0.036700  0.220200  1
  H  H160  1  0.200300  0.963300  0.779800  1
  H  H161  1  0.789300  0.962600  0.124300  1
  H  H162  1  0.210700  0.037400  0.875700  1
  H  H163  1  0.777400  0.894700  0.022300  1
  H  H164  1  0.222600  0.105300  0.977700  1
  H  H165  1  0.739000  0.739300  0.994900  1
  H  H166  1  0.261000  0.260700  0.005100  1
  H  H167  1  0.707800  0.655900  0.070200  1
  H  H168  1  0.292200  0.344100  0.929800  1
  H  H169  1  0.017700  0.043300  0.829800  1
  H  H170  1  0.982300  0.956700  0.170200  1
  H  H171  1  0.910300  0.054700  0.835000  1
  H  H172  1  0.089700  0.945300  0.165000  1
  H  H173  1  0.858200  0.154800  0.614300  1
  H  H174  1  0.141800  0.845200  0.385700  1
  H  H175  1  0.834900  0.049600  0.619000  1
  H  H176  1  0.165100  0.950400  0.381000  1
  H  H177  1  0.972000  0.590300  0.055300  1
  H  H178  1  0.028000  0.409700  0.944700  1
  H  H179  1  0.081200  0.569100  0.080500  1
  H  H180  1  0.918800  0.430900  0.919500  1
  H  H181  1  0.882200  0.661900  0.132700  1
  H  H182  1  0.117800  0.338100  0.867300  1
  H  H183  1  0.905500  0.694500  0.249100  1
  H  H184  1  0.094500  0.305500  0.750900  1
  H  H185  1  0.974100  0.676700  0.353300  1
  H  H186  1  0.025900  0.323300  0.646700  1
  H  H187  1  0.043900  0.695200  0.459800  1
  H  H188  1  0.956100  0.304800  0.540200  1
  H  H189  1  0.205300  0.682500  0.495700  1
  H  H190  1  0.794700  0.317500  0.504300  1
  H  H191  1  0.291000  0.630800  0.421200  1
  H  H192  1  0.709000  0.369200  0.578800  1
  H  H193  1  0.936900  0.064600  0.890600  1
  H  H194  1  0.063100  0.935400  0.109400  1
  H  H195  1  0.048200  0.062600  0.903000  1
  H  H196  1  0.951800  0.937400  0.097000  1
  H  H197  1  0.857400  0.130300  0.660300  1
  H  H198  1  0.142600  0.869700  0.339700  1
  H  H199  1  0.860100  0.020700  0.645100  1
  H  H200  1  0.139900  0.979300  0.354900  1
  C  C201  1  0.991800  0.463800  0.089100  1
  C  C202  1  0.008200  0.536200  0.910900  1
  C  C203  1  0.064700  0.406700  0.082800  1
  C  C204  1  0.935300  0.593300  0.917200  1
  C  C205  1  0.054300  0.312900  0.082500  1
  C  C206  1  0.945700  0.687100  0.917500  1
  C  C207  1  0.970500  0.275000  0.088300  1
  C  C208  1  0.029500  0.725000  0.911700  1
  C  C209  1  0.895300  0.331900  0.089100  1
  C  C210  1  0.104700  0.668100  0.910900  1
  C  C211  1  0.907100  0.424600  0.089200  1
  C  C212  1  0.092900  0.575400  0.910800  1
  C  C213  1  0.962700  0.175800  0.096600  1
  C  C214  1  0.037300  0.824200  0.903400  1
  C  C215  1  0.104900  0.132700  0.177700  1
  C  C216  1  0.895100  0.867300  0.822300  1
  C  C217  1  0.128900  0.131300  0.240400  1
  C  C218  1  0.871100  0.868700  0.759600  1
  C  C219  1  0.049400  0.155600  0.262400  1
  C  C220  1  0.950600  0.844400  0.737600  1
  C  C221  1  0.039500  0.164000  0.328000  1
  C  C222  1  0.960500  0.836000  0.672000  1
  C  C223  1  0.117500  0.147100  0.376100  1
  C  C224  1  0.882500  0.852900  0.623900  1
  C  C225  1  0.114800  0.151600  0.438900  1
  C  C226  1  0.885200  0.848400  0.561100  1
  C  C227  1  0.035100  0.174600  0.455900  1
  C  C228  1  0.964900  0.825400  0.544100  1
  C  C229  1  0.957300  0.195500  0.410300  1
  C  C230  1  0.042700  0.804500  0.589700  1
  C  C231  1  0.956600  0.190200  0.345500  1
  C  C232  1  0.043400  0.809800  0.654500  1
  C  C233  1  0.168100  0.390100  0.305700  1
  C  C234  1  0.831900  0.609900  0.694300  1
  C  C235  1  0.145000  0.401000  0.363100  1
  C  C236  1  0.855000  0.599000  0.636900  1
  C  C237  1  0.052600  0.409000  0.365600  1
  C  C238  1  0.947400  0.591000  0.634400  1
  C  C239  1  0.981100  0.408300  0.310800  1
  C  C240  1  0.018900  0.591700  0.689200  1
  C  C241  1  0.005300  0.397800  0.253800  1
  C  C242  1  0.994700  0.602200  0.746200  1
  C  C243  1  0.097500  0.387800  0.251300  1
  C  C244  1  0.902500  0.612200  0.748700  1
  C  C245  1  0.881600  0.419600  0.317400  1
  C  C246  1  0.118400  0.580400  0.682600  1
  C  C247  1  0.758900  0.478800  0.231400  1
  C  C248  1  0.241100  0.521200  0.768600  1
  C  C249  1  0.693800  0.441000  0.178200  1
  C  C250  1  0.306200  0.559000  0.821800  1
  C  C251  1  0.709900  0.345600  0.172600  1
  C  C252  1  0.290100  0.654400  0.827400  1
  C  C253  1  0.656800  0.272200  0.125700  1
  C  C254  1  0.343200  0.727800  0.874300  1
  C  C255  1  0.564400  0.288700  0.093100  1
  C  C256  1  0.435600  0.711300  0.906900  1
  C  C257  1  0.509100  0.223000  0.049800  1
  C  C258  1  0.490900  0.777000  0.950200  1
  C  C259  1  0.545300  0.137600  0.037000  1
  C  C260  1  0.454700  0.862400  0.963000  1
  C  C261  1  0.636000  0.119900  0.067700  1
  C  C262  1  0.364000  0.880100  0.932300  1
  C  C263  1  0.693500  0.185600  0.112200  1
  C  C264  1  0.306500  0.814400  0.887800  1
  C  C265  1  0.271400  0.383700  0.305400  1
  C  C266  1  0.728600  0.616300  0.694600  1
  C  C267  1  0.325300  0.304900  0.212700  1
  C  C268  1  0.674700  0.695100  0.787300  1
  C  C269  1  0.340200  0.328800  0.158100  1
  C  C270  1  0.659800  0.671200  0.841900  1
  C  C271  1  0.312800  0.419200  0.156200  1
  C  C272  1  0.687200  0.580800  0.843800  1
  C  C273  1  0.317200  0.478100  0.107700  1
  C  C274  1  0.682800  0.521900  0.892300  1
  C  C275  1  0.368200  0.449700  0.062700  1
  C  C276  1  0.631800  0.550300  0.937300  1
  C  C277  1  0.376400  0.499700  0.016100  1
  C  C278  1  0.623600  0.500300  0.983900  1
  C  C279  1  0.332200  0.583200  0.012600  1
  C  C280  1  0.667800  0.416800  0.987400  1
  C  C281  1  0.281000  0.612200  0.055100  1
  C  C282  1  0.719000  0.387800  0.944900  1
  C  C283  1  0.272000  0.561900  0.104000  1
  C  C284  1  0.728000  0.438100  0.896000  1
  C  C285  1  0.997700  0.570100  0.108700  1
  C  C286  1  0.002300  0.429900  0.891300  1
  C  C287  1  0.927700  0.627900  0.197600  1
  C  C288  1  0.072300  0.372100  0.802400  1
  C  C289  1  0.958900  0.651900  0.262800  1
  C  C290  1  0.041100  0.348100  0.737200  1
  C  C291  1  0.060100  0.635100  0.270600  1
  C  C292  1  0.939900  0.364900  0.729400  1
  C  C293  1  0.123400  0.655700  0.338300  1
  C  C294  1  0.876600  0.344300  0.661700  1
  C  C295  1  0.097200  0.713300  0.387400  1
  C  C296  1  0.902800  0.286700  0.612600  1
  C  C297  1  0.160900  0.737100  0.447200  1
  C  C298  1  0.839100  0.262900  0.552800  1
  C  C299  1  0.247700  0.708100  0.458800  1
  C  C300  1  0.752300  0.291900  0.541200  1
  C  C301  1  0.277500  0.655400  0.412200  1
  C  C302  1  0.722500  0.344600  0.587800  1
  C  C303  1  0.218400  0.627700  0.350300  1
  C  C304  1  0.781600  0.372300  0.649700  1
  C  C305  1  0.511900  0.802700  0.182900  1
  C  C306  1  0.488100  0.197300  0.817100  1
  C  C307  1  0.501700  0.848000  0.130100  1
  C  C308  1  0.498300  0.152000  0.869900  1
  C  C309  1  0.510200  0.941800  0.137000  1
  C  C310  1  0.489800  0.058200  0.863000  1
  C  C311  1  0.530700  0.992800  0.197100  1
  C  C312  1  0.469300  0.007200  0.802900  1
  C  C313  1  0.540700  0.947700  0.249400  1
  C  C314  1  0.459300  0.052300  0.750600  1
  C  C315  1  0.529700  0.853100  0.242300  1
  C  C316  1  0.470300  0.146900  0.757700  1
  C  C317  1  0.539000  0.096000  0.200400  1
  C  C318  1  0.461000  0.904000  0.799600  1
  C  C319  1  0.639500  0.196900  0.292900  1
  C  C320  1  0.360500  0.803100  0.707100  1
  C  C321  1  0.627100  0.244900  0.348500  1
  C  C322  1  0.372900  0.755100  0.651500  1
  C  C323  1  0.535700  0.220600  0.351000  1
  C  C324  1  0.464300  0.779400  0.649000  1
  C  C325  1  0.486100  0.254300  0.399900  1
  C  C326  1  0.513900  0.745700  0.600100  1
  C  C327  1  0.523500  0.331300  0.443700  1
  C  C328  1  0.476500  0.668700  0.556300  1
  C  C329  1  0.480700  0.368200  0.489300  1
  C  C330  1  0.519300  0.631800  0.510700  1
  C  C331  1  0.397300  0.329500  0.492500  1
  C  C332  1  0.602700  0.670500  0.507500  1
  C  C333  1  0.359200  0.254800  0.451800  1
  C  C334  1  0.640800  0.745200  0.548200  1
  C  C335  1  0.401900  0.214600  0.404300  1
  C  C336  1  0.598100  0.785400  0.595700  1
  C  C337  1  0.502700  0.697900  0.172400  1
  C  C338  1  0.497300  0.302100  0.827600  1
  C  C339  1  0.458800  0.613400  0.252100  1
  C  C340  1  0.541200  0.386600  0.747900  1
  C  C341  1  0.505600  0.578700  0.304900  1
  C  C342  1  0.494400  0.421300  0.695100  1
  C  C343  1  0.601700  0.603100  0.314200  1
  C  C344  1  0.398300  0.396900  0.685800  1
  C  C345  1  0.683200  0.580700  0.362600  1
  C  C346  1  0.316800  0.419300  0.637400  1
  C  C347  1  0.675400  0.506000  0.394400  1
  C  C348  1  0.324600  0.494000  0.605600  1
  C  C349  1  0.745300  0.483100  0.442400  1
  C  C350  1  0.254700  0.516900  0.557600  1
  C  C351  1  0.827700  0.535100  0.460700  1
  C  C352  1  0.172300  0.464900  0.539300  1
  C  C353  1  0.840700  0.609400  0.430000  1
  C  C354  1  0.159300  0.390600  0.570000  1
  C  C355  1  0.767800  0.632700  0.379700  1
  C  C356  1  0.232200  0.367300  0.620300  1
  C  C357  1  0.688100  0.920800  0.405900  1
  C  C358  1  0.311900  0.079200  0.594100  1
  C  C359  1  0.632700  0.845800  0.405000  1
  C  C360  1  0.367300  0.154200  0.595000  1
  C  C361  1  0.540000  0.854700  0.409400  1
  C  C362  1  0.460000  0.145300  0.590600  1
  C  C363  1  0.501400  0.941100  0.414800  1
  C  C364  1  0.498600  0.058900  0.585200  1
  C  C365  1  0.559200  0.017700  0.420000  1
  C  C366  1  0.440800  0.982300  0.580000  1
  C  C367  1  0.651600  0.008400  0.415700  1
  C  C368  1  0.348400  0.991600  0.584300  1
  C  C369  1  0.398400  0.950600  0.410500  1
  C  C370  1  0.601600  0.049400  0.589500  1
  C  C371  1  0.305400  0.829000  0.328100  1
  C  C372  1  0.694600  0.171000  0.671900  1
  C  C373  1  0.273400  0.816600  0.263400  1
  C  C374  1  0.726600  0.183400  0.736600  1
  C  C375  1  0.294700  0.898600  0.243500  1
  C  C376  1  0.705300  0.101400  0.756500  1
  C  C377  1  0.277800  0.919500  0.178100  1
  C  C378  1  0.722200  0.080500  0.821900  1
  C  C379  1  0.241600  0.849300  0.127700  1
  C  C380  1  0.758400  0.150700  0.872300  1
  C  C381  1  0.222400  0.861900  0.065400  1
  C  C382  1  0.777600  0.138100  0.934600  1
  C  C383  1  0.236600  0.947100  0.049600  1
  C  C384  1  0.763400  0.052900  0.950400  1
  C  C385  1  0.275200  0.017800  0.096600  1
  C  C386  1  0.724800  0.982200  0.903400  1
  C  C387  1  0.297400  0.005100  0.161800  1
  C  C388  1  0.702600  0.994900  0.838200  1
  C  C389  1  0.783900  0.909100  0.393600  1
  C  C390  1  0.216100  0.090900  0.606400  1
  C  C391  1  0.800500  0.005500  0.309600  1
  C  C392  1  0.199500  0.994500  0.690400  1
  C  C393  1  0.792400  0.992000  0.246300  1
  C  C394  1  0.207600  0.008000  0.753700  1
  C  C395  1  0.771100  0.898400  0.226700  1
  C  C396  1  0.228900  0.101600  0.773300  1
  C  C397  1  0.758000  0.851500  0.162100  1
  C  C398  1  0.242000  0.148500  0.837900  1
  C  C399  1  0.773200  0.899200  0.114000  1
  C  C400  1  0.226800  0.100800  0.886000  1
  C  C401  1  0.766200  0.859400  0.053200  1
  C  C402  1  0.233800  0.140600  0.946800  1
  C  C403  1  0.742900  0.768200  0.037000  1
  C  C404  1  0.257100  0.231800  0.963000  1
  C  C405  1  0.725300  0.718900  0.082200  1
  C  C406  1  0.274700  0.281100  0.917800  1
  C  C407  1  0.731800  0.757400  0.145300  1
  C  C408  1  0.268200  0.242600  0.854700  1
  C  C409  1  0.976400  0.075100  0.854600  1
  C  C410  1  0.023600  0.924900  0.145400  1
  C  C411  1  0.885700  0.094700  0.621100  1
  C  C412  1  0.114300  0.905300  0.378900  1
  C  C413  1  0.018200  0.563500  0.088600  1
  C  C414  1  0.981800  0.436500  0.911400  1
  C  C415  1  0.936100  0.650100  0.164400  1
  C  C416  1  0.063900  0.349900  0.835600  1
  C  C417  1  0.950000  0.667100  0.228200  1
  C  C418  1  0.050000  0.332900  0.771800  1
  C  C419  1  0.038000  0.639600  0.259700  1
  C  C420  1  0.962000  0.360400  0.740300  1
  C  C421  1  0.086900  0.642600  0.317600  1
  C  C422  1  0.913100  0.357400  0.682400  1
  C  C423  1  0.039600  0.667700  0.366100  1
  C  C424  1  0.960400  0.332300  0.633900  1
  C  C425  1  0.080900  0.679800  0.430200  1
  C  C426  1  0.919100  0.320200  0.569800  1
  C  C427  1  0.175200  0.669900  0.451700  1
  C  C428  1  0.824800  0.330100  0.548300  1
  C  C429  1  0.226000  0.640800  0.406800  1
  C  C430  1  0.774000  0.359200  0.593200  1
  C  C431  1  0.184000  0.625900  0.341500  1
  C  C432  1  0.816000  0.374100  0.658500  1
  C  C433  1  0.993000  0.097200  0.885100  1
  C  C434  1  0.007000  0.902800  0.114900  1
  C  C435  1  0.875400  0.079000  0.632000  1
  C  C436  1  0.124600  0.921000  0.368000  1
  N  N437  1  0.979000  0.171300  0.211800  1
  N  N438  1  0.021000  0.828700  0.788200  1
  N  N439  1  0.014800  0.156200  0.159500  1
  N  N440  1  0.985200  0.843800  0.840500  1
  N  N441  1  0.781800  0.329100  0.220300  1
  N  N442  1  0.218200  0.670900  0.779700  1
  N  N443  1  0.810500  0.411800  0.256500  1
  N  N444  1  0.189500  0.588200  0.743500  1
  N  N445  1  0.290800  0.377000  0.242610  1
  N  N446  1  0.709200  0.623000  0.757390  1
  N  N447  1  0.281900  0.448900  0.208540  1
  N  N448  1  0.718100  0.551100  0.791460  1
  N  N449  1  0.080100  0.604900  0.214200  1
  N  N450  1  0.919900  0.395100  0.785800  1
  N  N451  1  0.994400  0.598300  0.171300  1
  N  N452  1  0.005600  0.401700  0.828700  1
  N  N453  1  0.495500  0.160500  0.299340  1
  N  N454  1  0.504500  0.839500  0.700660  1
  N  N455  1  0.561200  0.147500  0.263800  1
  N  N456  1  0.438800  0.852500  0.736200  1
  N  N457  1  0.520700  0.657000  0.229600  1
  N  N458  1  0.479300  0.343000  0.770400  1
  N  N459  1  0.609400  0.652600  0.268000  1
  N  N460  1  0.390600  0.347400  0.732000  1
  N  N461  1  0.337300  0.958400  0.294820  1
  N  N462  1  0.662700  0.041600  0.705180  1
  N  N463  1  0.341800  0.914500  0.346600  1
  N  N464  1  0.658200  0.085500  0.653400  1
  N  N465  1  0.785300  0.925300  0.328600  1
  N  N466  1  0.214700  0.074700  0.671400  1
  N  N467  1  0.766200  0.858600  0.277700  1
  N  N468  1  0.233800  0.141400  0.722300  1
  N  N469  1  0.017700  0.611700  0.155700  1
  N  N470  1  0.982300  0.388300  0.844300  1
  Cl  Cl471  1  0.992500  0.197000  0.864000  1
  Cl  Cl472  1  0.007500  0.803000  0.136000  1
  Cl  Cl473  1  0.013000  0.061110  0.940620  1
  Cl  Cl474  1  0.987000  0.938890  0.059380  1
  Cl  Cl475  1  0.973600  0.102600  0.697500  1
  Cl  Cl476  1  0.026400  0.897400  0.302500  1
  Cl  Cl477  1  0.954600  0.056200  0.560200  1
  Cl  Cl478  1  0.045400  0.943800  0.439800  1
  Cl  Cl479  1  0.982000  0.094000  0.798100  1
  Cl  Cl480  1  0.018000  0.906000  0.201900  1
  Cl  Cl481  1  0.003100  0.209200  0.931900  1
  Cl  Cl482  1  0.996900  0.790800  0.068100  1
  Cl  Cl483  1  0.815800  0.084900  0.546880  1
  Cl  Cl484  1  0.184200  0.915100  0.453120  1
  Cl  Cl485  1  0.000700  0.089100  0.633400  1
  Cl  Cl486  1  0.999300  0.910900  0.366600  1
  O  O487  1  0.878700  0.211100  0.305770  1
  O  O488  1  0.121300  0.788900  0.694230  1
  O  O489  1  0.780500  0.163300  0.140570  1
  O  O490  1  0.219500  0.836700  0.859430  1
  O  O491  1  0.220900  0.597000  0.143310  1
  O  O492  1  0.779100  0.403000  0.856690  1
  O  O493  1  0.242900  0.597800  0.304700  1
  O  O494  1  0.757100  0.402200  0.695300  1
  O  O495  1  0.359600  0.140300  0.366400  1
  O  O496  1  0.640400  0.859700  0.633600  1
  O  O497  1  0.784700  0.703300  0.351480  1
  O  O498  1  0.215300  0.296700  0.648520  1
  O  O499  1  0.335200  0.076400  0.203630  1
  O  O500  1  0.664800  0.923600  0.796370  1
  O  O501  1  0.713000  0.704200  0.184210  1
  O  O502  1  0.287000  0.295800  0.815790  1
  O  O503  1  0.253300  0.577000  0.307200  1
  O  O504  1  0.746700  0.423000  0.692800  1
