# generated using pymatgen
data_Cu2H58C68N8Cl8O5
_symmetry_space_group_name_H-M   'P 1'
_cell_length_a   15.76600000
_cell_length_b   16.63900000
_cell_length_c   21.99500000
_cell_angle_alpha   90.00000000
_cell_angle_beta   103.27900000
_cell_angle_gamma   90.00000000
_symmetry_Int_Tables_number   1
_chemical_formula_structural   Cu2H58C68N8Cl8O5
_chemical_formula_sum   'Cu8 H232 C272 N32 Cl32 O20'
_cell_volume   5615.68810933
_cell_formula_units_Z   4
loop_
 _symmetry_equiv_pos_site_id
 _symmetry_equiv_pos_as_xyz
  1  'x, y, z'
loop_
 _atom_site_type_symbol
 _atom_site_label
 _atom_site_symmetry_multiplicity
 _atom_site_fract_x
 _atom_site_fract_y
 _atom_site_fract_z
 _atom_site_occupancy
  Cu  Cu1  1  0.136250  0.346660  0.111260  1
  Cu  Cu2  1  0.863750  0.846660  0.388740  1
  Cu  Cu3  1  0.863750  0.653340  0.888740  1
  Cu  Cu4  1  0.136250  0.153340  0.611260  1
  Cu  Cu5  1  0.531600  0.313080  0.770440  1
  Cu  Cu6  1  0.468400  0.813080  0.729560  1
  Cu  Cu7  1  0.468400  0.686920  0.229560  1
  Cu  Cu8  1  0.531600  0.186920  0.270440  1
  H  H9  1  0.950900  0.267100  0.147000  1
  H  H10  1  0.049100  0.767100  0.353000  1
  H  H11  1  0.049100  0.732900  0.853000  1
  H  H12  1  0.950900  0.232900  0.647000  1
  H  H13  1  0.072600  0.069500  0.101300  1
  H  H14  1  0.927400  0.569500  0.398700  1
  H  H15  1  0.927400  0.930500  0.898700  1
  H  H16  1  0.072600  0.430500  0.601300  1
  H  H17  1  0.951400  0.042300  0.020900  1
  H  H18  1  0.048600  0.542300  0.479100  1
  H  H19  1  0.048600  0.957700  0.979100  1
  H  H20  1  0.951400  0.457700  0.520900  1
  H  H21  1  0.831000  0.126200  0.002200  1
  H  H22  1  0.169000  0.626200  0.497800  1
  H  H23  1  0.169000  0.873800  0.997800  1
  H  H24  1  0.831000  0.373800  0.502200  1
  H  H25  1  0.087900  0.237800  0.208200  1
  H  H26  1  0.912100  0.737800  0.291800  1
  H  H27  1  0.912100  0.762200  0.791800  1
  H  H28  1  0.087900  0.262200  0.708200  1
  H  H29  1  0.099300  0.143100  0.220000  1
  H  H30  1  0.900700  0.643100  0.280000  1
  H  H31  1  0.900700  0.856900  0.780000  1
  H  H32  1  0.099300  0.356900  0.720000  1
  H  H33  1  0.249100  0.087700  0.209400  1
  H  H34  1  0.750900  0.587700  0.290600  1
  H  H35  1  0.750900  0.912300  0.790600  1
  H  H36  1  0.249100  0.412300  0.709400  1
  H  H37  1  0.366000  0.134000  0.157200  1
  H  H38  1  0.634000  0.634000  0.342800  1
  H  H39  1  0.634000  0.866000  0.842800  1
  H  H40  1  0.366000  0.366000  0.657200  1
  H  H41  1  0.437900  0.218800  0.107400  1
  H  H42  1  0.562100  0.718800  0.392600  1
  H  H43  1  0.562100  0.781200  0.892600  1
  H  H44  1  0.437900  0.281200  0.607400  1
  H  H45  1  0.514400  0.297200  0.050000  1
  H  H46  1  0.485600  0.797200  0.450000  1
  H  H47  1  0.485600  0.702800  0.950000  1
  H  H48  1  0.514400  0.202800  0.550000  1
  H  H49  1  0.447000  0.408100  0.994600  1
  H  H50  1  0.553000  0.908100  0.505400  1
  H  H51  1  0.553000  0.591900  0.005400  1
  H  H52  1  0.447000  0.091900  0.494600  1
  H  H53  1  0.306400  0.443300  0.997900  1
  H  H54  1  0.693600  0.943300  0.502100  1
  H  H55  1  0.693600  0.556700  0.002100  1
  H  H56  1  0.306400  0.056700  0.497900  1
  H  H57  1  0.760300  0.239900  0.965700  1
  H  H58  1  0.239700  0.739900  0.534300  1
  H  H59  1  0.239700  0.760100  0.034300  1
  H  H60  1  0.760300  0.260100  0.465700  1
  H  H61  1  0.617800  0.411500  0.025700  1
  H  H62  1  0.382200  0.911500  0.474300  1
  H  H63  1  0.382200  0.588500  0.974300  1
  H  H64  1  0.617800  0.088500  0.525700  1
  H  H65  1  0.702700  0.396900  0.126800  1
  H  H66  1  0.297300  0.896900  0.373200  1
  H  H67  1  0.297300  0.603100  0.873200  1
  H  H68  1  0.702700  0.103100  0.626800  1
  H  H69  1  0.817000  0.306200  0.147500  1
  H  H70  1  0.183000  0.806200  0.352500  1
  H  H71  1  0.183000  0.693800  0.852500  1
  H  H72  1  0.817000  0.193800  0.647500  1
  H  H73  1  0.609300  0.275800  0.903300  1
  H  H74  1  0.390700  0.775800  0.596700  1
  H  H75  1  0.390700  0.724200  0.096700  1
  H  H76  1  0.609300  0.224200  0.403300  1
  H  H77  1  0.563800  0.353900  0.924100  1
  H  H78  1  0.436200  0.853900  0.575900  1
  H  H79  1  0.436200  0.646100  0.075900  1
  H  H80  1  0.563800  0.146100  0.424100  1
  H  H81  1  0.749300  0.453900  0.933800  1
  H  H82  1  0.250700  0.953900  0.566200  1
  H  H83  1  0.250700  0.546100  0.066200  1
  H  H84  1  0.749300  0.046100  0.433800  1
  H  H85  1  0.790000  0.495000  0.834700  1
  H  H86  1  0.210000  0.995000  0.665300  1
  H  H87  1  0.210000  0.505000  0.165300  1
  H  H88  1  0.790000  0.005000  0.334700  1
  H  H89  1  0.797500  0.483500  0.733700  1
  H  H90  1  0.202500  0.983500  0.766300  1
  H  H91  1  0.202500  0.516500  0.266300  1
  H  H92  1  0.797500  0.016500  0.233700  1
  H  H93  1  0.804800  0.484600  0.629000  1
  H  H94  1  0.195200  0.984600  0.871000  1
  H  H95  1  0.195200  0.515400  0.371000  1
  H  H96  1  0.804800  0.015400  0.129000  1
  H  H97  1  0.700500  0.412300  0.555300  1
  H  H98  1  0.299500  0.912300  0.944700  1
  H  H99  1  0.299500  0.587700  0.444700  1
  H  H100  1  0.700500  0.087700  0.055300  1
  H  H101  1  0.591600  0.343000  0.586100  1
  H  H102  1  0.408400  0.843000  0.913900  1
  H  H103  1  0.408400  0.657000  0.413900  1
  H  H104  1  0.591600  0.157000  0.086100  1
  H  H105  1  0.900500  0.231700  0.923300  1
  H  H106  1  0.099500  0.731700  0.576700  1
  H  H107  1  0.099500  0.768300  0.076700  1
  H  H108  1  0.900500  0.268300  0.423300  1
  H  H109  1  0.042400  0.397100  0.856100  1
  H  H110  1  0.957600  0.897100  0.643900  1
  H  H111  1  0.957600  0.602900  0.143900  1
  H  H112  1  0.042400  0.102900  0.356100  1
  H  H113  1  0.954700  0.378300  0.755300  1
  H  H114  1  0.045300  0.878300  0.744700  1
  H  H115  1  0.045300  0.621700  0.244700  1
  H  H116  1  0.954700  0.121700  0.255300  1
  H  H117  1  0.843000  0.284500  0.738300  1
  H  H118  1  0.157000  0.784500  0.761700  1
  H  H119  1  0.157000  0.715500  0.261700  1
  H  H120  1  0.843000  0.215500  0.238300  1
  H  H121  1  0.048200  0.276900  0.985500  1
  H  H122  1  0.951800  0.776900  0.514500  1
  H  H123  1  0.951800  0.723100  0.014500  1
  H  H124  1  0.048200  0.223100  0.485500  1
  H  H125  1  0.092400  0.353100  0.960800  1
  H  H126  1  0.907600  0.853100  0.539200  1
  H  H127  1  0.907600  0.646900  0.039200  1
  H  H128  1  0.092400  0.146900  0.460800  1
  H  H129  1  0.891000  0.438600  0.942100  1
  H  H130  1  0.109000  0.938600  0.557900  1
  H  H131  1  0.109000  0.561400  0.057900  1
  H  H132  1  0.891000  0.061400  0.442100  1
  H  H133  1  0.854300  0.494000  0.038700  1
  H  H134  1  0.145700  0.994000  0.461300  1
  H  H135  1  0.145700  0.506000  0.961300  1
  H  H136  1  0.854300  0.006000  0.538700  1
  H  H137  1  0.848000  0.485300  0.143700  1
  H  H138  1  0.152000  0.985300  0.356300  1
  H  H139  1  0.152000  0.514700  0.856300  1
  H  H140  1  0.848000  0.014700  0.643700  1
  H  H141  1  0.844300  0.491500  0.248100  1
  H  H142  1  0.155700  0.991500  0.251900  1
  H  H143  1  0.155700  0.508500  0.751900  1
  H  H144  1  0.844300  0.008500  0.748100  1
  H  H145  1  0.964400  0.448500  0.323700  1
  H  H146  1  0.035600  0.948500  0.176300  1
  H  H147  1  0.035600  0.551500  0.676300  1
  H  H148  1  0.964400  0.051500  0.823700  1
  H  H149  1  0.087000  0.398100  0.296000  1
  H  H150  1  0.913000  0.898100  0.204000  1
  H  H151  1  0.913000  0.601900  0.704000  1
  H  H152  1  0.087000  0.101900  0.796000  1
  H  H153  1  0.712500  0.236300  0.741000  1
  H  H154  1  0.287500  0.736300  0.759000  1
  H  H155  1  0.287500  0.763700  0.259000  1
  H  H156  1  0.712500  0.263700  0.241000  1
  H  H157  1  0.613200  0.029100  0.790000  1
  H  H158  1  0.386800  0.529100  0.710000  1
  H  H159  1  0.386800  0.970900  0.210000  1
  H  H160  1  0.613200  0.470900  0.290000  1
  H  H161  1  0.731200  0.018500  0.875500  1
  H  H162  1  0.268800  0.518500  0.624500  1
  H  H163  1  0.268800  0.981500  0.124500  1
  H  H164  1  0.731200  0.481500  0.375500  1
  H  H165  1  0.842800  0.113300  0.892400  1
  H  H166  1  0.157200  0.613300  0.607600  1
  H  H167  1  0.157200  0.886700  0.107600  1
  H  H168  1  0.842800  0.386700  0.392400  1
  H  H169  1  0.581400  0.191300  0.678400  1
  H  H170  1  0.418600  0.691300  0.821600  1
  H  H171  1  0.418600  0.808700  0.321600  1
  H  H172  1  0.581400  0.308700  0.178400  1
  H  H173  1  0.572700  0.095600  0.674500  1
  H  H174  1  0.427300  0.595600  0.825500  1
  H  H175  1  0.427300  0.904400  0.325500  1
  H  H176  1  0.572700  0.404400  0.174500  1
  H  H177  1  0.429400  0.039700  0.693300  1
  H  H178  1  0.570600  0.539700  0.806700  1
  H  H179  1  0.570600  0.960300  0.306700  1
  H  H180  1  0.429400  0.460300  0.193300  1
  H  H181  1  0.312100  0.090600  0.742900  1
  H  H182  1  0.687900  0.590600  0.757100  1
  H  H183  1  0.687900  0.909400  0.257100  1
  H  H184  1  0.312100  0.409400  0.242900  1
  H  H185  1  0.238400  0.174300  0.788600  1
  H  H186  1  0.761600  0.674300  0.711400  1
  H  H187  1  0.761600  0.825700  0.211400  1
  H  H188  1  0.238400  0.325700  0.288600  1
  H  H189  1  0.158600  0.254200  0.841800  1
  H  H190  1  0.841400  0.754200  0.658200  1
  H  H191  1  0.841400  0.745800  0.158200  1
  H  H192  1  0.158600  0.245800  0.341800  1
  H  H193  1  0.215300  0.376200  0.884000  1
  H  H194  1  0.784700  0.876200  0.616000  1
  H  H195  1  0.784700  0.623800  0.116000  1
  H  H196  1  0.215300  0.123800  0.384000  1
  H  H197  1  0.350900  0.419300  0.873000  1
  H  H198  1  0.649100  0.919300  0.627000  1
  H  H199  1  0.649100  0.580700  0.127000  1
  H  H200  1  0.350900  0.080700  0.373000  1
  H  H201  1  0.474200  0.445200  0.869900  1
  H  H202  1  0.525800  0.945200  0.630100  1
  H  H203  1  0.525800  0.554800  0.130100  1
  H  H204  1  0.474200  0.054800  0.369900  1
  H  H205  1  0.512700  0.519400  0.871500  1
  H  H206  1  0.487300  0.019400  0.628500  1
  H  H207  1  0.487300  0.480600  0.128500  1
  H  H208  1  0.512700  0.980600  0.371500  1
  H  H209  1  0.584600  0.537600  0.599900  1
  H  H210  1  0.415400  0.037600  0.900100  1
  H  H211  1  0.415400  0.462400  0.400100  1
  H  H212  1  0.584600  0.962400  0.099900  1
  H  H213  1  0.532300  0.571300  0.648800  1
  H  H214  1  0.467700  0.071300  0.851200  1
  H  H215  1  0.467700  0.428700  0.351200  1
  H  H216  1  0.532300  0.928700  0.148800  1
  H  H217  1  0.762900  0.831600  0.055600  1
  H  H218  1  0.237100  0.331600  0.444400  1
  H  H219  1  0.237100  0.168400  0.944400  1
  H  H220  1  0.762900  0.668400  0.555600  1
  H  H221  1  0.801700  0.806200  0.997200  1
  H  H222  1  0.198300  0.306200  0.502800  1
  H  H223  1  0.198300  0.193800  0.002800  1
  H  H224  1  0.801700  0.693800  0.497200  1
  H  H225  1  0.605600  0.578600  0.619000  1
  H  H226  1  0.394400  0.078600  0.881000  1
  H  H227  1  0.394400  0.421400  0.381000  1
  H  H228  1  0.605600  0.921400  0.119000  1
  H  H229  1  0.560600  0.536100  0.554200  1
  H  H230  1  0.439400  0.036100  0.945800  1
  H  H231  1  0.439400  0.463900  0.445800  1
  H  H232  1  0.560600  0.963900  0.054200  1
  H  H233  1  0.727400  0.873100  0.080200  1
  H  H234  1  0.272600  0.373100  0.419800  1
  H  H235  1  0.272600  0.126900  0.919800  1
  H  H236  1  0.727400  0.626900  0.580200  1
  H  H237  1  0.711100  0.808600  0.024700  1
  H  H238  1  0.288900  0.308600  0.475300  1
  H  H239  1  0.288900  0.191400  0.975300  1
  H  H240  1  0.711100  0.691400  0.524700  1
  C  C241  1  0.878400  0.207000  0.071740  1
  C  C242  1  0.121600  0.707000  0.428260  1
  C  C243  1  0.121600  0.793000  0.928260  1
  C  C244  1  0.878400  0.293000  0.571740  1
  C  C245  1  0.951000  0.221400  0.121150  1
  C  C246  1  0.049000  0.721400  0.378850  1
  C  C247  1  0.049000  0.778600  0.878850  1
  C  C248  1  0.951000  0.278600  0.621150  1
  C  C249  1  0.022500  0.170500  0.133160  1
  C  C250  1  0.977500  0.670500  0.366840  1
  C  C251  1  0.977500  0.829500  0.866840  1
  C  C252  1  0.022500  0.329500  0.633160  1
  C  C253  1  0.023200  0.103900  0.094600  1
  C  C254  1  0.976800  0.603900  0.405400  1
  C  C255  1  0.976800  0.896100  0.905400  1
  C  C256  1  0.023200  0.396100  0.594600  1
  C  C257  1  0.951400  0.088300  0.046500  1
  C  C258  1  0.048600  0.588300  0.453500  1
  C  C259  1  0.048600  0.911700  0.953500  1
  C  C260  1  0.951400  0.411700  0.546500  1
  C  C261  1  0.879800  0.138400  0.035200  1
  C  C262  1  0.120200  0.638400  0.464800  1
  C  C263  1  0.120200  0.861600  0.964800  1
  C  C264  1  0.879800  0.361600  0.535200  1
  C  C265  1  0.098000  0.186100  0.188690  1
  C  C266  1  0.902000  0.686100  0.311310  1
  C  C267  1  0.902000  0.813900  0.811310  1
  C  C268  1  0.098000  0.313900  0.688690  1
  C  C269  1  0.247700  0.135000  0.185020  1
  C  C270  1  0.752300  0.635000  0.314980  1
  C  C271  1  0.752300  0.865000  0.814980  1
  C  C272  1  0.247700  0.365000  0.685020  1
  C  C273  1  0.312300  0.160100  0.156470  1
  C  C274  1  0.687700  0.660100  0.343530  1
  C  C275  1  0.687700  0.839900  0.843530  1
  C  C276  1  0.312300  0.339900  0.656470  1
  C  C277  1  0.282300  0.231700  0.126420  1
  C  C278  1  0.717700  0.731700  0.373580  1
  C  C279  1  0.717700  0.768300  0.873580  1
  C  C280  1  0.282300  0.268300  0.626420  1
  C  C281  1  0.325200  0.284600  0.088910  1
  C  C282  1  0.674800  0.784600  0.411090  1
  C  C283  1  0.674800  0.715400  0.911090  1
  C  C284  1  0.325200  0.215400  0.588910  1
  C  C285  1  0.410700  0.264700  0.085600  1
  C  C286  1  0.589300  0.764700  0.414400  1
  C  C287  1  0.589300  0.735300  0.914400  1
  C  C288  1  0.410700  0.235300  0.585600  1
  C  C289  1  0.456300  0.310900  0.051200  1
  C  C290  1  0.543700  0.810900  0.448800  1
  C  C291  1  0.543700  0.689100  0.948800  1
  C  C292  1  0.456300  0.189100  0.551200  1
  C  C293  1  0.416400  0.376700  0.018600  1
  C  C294  1  0.583600  0.876700  0.481400  1
  C  C295  1  0.583600  0.623300  0.981400  1
  C  C296  1  0.416400  0.123300  0.518600  1
  C  C297  1  0.332400  0.397500  0.020570  1
  C  C298  1  0.667600  0.897500  0.479430  1
  C  C299  1  0.667600  0.602500  0.979430  1
  C  C300  1  0.332400  0.102500  0.520570  1
  C  C301  1  0.284100  0.352400  0.055430  1
  C  C302  1  0.715900  0.852400  0.444570  1
  C  C303  1  0.715900  0.647600  0.944570  1
  C  C304  1  0.284100  0.147600  0.555430  1
  C  C305  1  0.802700  0.263700  0.058770  1
  C  C306  1  0.197300  0.763700  0.441230  1
  C  C307  1  0.197300  0.736300  0.941230  1
  C  C308  1  0.802700  0.236300  0.558770  1
  C  C309  1  0.748700  0.271800  0.998660  1
  C  C310  1  0.251300  0.771800  0.501340  1
  C  C311  1  0.251300  0.728200  0.001340  1
  C  C312  1  0.748700  0.228200  0.498660  1
  C  C313  1  0.679300  0.324700  0.985890  1
  C  C314  1  0.320700  0.824700  0.514110  1
  C  C315  1  0.320700  0.675300  0.014110  1
  C  C316  1  0.679300  0.175300  0.485890  1
  C  C317  1  0.663600  0.373100  0.034100  1
  C  C318  1  0.336400  0.873100  0.465900  1
  C  C319  1  0.336400  0.626900  0.965900  1
  C  C320  1  0.663600  0.126900  0.534100  1
  C  C321  1  0.714700  0.365100  0.093900  1
  C  C322  1  0.285300  0.865100  0.406100  1
  C  C323  1  0.285300  0.634900  0.906100  1
  C  C324  1  0.714700  0.134900  0.593900  1
  C  C325  1  0.782800  0.311200  0.106050  1
  C  C326  1  0.217200  0.811200  0.393950  1
  C  C327  1  0.217200  0.688800  0.893950  1
  C  C328  1  0.782800  0.188800  0.606050  1
  C  C329  1  0.620400  0.330400  0.921150  1
  C  C330  1  0.379600  0.830400  0.578850  1
  C  C331  1  0.379600  0.669600  0.078850  1
  C  C332  1  0.620400  0.169600  0.421150  1
  C  C333  1  0.723600  0.434500  0.893100  1
  C  C334  1  0.276400  0.934500  0.606900  1
  C  C335  1  0.276400  0.565500  0.106900  1
  C  C336  1  0.723600  0.065500  0.393100  1
  C  C337  1  0.746300  0.457400  0.838910  1
  C  C338  1  0.253700  0.957400  0.661090  1
  C  C339  1  0.253700  0.542600  0.161090  1
  C  C340  1  0.746300  0.042600  0.338910  1
  C  C341  1  0.691300  0.413500  0.791140  1
  C  C342  1  0.308700  0.913500  0.708860  1
  C  C343  1  0.308700  0.586500  0.208860  1
  C  C344  1  0.691300  0.086500  0.291140  1
  C  C345  1  0.689200  0.413200  0.723690  1
  C  C346  1  0.310800  0.913200  0.776310  1
  C  C347  1  0.310800  0.586800  0.276310  1
  C  C348  1  0.689200  0.086800  0.223690  1
  C  C349  1  0.755000  0.454900  0.703900  1
  C  C350  1  0.245000  0.954900  0.796100  1
  C  C351  1  0.245000  0.545100  0.296100  1
  C  C352  1  0.755000  0.045100  0.203900  1
  C  C353  1  0.760000  0.455500  0.641700  1
  C  C354  1  0.240000  0.955500  0.858300  1
  C  C355  1  0.240000  0.544500  0.358300  1
  C  C356  1  0.760000  0.044500  0.141700  1
  C  C357  1  0.697700  0.412700  0.598000  1
  C  C358  1  0.302300  0.912700  0.902000  1
  C  C359  1  0.302300  0.587300  0.402000  1
  C  C360  1  0.697700  0.087300  0.098000  1
  C  C361  1  0.633300  0.371600  0.616400  1
  C  C362  1  0.366700  0.871600  0.883600  1
  C  C363  1  0.366700  0.628400  0.383600  1
  C  C364  1  0.633300  0.128400  0.116400  1
  C  C365  1  0.626700  0.370400  0.679980  1
  C  C366  1  0.373300  0.870400  0.820020  1
  C  C367  1  0.373300  0.629600  0.320020  1
  C  C368  1  0.626700  0.129600  0.179980  1
  C  C369  1  0.860000  0.246700  0.829120  1
  C  C370  1  0.140000  0.746700  0.670880  1
  C  C371  1  0.140000  0.753300  0.170880  1
  C  C372  1  0.860000  0.253300  0.329120  1
  C  C373  1  0.911800  0.260700  0.888790  1
  C  C374  1  0.088200  0.760700  0.611210  1
  C  C375  1  0.088200  0.739300  0.111210  1
  C  C376  1  0.911800  0.239300  0.388790  1
  C  C377  1  0.979900  0.316100  0.898890  1
  C  C378  1  0.020100  0.816100  0.601110  1
  C  C379  1  0.020100  0.683900  0.101110  1
  C  C380  1  0.979900  0.183900  0.398890  1
  C  C381  1  0.995900  0.359300  0.849400  1
  C  C382  1  0.004100  0.859300  0.650600  1
  C  C383  1  0.004100  0.640700  0.150600  1
  C  C384  1  0.995900  0.140700  0.349400  1
  C  C385  1  0.944000  0.347800  0.789200  1
  C  C386  1  0.056000  0.847800  0.710800  1
  C  C387  1  0.056000  0.652200  0.210800  1
  C  C388  1  0.944000  0.152200  0.289200  1
  C  C389  1  0.877600  0.292300  0.779310  1
  C  C390  1  0.122400  0.792300  0.720690  1
  C  C391  1  0.122400  0.707700  0.220690  1
  C  C392  1  0.877600  0.207700  0.279310  1
  C  C393  1  0.036100  0.329400  0.964100  1
  C  C394  1  0.963900  0.829400  0.535900  1
  C  C395  1  0.963900  0.670600  0.035900  1
  C  C396  1  0.036100  0.170600  0.464100  1
  C  C397  1  0.922100  0.428900  0.983900  1
  C  C398  1  0.077900  0.928900  0.516100  1
  C  C399  1  0.077900  0.571100  0.016100  1
  C  C400  1  0.922100  0.071100  0.483900  1
  C  C401  1  0.901600  0.459400  0.036700  1
  C  C402  1  0.098400  0.959400  0.463300  1
  C  C403  1  0.098400  0.540600  0.963300  1
  C  C404  1  0.901600  0.040600  0.536700  1
  C  C405  1  0.965100  0.428800  0.087200  1
  C  C406  1  0.034900  0.928800  0.412800  1
  C  C407  1  0.034900  0.571200  0.912800  1
  C  C408  1  0.965100  0.071200  0.587200  1
  C  C409  1  0.970300  0.435300  0.155000  1
  C  C410  1  0.029700  0.935300  0.345000  1
  C  C411  1  0.029700  0.564700  0.845000  1
  C  C412  1  0.970300  0.064700  0.655000  1
  C  C413  1  0.896600  0.466800  0.174400  1
  C  C414  1  0.103400  0.966800  0.325600  1
  C  C415  1  0.103400  0.533200  0.825600  1
  C  C416  1  0.896600  0.033200  0.674400  1
  C  C417  1  0.894300  0.471100  0.236100  1
  C  C418  1  0.105700  0.971100  0.263900  1
  C  C419  1  0.105700  0.528900  0.763900  1
  C  C420  1  0.894300  0.028900  0.736100  1
  C  C421  1  0.965700  0.445300  0.280800  1
  C  C422  1  0.034300  0.945300  0.219200  1
  C  C423  1  0.034300  0.554700  0.719200  1
  C  C424  1  0.965700  0.054700  0.780800  1
  C  C425  1  0.038600  0.415200  0.264400  1
  C  C426  1  0.961400  0.915200  0.235600  1
  C  C427  1  0.961400  0.584800  0.735600  1
  C  C428  1  0.038600  0.084800  0.764400  1
  C  C429  1  0.042200  0.409300  0.200600  1
  C  C430  1  0.957800  0.909300  0.299400  1
  C  C431  1  0.957800  0.590700  0.799400  1
  C  C432  1  0.042200  0.090700  0.700600  1
  C  C433  1  0.789500  0.185700  0.818380  1
  C  C434  1  0.210500  0.685700  0.681620  1
  C  C435  1  0.210500  0.814300  0.181620  1
  C  C436  1  0.789500  0.314300  0.318380  1
  C  C437  1  0.717000  0.191500  0.768380  1
  C  C438  1  0.283000  0.691500  0.731620  1
  C  C439  1  0.283000  0.808500  0.231620  1
  C  C440  1  0.717000  0.308500  0.268380  1
  C  C441  1  0.651600  0.134600  0.757300  1
  C  C442  1  0.348400  0.634600  0.742700  1
  C  C443  1  0.348400  0.865400  0.242700  1
  C  C444  1  0.651600  0.365400  0.257300  1
  C  C445  1  0.657400  0.069100  0.797300  1
  C  C446  1  0.342600  0.569100  0.702700  1
  C  C447  1  0.342600  0.930900  0.202700  1
  C  C448  1  0.657400  0.430900  0.297300  1
  C  C449  1  0.727900  0.062500  0.847600  1
  C  C450  1  0.272100  0.562500  0.652400  1
  C  C451  1  0.272100  0.937500  0.152400  1
  C  C452  1  0.727900  0.437500  0.347600  1
  C  C453  1  0.794100  0.119400  0.858100  1
  C  C454  1  0.205900  0.619400  0.641900  1
  C  C455  1  0.205900  0.880600  0.141900  1
  C  C456  1  0.794100  0.380600  0.358100  1
  C  C457  1  0.574100  0.142500  0.702400  1
  C  C458  1  0.425900  0.642500  0.797600  1
  C  C459  1  0.425900  0.857500  0.297600  1
  C  C460  1  0.574100  0.357500  0.202400  1
  C  C461  1  0.428800  0.090000  0.713700  1
  C  C462  1  0.571200  0.590000  0.786300  1
  C  C463  1  0.571200  0.910000  0.286300  1
  C  C464  1  0.428800  0.410000  0.213700  1
  C  C465  1  0.364600  0.117600  0.741000  1
  C  C466  1  0.635400  0.617600  0.759000  1
  C  C467  1  0.635400  0.882400  0.259000  1
  C  C468  1  0.364600  0.382400  0.241000  1
  C  C469  1  0.391600  0.193200  0.765540  1
  C  C470  1  0.608400  0.693200  0.734460  1
  C  C471  1  0.608400  0.806800  0.234460  1
  C  C472  1  0.391600  0.306800  0.265540  1
  C  C473  1  0.345200  0.247500  0.799370  1
  C  C474  1  0.654800  0.747500  0.700630  1
  C  C475  1  0.654800  0.752500  0.200630  1
  C  C476  1  0.345200  0.252500  0.299370  1
  C  C477  1  0.262100  0.223900  0.806000  1
  C  C478  1  0.737900  0.723900  0.694000  1
  C  C479  1  0.737900  0.776100  0.194000  1
  C  C480  1  0.262100  0.276100  0.306000  1
  C  C481  1  0.214400  0.271300  0.837400  1
  C  C482  1  0.785600  0.771300  0.662600  1
  C  C483  1  0.785600  0.728700  0.162600  1
  C  C484  1  0.214400  0.228700  0.337400  1
  C  C485  1  0.248000  0.343500  0.862300  1
  C  C486  1  0.752000  0.843500  0.637700  1
  C  C487  1  0.752000  0.656500  0.137700  1
  C  C488  1  0.248000  0.156500  0.362300  1
  C  C489  1  0.329200  0.368800  0.855900  1
  C  C490  1  0.670800  0.868800  0.644100  1
  C  C491  1  0.670800  0.631200  0.144100  1
  C  C492  1  0.329200  0.131200  0.355900  1
  C  C493  1  0.380300  0.322100  0.824900  1
  C  C494  1  0.619700  0.822100  0.675100  1
  C  C495  1  0.619700  0.677900  0.175100  1
  C  C496  1  0.380300  0.177900  0.324900  1
  C  C497  1  0.528800  0.562000  0.603900  1
  C  C498  1  0.471200  0.062000  0.896100  1
  C  C499  1  0.471200  0.438000  0.396100  1
  C  C500  1  0.528800  0.938000  0.103900  1
  C  C501  1  0.801200  0.849100  0.028200  1
  C  C502  1  0.198800  0.349100  0.471800  1
  C  C503  1  0.198800  0.150900  0.971800  1
  C  C504  1  0.801200  0.650900  0.528200  1
  C  C505  1  0.558000  0.583400  0.581000  1
  C  C506  1  0.442000  0.083400  0.919000  1
  C  C507  1  0.442000  0.416600  0.419000  1
  C  C508  1  0.558000  0.916600  0.081000  1
  C  C509  1  0.734100  0.863000  0.037200  1
  C  C510  1  0.265900  0.363000  0.462800  1
  C  C511  1  0.265900  0.137000  0.962800  1
  C  C512  1  0.734100  0.637000  0.537200  1
  N  N513  1  0.202400  0.249600  0.136460  1
  N  N514  1  0.797600  0.749600  0.363540  1
  N  N515  1  0.797600  0.750400  0.863540  1
  N  N516  1  0.202400  0.250400  0.636460  1
  N  N517  1  0.182100  0.189200  0.172460  1
  N  N518  1  0.817900  0.689200  0.327540  1
  N  N519  1  0.817900  0.810800  0.827540  1
  N  N520  1  0.182100  0.310800  0.672460  1
  N  N521  1  0.659200  0.380200  0.879160  1
  N  N522  1  0.340800  0.880200  0.620840  1
  N  N523  1  0.340800  0.619800  0.120840  1
  N  N524  1  0.659200  0.119800  0.379160  1
  N  N525  1  0.637300  0.367300  0.815890  1
  N  N526  1  0.362700  0.867300  0.684110  1
  N  N527  1  0.362700  0.632700  0.184110  1
  N  N528  1  0.637300  0.132700  0.315890  1
  N  N529  1  0.022000  0.382700  0.065200  1
  N  N530  1  0.978000  0.882700  0.434800  1
  N  N531  1  0.978000  0.617300  0.934800  1
  N  N532  1  0.022000  0.117300  0.565200  1
  N  N533  1  0.993900  0.382700  0.001470  1
  N  N534  1  0.006100  0.882700  0.498530  1
  N  N535  1  0.006100  0.617300  0.998530  1
  N  N536  1  0.993900  0.117300  0.501470  1
  N  N537  1  0.491000  0.147500  0.720910  1
  N  N538  1  0.509000  0.647500  0.779090  1
  N  N539  1  0.509000  0.852500  0.279090  1
  N  N540  1  0.491000  0.352500  0.220910  1
  N  N541  1  0.469600  0.211300  0.752580  1
  N  N542  1  0.530400  0.711300  0.747420  1
  N  N543  1  0.530400  0.788700  0.247420  1
  N  N544  1  0.469600  0.288700  0.252580  1
  Cl  Cl545  1  0.515600  0.654990  0.564610  1
  Cl  Cl546  1  0.484400  0.154990  0.935390  1
  Cl  Cl547  1  0.484400  0.345010  0.435390  1
  Cl  Cl548  1  0.515600  0.845010  0.064610  1
  Cl  Cl549  1  0.445290  0.495390  0.575450  1
  Cl  Cl550  1  0.554710  0.995390  0.924550  1
  Cl  Cl551  1  0.554710  0.504610  0.424550  1
  Cl  Cl552  1  0.445290  0.004610  0.075450  1
  Cl  Cl553  1  0.907120  0.863870  0.073190  1
  Cl  Cl554  1  0.092880  0.363870  0.426810  1
  Cl  Cl555  1  0.092880  0.136130  0.926810  1
  Cl  Cl556  1  0.907120  0.636130  0.573190  1
  Cl  Cl557  1  0.760100  0.937880  0.989510  1
  Cl  Cl558  1  0.239900  0.437880  0.510490  1
  Cl  Cl559  1  0.239900  0.062120  0.010490  1
  Cl  Cl560  1  0.760100  0.562120  0.489510  1
  Cl  Cl561  1  0.572100  0.670900  0.540910  1
  Cl  Cl562  1  0.427900  0.170900  0.959090  1
  Cl  Cl563  1  0.427900  0.329100  0.459090  1
  Cl  Cl564  1  0.572100  0.829100  0.040910  1
  Cl  Cl565  1  0.456500  0.585300  0.602220  1
  Cl  Cl566  1  0.543500  0.085300  0.897780  1
  Cl  Cl567  1  0.543500  0.414700  0.397780  1
  Cl  Cl568  1  0.456500  0.914700  0.102220  1
  Cl  Cl569  1  0.673600  0.934400  0.986440  1
  Cl  Cl570  1  0.326400  0.434400  0.513560  1
  Cl  Cl571  1  0.326400  0.065600  0.013560  1
  Cl  Cl572  1  0.673600  0.565600  0.486440  1
  Cl  Cl573  1  0.844400  0.866800  0.036200  1
  Cl  Cl574  1  0.155600  0.366800  0.463800  1
  Cl  Cl575  1  0.155600  0.133200  0.963800  1
  Cl  Cl576  1  0.844400  0.633200  0.536200  1
  O  O577  1  0.203450  0.376330  0.053960  1
  O  O578  1  0.796550  0.876330  0.446040  1
  O  O579  1  0.796550  0.623670  0.946040  1
  O  O580  1  0.203450  0.123670  0.553960  1
  O  O581  1  0.561500  0.328800  0.693270  1
  O  O582  1  0.438500  0.828800  0.806730  1
  O  O583  1  0.438500  0.671200  0.306730  1
  O  O584  1  0.561500  0.171200  0.193270  1
  O  O585  1  0.114570  0.378420  0.188360  1
  O  O586  1  0.885430  0.878420  0.311640  1
  O  O587  1  0.885430  0.621580  0.811640  1
  O  O588  1  0.114570  0.121580  0.688360  1
  O  O589  1  0.457380  0.351070  0.820550  1
  O  O590  1  0.542620  0.851070  0.679450  1
  O  O591  1  0.542620  0.648930  0.179450  1
  O  O592  1  0.457380  0.148930  0.320550  1
  O  O593  1  0.483800  0.488900  0.890300  1
  O  O594  1  0.516200  0.988900  0.609700  1
  O  O595  1  0.516200  0.511100  0.109700  1
  O  O596  1  0.483800  0.011100  0.390300  1
