# generated using pymatgen
data_ZnH26C33N4(ClO)2
_symmetry_space_group_name_H-M   'P 1'
_cell_length_a   13.02100000
_cell_length_b   19.70400000
_cell_length_c   21.65500000
_cell_angle_alpha   90.00000000
_cell_angle_beta   90.00000000
_cell_angle_gamma   90.00000000
_symmetry_Int_Tables_number   1
_chemical_formula_structural   ZnH26C33N4(ClO)2
_chemical_formula_sum   'Zn8 H208 C264 N32 Cl16 O16'
_cell_volume   5555.93205252
_cell_formula_units_Z   8
loop_
 _symmetry_equiv_pos_site_id
 _symmetry_equiv_pos_as_xyz
  1  'x, y, z'
loop_
 _atom_site_type_symbol
 _atom_site_label
 _atom_site_symmetry_multiplicity
 _atom_site_fract_x
 _atom_site_fract_y
 _atom_site_fract_z
 _atom_site_occupancy
  Zn  Zn1  1  0.905370  0.110300  0.247800  1.0
  Zn  Zn2  1  0.594630  0.389700  0.247800  1.0
  Zn  Zn3  1  0.094630  0.610300  0.252200  1.0
  Zn  Zn4  1  0.405370  0.889700  0.252200  1.0
  Zn  Zn5  1  0.094630  0.889700  0.752200  1.0
  Zn  Zn6  1  0.405370  0.610300  0.752200  1.0
  Zn  Zn7  1  0.905370  0.389700  0.747800  1.0
  Zn  Zn8  1  0.594630  0.110300  0.747800  1.0
  H  H9  1  0.175400  0.159400  0.990800  1
  H  H10  1  0.324600  0.340600  0.990800  1
  H  H11  1  0.824600  0.659400  0.509200  1
  H  H12  1  0.675400  0.840600  0.509200  1
  H  H13  1  0.824600  0.840600  0.009200  1
  H  H14  1  0.675400  0.659400  0.009200  1
  H  H15  1  0.175400  0.340600  0.490800  1
  H  H16  1  0.324600  0.159400  0.490800  1
  H  H17  1  0.204700  0.157800  0.062500  1
  H  H18  1  0.295300  0.342200  0.062500  1
  H  H19  1  0.795300  0.657800  0.437500  1
  H  H20  1  0.704700  0.842200  0.437500  1
  H  H21  1  0.795300  0.842200  0.937500  1
  H  H22  1  0.704700  0.657800  0.937500  1
  H  H23  1  0.204700  0.342200  0.562500  1
  H  H24  1  0.295300  0.157800  0.562500  1
  H  H25  1  0.095500  0.201100  0.330200  1.0
  H  H26  1  0.404500  0.298900  0.330200  1.0
  H  H27  1  0.904500  0.701100  0.169800  1.0
  H  H28  1  0.595500  0.798900  0.169800  1.0
  H  H29  1  0.904500  0.798900  0.669800  1.0
  H  H30  1  0.595500  0.701100  0.669800  1.0
  H  H31  1  0.095500  0.298900  0.830200  1.0
  H  H32  1  0.404500  0.201100  0.830200  1.0
  H  H33  1  0.978100  0.392400  0.339200  1.0
  H  H34  1  0.521900  0.107600  0.339200  1.0
  H  H35  1  0.021900  0.892400  0.160800  1.0
  H  H36  1  0.478100  0.607600  0.160800  1.0
  H  H37  1  0.021900  0.607600  0.660800  1.0
  H  H38  1  0.478100  0.892400  0.660800  1.0
  H  H39  1  0.978100  0.107600  0.839200  1.0
  H  H40  1  0.521900  0.392400  0.839200  1.0
  H  H41  1  0.143400  0.433600  0.356400  1.0
  H  H42  1  0.356600  0.066400  0.356400  1.0
  H  H43  1  0.856600  0.933600  0.143600  1.0
  H  H44  1  0.643400  0.566400  0.143600  1.0
  H  H45  1  0.856600  0.566400  0.643600  1.0
  H  H46  1  0.643400  0.933600  0.643600  1.0
  H  H47  1  0.143400  0.066400  0.856400  1.0
  H  H48  1  0.356600  0.433600  0.856400  1.0
  H  H49  1  0.283500  0.362200  0.358100  1.0
  H  H50  1  0.216500  0.137800  0.358100  1.0
  H  H51  1  0.716500  0.862200  0.141900  1.0
  H  H52  1  0.783500  0.637800  0.141900  1.0
  H  H53  1  0.716500  0.637800  0.641900  1.0
  H  H54  1  0.783500  0.862200  0.641900  1.0
  H  H55  1  0.283500  0.137800  0.858100  1.0
  H  H56  1  0.216500  0.362200  0.858100  1.0
  H  H57  1  0.909800  0.218300  0.340400  1.0
  H  H58  1  0.590200  0.281700  0.340400  1.0
  H  H59  1  0.090200  0.718300  0.159600  1.0
  H  H60  1  0.409800  0.781700  0.159600  1.0
  H  H61  1  0.090200  0.781700  0.659600  1.0
  H  H62  1  0.409800  0.718300  0.659600  1.0
  H  H63  1  0.909800  0.281700  0.840400  1.0
  H  H64  1  0.590200  0.218300  0.840400  1.0
  H  H65  1  0.863900  0.293400  0.345500  1.0
  H  H66  1  0.636100  0.206600  0.345500  1.0
  H  H67  1  0.136100  0.793400  0.154500  1.0
  H  H68  1  0.363900  0.706600  0.154500  1.0
  H  H69  1  0.136100  0.706600  0.654500  1.0
  H  H70  1  0.363900  0.793400  0.654500  1.0
  H  H71  1  0.863900  0.206600  0.845500  1.0
  H  H72  1  0.636100  0.293400  0.845500  1.0
  H  H73  1  0.837300  0.358400  0.237300  1.0
  H  H74  1  0.662700  0.141600  0.237300  1.0
  H  H75  1  0.162700  0.858400  0.262700  1.0
  H  H76  1  0.337300  0.641600  0.262700  1.0
  H  H77  1  0.162700  0.641600  0.762700  1.0
  H  H78  1  0.337300  0.858400  0.762700  1.0
  H  H79  1  0.837300  0.141600  0.737300  1.0
  H  H80  1  0.662700  0.358400  0.737300  1.0
  H  H81  1  0.841900  0.321500  0.127800  1.0
  H  H82  1  0.658100  0.178500  0.127800  1.0
  H  H83  1  0.158100  0.821500  0.372200  1.0
  H  H84  1  0.341900  0.678500  0.372200  1.0
  H  H85  1  0.158100  0.678500  0.872200  1.0
  H  H86  1  0.341900  0.821500  0.872200  1.0
  H  H87  1  0.841900  0.178500  0.627800  1.0
  H  H88  1  0.658100  0.321500  0.627800  1.0
  H  H89  1  0.942600  0.258100  0.051300  1.0
  H  H90  1  0.557400  0.241900  0.051300  1.0
  H  H91  1  0.057400  0.758100  0.448700  1.0
  H  H92  1  0.442600  0.741900  0.448700  1.0
  H  H93  1  0.057400  0.741900  0.948700  1.0
  H  H94  1  0.442600  0.758100  0.948700  1.0
  H  H95  1  0.942600  0.241900  0.551300  1.0
  H  H96  1  0.557400  0.258100  0.551300  1.0
  H  H97  1  0.975400  0.193500  0.965700  1.0
  H  H98  1  0.524600  0.306500  0.965700  1.0
  H  H99  1  0.024600  0.693500  0.534300  1.0
  H  H100  1  0.475400  0.806500  0.534300  1.0
  H  H101  1  0.024600  0.806500  0.034300  1.0
  H  H102  1  0.475400  0.693500  0.034300  1.0
  H  H103  1  0.975400  0.306500  0.465700  1.0
  H  H104  1  0.524600  0.193500  0.465700  1.0
  H  H105  1  0.966100  0.074200  0.973400  1.0
  H  H106  1  0.533900  0.425800  0.973400  1.0
  H  H107  1  0.033900  0.574200  0.526600  1.0
  H  H108  1  0.466100  0.925800  0.526600  1.0
  H  H109  1  0.033900  0.925800  0.026600  1.0
  H  H110  1  0.466100  0.574200  0.026600  1.0
  H  H111  1  0.966100  0.425800  0.473400  1.0
  H  H112  1  0.533900  0.074200  0.473400  1.0
  H  H113  1  0.919200  0.023800  0.066000  1.0
  H  H114  1  0.580800  0.476200  0.066000  1.0
  H  H115  1  0.080800  0.523800  0.434000  1.0
  H  H116  1  0.419200  0.976200  0.434000  1.0
  H  H117  1  0.080800  0.976200  0.934000  1.0
  H  H118  1  0.419200  0.523800  0.934000  1.0
  H  H119  1  0.919200  0.476200  0.566000  1.0
  H  H120  1  0.580800  0.023800  0.566000  1.0
  H  H121  1  0.119700  0.176000  0.199700  1.0
  H  H122  1  0.380300  0.324000  0.199700  1.0
  H  H123  1  0.880300  0.676000  0.300300  1.0
  H  H124  1  0.619700  0.824000  0.300300  1.0
  H  H125  1  0.880300  0.824000  0.800300  1.0
  H  H126  1  0.619700  0.676000  0.800300  1.0
  H  H127  1  0.119700  0.324000  0.699700  1.0
  H  H128  1  0.380300  0.176000  0.699700  1.0
  H  H129  1  0.333800  0.028600  0.178000  1.0
  H  H130  1  0.166200  0.471400  0.178000  1.0
  H  H131  1  0.666200  0.528600  0.322000  1.0
  H  H132  1  0.833800  0.971400  0.322000  1.0
  H  H133  1  0.666200  0.971400  0.822000  1.0
  H  H134  1  0.833800  0.528600  0.822000  1.0
  H  H135  1  0.333800  0.471400  0.678000  1.0
  H  H136  1  0.166200  0.028600  0.678000  1.0
  H  H137  1  0.458900  0.111300  0.165000  1.0
  H  H138  1  0.041100  0.388700  0.165000  1.0
  H  H139  1  0.541100  0.611300  0.335000  1.0
  H  H140  1  0.958900  0.888700  0.335000  1.0
  H  H141  1  0.541100  0.888700  0.835000  1.0
  H  H142  1  0.958900  0.611300  0.835000  1.0
  H  H143  1  0.458900  0.388700  0.665000  1.0
  H  H144  1  0.041100  0.111300  0.665000  1.0
  H  H145  1  0.415900  0.225300  0.164800  1.0
  H  H146  1  0.084100  0.274700  0.164800  1.0
  H  H147  1  0.584100  0.725300  0.335200  1.0
  H  H148  1  0.915900  0.774700  0.335200  1.0
  H  H149  1  0.584100  0.774700  0.835200  1.0
  H  H150  1  0.915900  0.725300  0.835200  1.0
  H  H151  1  0.415900  0.274700  0.664800  1.0
  H  H152  1  0.084100  0.225300  0.664800  1.0
  H  H153  1  0.071300  0.053000  0.175800  1.0
  H  H154  1  0.428700  0.447000  0.175800  1.0
  H  H155  1  0.928700  0.553000  0.324200  1.0
  H  H156  1  0.571300  0.947000  0.324200  1.0
  H  H157  1  0.928700  0.947000  0.824200  1.0
  H  H158  1  0.571300  0.553000  0.824200  1.0
  H  H159  1  0.071300  0.447000  0.675800  1.0
  H  H160  1  0.428700  0.053000  0.675800  1.0
  H  H161  1  0.159300  0.996800  0.183000  1.0
  H  H162  1  0.340700  0.503200  0.183000  1.0
  H  H163  1  0.840700  0.496800  0.317000  1.0
  H  H164  1  0.659300  0.003200  0.317000  1.0
  H  H165  1  0.840700  0.003200  0.817000  1.0
  H  H166  1  0.659300  0.496800  0.817000  1.0
  H  H167  1  0.159300  0.503200  0.683000  1.0
  H  H168  1  0.340700  0.996800  0.683000  1.0
  H  H169  1  0.221800  0.975700  0.304200  1.0
  H  H170  1  0.278200  0.524300  0.304200  1.0
  H  H171  1  0.778200  0.475700  0.195800  1.0
  H  H172  1  0.721800  0.024300  0.195800  1.0
  H  H173  1  0.778200  0.024300  0.695800  1.0
  H  H174  1  0.721800  0.475700  0.695800  1.0
  H  H175  1  0.221800  0.524300  0.804200  1.0
  H  H176  1  0.278200  0.975700  0.804200  1.0
  H  H177  1  0.131000  0.995400  0.403100  1.0
  H  H178  1  0.369000  0.504600  0.403100  1.0
  H  H179  1  0.869000  0.495400  0.096900  1.0
  H  H180  1  0.631000  0.004600  0.096900  1.0
  H  H181  1  0.869000  0.004600  0.596900  1.0
  H  H182  1  0.631000  0.495400  0.596900  1.0
  H  H183  1  0.131000  0.504600  0.903100  1.0
  H  H184  1  0.369000  0.995400  0.903100  1.0
  H  H185  1  0.038300  0.063200  0.467300  1.0
  H  H186  1  0.461700  0.436800  0.467300  1.0
  H  H187  1  0.961700  0.563200  0.032700  1.0
  H  H188  1  0.538300  0.936800  0.032700  1.0
  H  H189  1  0.961700  0.936800  0.532700  1.0
  H  H190  1  0.538300  0.563200  0.532700  1.0
  H  H191  1  0.038300  0.436800  0.967300  1.0
  H  H192  1  0.461700  0.063200  0.967300  1.0
  H  H193  1  0.926600  0.103700  0.541100  1.0
  H  H194  1  0.573400  0.396300  0.541100  1.0
  H  H195  1  0.073400  0.603700  0.958900  1.0
  H  H196  1  0.426600  0.896300  0.958900  1.0
  H  H197  1  0.073400  0.896300  0.458900  1.0
  H  H198  1  0.426600  0.603700  0.458900  1.0
  H  H199  1  0.926600  0.396300  0.041100  1.0
  H  H200  1  0.573400  0.103700  0.041100  1.0
  H  H201  1  0.760600  0.135600  0.512800  1.0
  H  H202  1  0.739400  0.364400  0.512800  1.0
  H  H203  1  0.239400  0.635600  0.987200  1.0
  H  H204  1  0.260600  0.864400  0.987200  1.0
  H  H205  1  0.239400  0.864400  0.487200  1.0
  H  H206  1  0.260600  0.635600  0.487200  1.0
  H  H207  1  0.760600  0.364400  0.012800  1.0
  H  H208  1  0.739400  0.135600  0.012800  1.0
  H  H209  1  0.710400  0.130800  0.410000  1.0
  H  H210  1  0.789600  0.369200  0.410000  1.0
  H  H211  1  0.289600  0.630800  0.090000  1.0
  H  H212  1  0.210400  0.869200  0.090000  1.0
  H  H213  1  0.289600  0.869200  0.590000  1.0
  H  H214  1  0.210400  0.630800  0.590000  1.0
  H  H215  1  0.710400  0.369200  0.910000  1.0
  H  H216  1  0.789600  0.130800  0.910000  1.0
  C  C217  1  0.228100  0.144400  0.020700  1
  C  C218  1  0.271900  0.355600  0.020700  1
  C  C219  1  0.771900  0.644400  0.479300  1
  C  C220  1  0.728100  0.855600  0.479300  1
  C  C221  1  0.771900  0.855600  0.979300  1
  C  C222  1  0.728100  0.644400  0.979300  1
  C  C223  1  0.228100  0.355600  0.520700  1
  C  C224  1  0.271900  0.144400  0.520700  1
  C  C225  1  0.205300  0.272900  0.344600  1.0
  C  C226  1  0.294700  0.227100  0.344600  1.0
  C  C227  1  0.794700  0.772900  0.155400  1.0
  C  C228  1  0.705300  0.727100  0.155400  1.0
  C  C229  1  0.794700  0.727100  0.655400  1.0
  C  C230  1  0.705300  0.772900  0.655400  1.0
  C  C231  1  0.205300  0.227100  0.844600  1.0
  C  C232  1  0.294700  0.272900  0.844600  1.0
  C  C233  1  0.105900  0.248400  0.335700  1.0
  C  C234  1  0.394100  0.251600  0.335700  1.0
  C  C235  1  0.894100  0.748400  0.164300  1.0
  C  C236  1  0.605900  0.751600  0.164300  1.0
  C  C237  1  0.894100  0.751600  0.664300  1.0
  C  C238  1  0.605900  0.748400  0.664300  1.0
  C  C239  1  0.105900  0.251600  0.835700  1.0
  C  C240  1  0.394100  0.248400  0.835700  1.0
  C  C241  1  0.020400  0.292200  0.334700  1.0
  C  C242  1  0.479600  0.207800  0.334700  1.0
  C  C243  1  0.979600  0.792200  0.165300  1.0
  C  C244  1  0.520400  0.707800  0.165300  1.0
  C  C245  1  0.979600  0.707800  0.665300  1.0
  C  C246  1  0.520400  0.792200  0.665300  1.0
  C  C247  1  0.020400  0.207800  0.834700  1.0
  C  C248  1  0.479600  0.292200  0.834700  1.0
  C  C249  1  0.034800  0.362100  0.341200  1.0
  C  C250  1  0.465200  0.137900  0.341200  1.0
  C  C251  1  0.965200  0.862100  0.158800  1.0
  C  C252  1  0.534800  0.637900  0.158800  1.0
  C  C253  1  0.965200  0.637900  0.658800  1.0
  C  C254  1  0.534800  0.862100  0.658800  1.0
  C  C255  1  0.034800  0.137900  0.841200  1.0
  C  C256  1  0.465200  0.362100  0.841200  1.0
  C  C257  1  0.133300  0.386300  0.350700  1.0
  C  C258  1  0.366700  0.113700  0.350700  1.0
  C  C259  1  0.866700  0.886300  0.149300  1.0
  C  C260  1  0.633300  0.613700  0.149300  1.0
  C  C261  1  0.866700  0.613700  0.649300  1.0
  C  C262  1  0.633300  0.886300  0.649300  1.0
  C  C263  1  0.133300  0.113700  0.850700  1.0
  C  C264  1  0.366700  0.386300  0.850700  1.0
  C  C265  1  0.216900  0.343700  0.352100  1.0
  C  C266  1  0.283100  0.156300  0.352100  1.0
  C  C267  1  0.783100  0.843700  0.147900  1.0
  C  C268  1  0.716900  0.656300  0.147900  1.0
  C  C269  1  0.783100  0.656300  0.647900  1.0
  C  C270  1  0.716900  0.843700  0.647900  1.0
  C  C271  1  0.216900  0.156300  0.852100  1.0
  C  C272  1  0.283100  0.343700  0.852100  1.0
  C  C273  1  0.914300  0.264800  0.323300  1.0
  C  C274  1  0.585700  0.235200  0.323300  1.0
  C  C275  1  0.085700  0.764800  0.176700  1.0
  C  C276  1  0.414300  0.735200  0.176700  1.0
  C  C277  1  0.085700  0.735200  0.676700  1.0
  C  C278  1  0.414300  0.764800  0.676700  1.0
  C  C279  1  0.914300  0.235200  0.823300  1.0
  C  C280  1  0.585700  0.264800  0.823300  1.0
  C  C281  1  0.857100  0.314800  0.222900  1.0
  C  C282  1  0.642900  0.185200  0.222900  1.0
  C  C283  1  0.142900  0.814800  0.277100  1.0
  C  C284  1  0.357100  0.685200  0.277100  1.0
  C  C285  1  0.142900  0.685200  0.777100  1.0
  C  C286  1  0.357100  0.814800  0.777100  1.0
  C  C287  1  0.857100  0.185200  0.722900  1.0
  C  C288  1  0.642900  0.314800  0.722900  1.0
  C  C289  1  0.859200  0.295100  0.163000  1.0
  C  C290  1  0.640800  0.204900  0.163000  1.0
  C  C291  1  0.140800  0.795100  0.337000  1.0
  C  C292  1  0.359200  0.704900  0.337000  1.0
  C  C293  1  0.140800  0.704900  0.837000  1.0
  C  C294  1  0.359200  0.795100  0.837000  1.0
  C  C295  1  0.859200  0.204900  0.663000  1.0
  C  C296  1  0.640800  0.295100  0.663000  1.0
  C  C297  1  0.892400  0.227200  0.163700  1.0
  C  C298  1  0.607600  0.272800  0.163700  1.0
  C  C299  1  0.107600  0.727200  0.336300  1.0
  C  C300  1  0.392400  0.772800  0.336300  1.0
  C  C301  1  0.107600  0.772800  0.836300  1.0
  C  C302  1  0.392400  0.727200  0.836300  1.0
  C  C303  1  0.892400  0.272800  0.663700  1.0
  C  C304  1  0.607600  0.227200  0.663700  1.0
  C  C305  1  0.910400  0.181200  0.111400  1.0
  C  C306  1  0.589600  0.318800  0.111400  1.0
  C  C307  1  0.089600  0.681200  0.388600  1.0
  C  C308  1  0.410400  0.818800  0.388600  1.0
  C  C309  1  0.089600  0.818800  0.888600  1.0
  C  C310  1  0.410400  0.681200  0.888600  1.0
  C  C311  1  0.910400  0.318800  0.611400  1.0
  C  C312  1  0.589600  0.181200  0.611400  1.0
  C  C313  1  0.937900  0.210100  0.054300  1.0
  C  C314  1  0.562100  0.289900  0.054300  1.0
  C  C315  1  0.062100  0.710100  0.445700  1.0
  C  C316  1  0.437900  0.789900  0.445700  1.0
  C  C317  1  0.062100  0.789900  0.945700  1.0
  C  C318  1  0.437900  0.710100  0.945700  1.0
  C  C319  1  0.937900  0.289900  0.554300  1.0
  C  C320  1  0.562100  0.210100  0.554300  1.0
  C  C321  1  0.957600  0.172500  0.003700  1.0
  C  C322  1  0.542400  0.327500  0.003700  1.0
  C  C323  1  0.042400  0.672500  0.496300  1.0
  C  C324  1  0.457600  0.827500  0.496300  1.0
  C  C325  1  0.042400  0.827500  0.996300  1.0
  C  C326  1  0.457600  0.672500  0.996300  1.0
  C  C327  1  0.957600  0.327500  0.503700  1.0
  C  C328  1  0.542400  0.172500  0.503700  1.0
  C  C329  1  0.951400  0.101800  0.008300  1.0
  C  C330  1  0.548600  0.398200  0.008300  1.0
  C  C331  1  0.048600  0.601800  0.491700  1.0
  C  C332  1  0.451400  0.898200  0.491700  1.0
  C  C333  1  0.048600  0.898200  0.991700  1.0
  C  C334  1  0.451400  0.601800  0.991700  1.0
  C  C335  1  0.951400  0.398200  0.508300  1.0
  C  C336  1  0.548600  0.101800  0.508300  1.0
  C  C337  1  0.923800  0.071900  0.063800  1.0
  C  C338  1  0.576200  0.428100  0.063800  1.0
  C  C339  1  0.076200  0.571900  0.436200  1.0
  C  C340  1  0.423800  0.928100  0.436200  1.0
  C  C341  1  0.076200  0.928100  0.936200  1.0
  C  C342  1  0.423800  0.571900  0.936200  1.0
  C  C343  1  0.923800  0.428100  0.563800  1.0
  C  C344  1  0.576200  0.071900  0.563800  1.0
  C  C345  1  0.902600  0.109800  0.116400  1.0
  C  C346  1  0.597400  0.390200  0.116400  1.0
  C  C347  1  0.097400  0.609800  0.383600  1.0
  C  C348  1  0.402600  0.890200  0.383600  1.0
  C  C349  1  0.097400  0.890200  0.883600  1.0
  C  C350  1  0.402600  0.609800  0.883600  1.0
  C  C351  1  0.902600  0.390200  0.616400  1.0
  C  C352  1  0.597400  0.109800  0.616400  1.0
  C  C353  1  0.263600  0.212900  0.182700  1.0
  C  C354  1  0.236400  0.287100  0.182700  1.0
  C  C355  1  0.736400  0.712900  0.317300  1.0
  C  C356  1  0.763600  0.787100  0.317300  1.0
  C  C357  1  0.736400  0.787100  0.817300  1.0
  C  C358  1  0.763600  0.712900  0.817300  1.0
  C  C359  1  0.263600  0.287100  0.682700  1.0
  C  C360  1  0.236400  0.212900  0.682700  1.0
  C  C361  1  0.188800  0.163100  0.192000  1.0
  C  C362  1  0.311200  0.336900  0.192000  1.0
  C  C363  1  0.811200  0.663100  0.308000  1.0
  C  C364  1  0.688800  0.836900  0.308000  1.0
  C  C365  1  0.811200  0.836900  0.808000  1.0
  C  C366  1  0.688800  0.663100  0.808000  1.0
  C  C367  1  0.188800  0.336900  0.692000  1.0
  C  C368  1  0.311200  0.163100  0.692000  1.0
  C  C369  1  0.215100  0.094700  0.190200  1.0
  C  C370  1  0.284900  0.405300  0.190200  1.0
  C  C371  1  0.784900  0.594700  0.309800  1.0
  C  C372  1  0.715100  0.905300  0.309800  1.0
  C  C373  1  0.784900  0.905300  0.809800  1.0
  C  C374  1  0.715100  0.594700  0.809800  1.0
  C  C375  1  0.215100  0.405300  0.690200  1.0
  C  C376  1  0.284900  0.094700  0.690200  1.0
  C  C377  1  0.315900  0.075300  0.179500  1.0
  C  C378  1  0.184100  0.424700  0.179500  1.0
  C  C379  1  0.684100  0.575300  0.320500  1.0
  C  C380  1  0.815900  0.924700  0.320500  1.0
  C  C381  1  0.684100  0.924700  0.820500  1.0
  C  C382  1  0.815900  0.575300  0.820500  1.0
  C  C383  1  0.315900  0.424700  0.679500  1.0
  C  C384  1  0.184100  0.075300  0.679500  1.0
  C  C385  1  0.389400  0.124400  0.171200  1.0
  C  C386  1  0.110600  0.375600  0.171200  1.0
  C  C387  1  0.610600  0.624400  0.328800  1.0
  C  C388  1  0.889400  0.875600  0.328800  1.0
  C  C389  1  0.610600  0.875600  0.828800  1.0
  C  C390  1  0.889400  0.624400  0.828800  1.0
  C  C391  1  0.389400  0.375600  0.671200  1.0
  C  C392  1  0.110600  0.124400  0.671200  1.0
  C  C393  1  0.364100  0.192200  0.171800  1.0
  C  C394  1  0.135900  0.307800  0.171800  1.0
  C  C395  1  0.635900  0.692200  0.328200  1.0
  C  C396  1  0.864100  0.807800  0.328200  1.0
  C  C397  1  0.635900  0.807800  0.828200  1.0
  C  C398  1  0.864100  0.692200  0.828200  1.0
  C  C399  1  0.364100  0.307800  0.671800  1.0
  C  C400  1  0.135900  0.192200  0.671800  1.0
  C  C401  1  0.133600  0.040500  0.199400  1.0
  C  C402  1  0.366400  0.459500  0.199400  1.0
  C  C403  1  0.866400  0.540500  0.300600  1.0
  C  C404  1  0.633600  0.959500  0.300600  1.0
  C  C405  1  0.866400  0.959500  0.800600  1.0
  C  C406  1  0.633600  0.540500  0.800600  1.0
  C  C407  1  0.133600  0.459500  0.699400  1.0
  C  C408  1  0.366400  0.040500  0.699400  1.0
  C  C409  1  0.160200  0.000900  0.309300  1.0
  C  C410  1  0.339800  0.499100  0.309300  1.0
  C  C411  1  0.839800  0.500900  0.190700  1.0
  C  C412  1  0.660200  0.999100  0.190700  1.0
  C  C413  1  0.839800  0.999100  0.690700  1.0
  C  C414  1  0.660200  0.500900  0.690700  1.0
  C  C415  1  0.160200  0.499100  0.809300  1.0
  C  C416  1  0.339800  0.000900  0.809300  1.0
  C  C417  1  0.110800  0.011300  0.363500  1.0
  C  C418  1  0.389200  0.488700  0.363500  1.0
  C  C419  1  0.889200  0.511300  0.136500  1.0
  C  C420  1  0.610800  0.988700  0.136500  1.0
  C  C421  1  0.889200  0.988700  0.636500  1.0
  C  C422  1  0.610800  0.511300  0.636500  1.0
  C  C423  1  0.110800  0.488700  0.863500  1.0
  C  C424  1  0.389200  0.011300  0.863500  1.0
  C  C425  1  0.023200  0.050600  0.349200  1.0
  C  C426  1  0.476800  0.449400  0.349200  1.0
  C  C427  1  0.976800  0.550600  0.150800  1.0
  C  C428  1  0.523200  0.949400  0.150800  1.0
  C  C429  1  0.976800  0.949400  0.650800  1.0
  C  C430  1  0.523200  0.550600  0.650800  1.0
  C  C431  1  0.023200  0.449400  0.849200  1.0
  C  C432  1  0.476800  0.050600  0.849200  1.0
  C  C433  1  0.946200  0.075400  0.392100  1.0
  C  C434  1  0.553800  0.424600  0.392100  1.0
  C  C435  1  0.053800  0.575400  0.107900  1.0
  C  C436  1  0.446200  0.924600  0.107900  1.0
  C  C437  1  0.053800  0.924600  0.607900  1.0
  C  C438  1  0.446200  0.575400  0.607900  1.0
  C  C439  1  0.946200  0.424600  0.892100  1.0
  C  C440  1  0.553800  0.075400  0.892100  1.0
  C  C441  1  0.972000  0.078000  0.454900  1.0
  C  C442  1  0.528000  0.422000  0.454900  1.0
  C  C443  1  0.028000  0.578000  0.045100  1.0
  C  C444  1  0.472000  0.922000  0.045100  1.0
  C  C445  1  0.028000  0.922000  0.545100  1.0
  C  C446  1  0.472000  0.578000  0.545100  1.0
  C  C447  1  0.972000  0.422000  0.954900  1.0
  C  C448  1  0.528000  0.078000  0.954900  1.0
  C  C449  1  0.905500  0.101100  0.499200  1.0
  C  C450  1  0.594500  0.398900  0.499200  1.0
  C  C451  1  0.094500  0.601100  0.000800  1.0
  C  C452  1  0.405500  0.898900  0.000800  1.0
  C  C453  1  0.094500  0.898900  0.500800  1.0
  C  C454  1  0.405500  0.601100  0.500800  1.0
  C  C455  1  0.905500  0.398900  0.999200  1.0
  C  C456  1  0.594500  0.101100  0.999200  1.0
  C  C457  1  0.807900  0.120600  0.482300  1.0
  C  C458  1  0.692100  0.379400  0.482300  1.0
  C  C459  1  0.192100  0.620600  0.017700  1.0
  C  C460  1  0.307900  0.879400  0.017700  1.0
  C  C461  1  0.192100  0.879400  0.517700  1.0
  C  C462  1  0.307900  0.620600  0.517700  1.0
  C  C463  1  0.807900  0.379400  0.982300  1.0
  C  C464  1  0.692100  0.120600  0.982300  1.0
  C  C465  1  0.778600  0.118300  0.420600  1.0
  C  C466  1  0.721400  0.381700  0.420600  1.0
  C  C467  1  0.221400  0.618300  0.079400  1.0
  C  C468  1  0.278600  0.881700  0.079400  1.0
  C  C469  1  0.221400  0.881700  0.579400  1.0
  C  C470  1  0.278600  0.618300  0.579400  1.0
  C  C471  1  0.778600  0.381700  0.920600  1.0
  C  C472  1  0.721400  0.118300  0.920600  1.0
  C  C473  1  0.846100  0.098100  0.373300  1.0
  C  C474  1  0.653900  0.401900  0.373300  1.0
  C  C475  1  0.153900  0.598100  0.126700  1.0
  C  C476  1  0.346100  0.901900  0.126700  1.0
  C  C477  1  0.153900  0.901900  0.626700  1.0
  C  C478  1  0.346100  0.598100  0.626700  1.0
  C  C479  1  0.846100  0.401900  0.873300  1.0
  C  C480  1  0.653900  0.098100  0.873300  1.0
  N  N481  1  0.911300  0.207600  0.223400  1.0
  N  N482  1  0.588700  0.292400  0.223400  1.0
  N  N483  1  0.088700  0.707600  0.276600  1.0
  N  N484  1  0.411300  0.792400  0.276600  1.0
  N  N485  1  0.088700  0.792400  0.776600  1.0
  N  N486  1  0.411300  0.707600  0.776600  1.0
  N  N487  1  0.911300  0.292400  0.723400  1.0
  N  N488  1  0.588700  0.207600  0.723400  1.0
  N  N489  1  0.887400  0.263000  0.258500  1.0
  N  N490  1  0.612600  0.237000  0.258500  1.0
  N  N491  1  0.112600  0.763000  0.241500  1.0
  N  N492  1  0.387400  0.737000  0.241500  1.0
  N  N493  1  0.112600  0.737000  0.741500  1.0
  N  N494  1  0.387400  0.763000  0.741500  1.0
  N  N495  1  0.887400  0.237000  0.758500  1.0
  N  N496  1  0.612600  0.263000  0.758500  1.0
  N  N497  1  0.021500  0.064200  0.288100  1.0
  N  N498  1  0.478500  0.435800  0.288100  1.0
  N  N499  1  0.978500  0.564200  0.211900  1.0
  N  N500  1  0.521500  0.935800  0.211900  1.0
  N  N501  1  0.978500  0.935800  0.711900  1.0
  N  N502  1  0.521500  0.564200  0.711900  1.0
  N  N503  1  0.021500  0.435800  0.788100  1.0
  N  N504  1  0.478500  0.064200  0.788100  1.0
  N  N505  1  0.107300  0.032500  0.263300  1.0
  N  N506  1  0.392700  0.467500  0.263300  1.0
  N  N507  1  0.892700  0.532500  0.236700  1.0
  N  N508  1  0.607300  0.967500  0.236700  1.0
  N  N509  1  0.892700  0.967500  0.736700  1.0
  N  N510  1  0.607300  0.532500  0.736700  1.0
  N  N511  1  0.107300  0.467500  0.763300  1.0
  N  N512  1  0.392700  0.032500  0.763300  1.0
  Cl  Cl513  1  0.238500  0.055370  0.017530  1
  Cl  Cl514  1  0.261500  0.444630  0.017530  1
  Cl  Cl515  1  0.761500  0.555370  0.482470  1
  Cl  Cl516  1  0.738500  0.944630  0.482470  1
  Cl  Cl517  1  0.761500  0.944630  0.982470  1
  Cl  Cl518  1  0.738500  0.555370  0.982470  1
  Cl  Cl519  1  0.238500  0.444630  0.517530  1
  Cl  Cl520  1  0.261500  0.055370  0.517530  1
  Cl  Cl521  1  0.343100  0.184980  0.004550  1
  Cl  Cl522  1  0.156900  0.315020  0.004550  1
  Cl  Cl523  1  0.656900  0.684980  0.495450  1
  Cl  Cl524  1  0.843100  0.815020  0.495450  1
  Cl  Cl525  1  0.656900  0.815020  0.995450  1
  Cl  Cl526  1  0.843100  0.684980  0.995450  1
  Cl  Cl527  1  0.343100  0.315020  0.504550  1
  Cl  Cl528  1  0.156900  0.184980  0.504550  1
  O  O529  1  0.876500  0.077400  0.168300  1.0
  O  O530  1  0.623500  0.422600  0.168300  1.0
  O  O531  1  0.123500  0.577400  0.331700  1.0
  O  O532  1  0.376500  0.922600  0.331700  1.0
  O  O533  1  0.123500  0.922600  0.831700  1.0
  O  O534  1  0.376500  0.577400  0.831700  1.0
  O  O535  1  0.876500  0.422600  0.668300  1.0
  O  O536  1  0.623500  0.077400  0.668300  1.0
  O  O537  1  0.812900  0.098800  0.314800  1.0
  O  O538  1  0.687100  0.401200  0.314800  1.0
  O  O539  1  0.187100  0.598800  0.185200  1.0
  O  O540  1  0.312900  0.901200  0.185200  1.0
  O  O541  1  0.187100  0.901200  0.685200  1.0
  O  O542  1  0.312900  0.598800  0.685200  1.0
  O  O543  1  0.812900  0.401200  0.814800  1.0
  O  O544  1  0.687100  0.098800  0.814800  1.0
