# generated using pymatgen
data_Zn2H71C65N11O7
_symmetry_space_group_name_H-M   'P 1'
_cell_length_a   15.82340000
_cell_length_b   15.99300000
_cell_length_c   21.55500000
_cell_angle_alpha   90.00000000
_cell_angle_beta   96.43900000
_cell_angle_gamma   90.00000000
_symmetry_Int_Tables_number   1
_chemical_formula_structural   Zn2H71C65N11O7
_chemical_formula_sum   'Zn8 H284 C260 N44 O28'
_cell_volume   5420.37687181
_cell_formula_units_Z   4
loop_
 _symmetry_equiv_pos_site_id
 _symmetry_equiv_pos_as_xyz
  1  'x, y, z'
loop_
 _atom_site_type_symbol
 _atom_site_label
 _atom_site_symmetry_multiplicity
 _atom_site_fract_x
 _atom_site_fract_y
 _atom_site_fract_z
 _atom_site_occupancy
  Zn  Zn1  1  0.788625  0.546433  0.668448  1
  Zn  Zn2  1  0.711375  0.046433  0.331552  1
  Zn  Zn3  1  0.211375  0.453567  0.331552  1
  Zn  Zn4  1  0.288625  0.953567  0.668448  1
  Zn  Zn5  1  0.266372  0.316212  0.867590  1
  Zn  Zn6  1  0.233628  0.816212  0.132410  1
  Zn  Zn7  1  0.733628  0.683788  0.132410  1
  Zn  Zn8  1  0.766372  0.183788  0.867590  1
  H  H9  1  0.196800  0.449600  0.746100  1
  H  H10  1  0.303200  0.949600  0.253900  1
  H  H11  1  0.803200  0.550400  0.253900  1
  H  H12  1  0.696800  0.050400  0.746100  1
  H  H13  1  0.117900  0.474200  0.650600  1
  H  H14  1  0.382100  0.974200  0.349400  1
  H  H15  1  0.882100  0.525800  0.349400  1
  H  H16  1  0.617900  0.025800  0.650600  1
  H  H17  1  0.972800  0.639300  0.732500  1
  H  H18  1  0.527200  0.139300  0.267500  1
  H  H19  1  0.027200  0.360700  0.267500  1
  H  H20  1  0.472800  0.860700  0.732500  1
  H  H21  1  0.049800  0.612400  0.829000  1
  H  H22  1  0.450200  0.112400  0.171000  1
  H  H23  1  0.950200  0.387600  0.171000  1
  H  H24  1  0.549800  0.887600  0.829000  1
  H  H25  1  0.945000  0.621800  0.624600  1
  H  H26  1  0.555000  0.121800  0.375400  1
  H  H27  1  0.055000  0.378200  0.375400  1
  H  H28  1  0.445000  0.878200  0.624600  1
  H  H29  1  0.023600  0.592700  0.589300  1
  H  H30  1  0.476400  0.092700  0.410700  1
  H  H31  1  0.976400  0.407300  0.410700  1
  H  H32  1  0.523600  0.907300  0.589300  1
  H  H33  1  0.016700  0.435900  0.545500  1
  H  H34  1  0.483300  0.935900  0.454500  1
  H  H35  1  0.983300  0.564100  0.454500  1
  H  H36  1  0.516700  0.064100  0.545500  1
  H  H37  1  0.894300  0.339000  0.519200  1
  H  H38  1  0.605700  0.839000  0.480800  1
  H  H39  1  0.105700  0.661000  0.480800  1
  H  H40  1  0.394300  0.161000  0.519200  1
  H  H41  1  0.758600  0.304000  0.502500  1
  H  H42  1  0.741400  0.804000  0.497500  1
  H  H43  1  0.241400  0.696000  0.497500  1
  H  H44  1  0.258600  0.196000  0.502500  1
  H  H45  1  0.623100  0.247400  0.489600  1
  H  H46  1  0.876900  0.747400  0.510400  1
  H  H47  1  0.376900  0.752600  0.510400  1
  H  H48  1  0.123100  0.252600  0.489600  1
  H  H49  1  0.520200  0.296100  0.550800  1
  H  H50  1  0.979800  0.796100  0.449200  1
  H  H51  1  0.479800  0.703900  0.449200  1
  H  H52  1  0.020200  0.203900  0.550800  1
  H  H53  1  0.553900  0.400600  0.623600  1
  H  H54  1  0.946100  0.900600  0.376400  1
  H  H55  1  0.446100  0.599400  0.376400  1
  H  H56  1  0.053900  0.099400  0.623600  1
  H  H57  1  0.241400  0.492600  0.851200  1
  H  H58  1  0.258600  0.992600  0.148800  1
  H  H59  1  0.758600  0.507400  0.148800  1
  H  H60  1  0.741400  0.007400  0.851200  1
  H  H61  1  0.193600  0.567900  0.881400  1
  H  H62  1  0.306400  0.067900  0.118600  1
  H  H63  1  0.806400  0.432100  0.118600  1
  H  H64  1  0.693600  0.932100  0.881400  1
  H  H65  1  0.056600  0.520200  0.940300  1
  H  H66  1  0.443400  0.020200  0.059700  1
  H  H67  1  0.943400  0.479800  0.059700  1
  H  H68  1  0.556600  0.979800  0.940300  1
  H  H69  1  0.031100  0.387800  0.997200  1
  H  H70  1  0.468900  0.887800  0.002800  1
  H  H71  1  0.968900  0.612200  0.002800  1
  H  H72  1  0.531100  0.112200  0.997200  1
  H  H73  1  0.051300  0.260100  0.030300  1
  H  H74  1  0.448700  0.760100  0.969700  1
  H  H75  1  0.948700  0.739900  0.969700  1
  H  H76  1  0.551300  0.239900  0.030300  1
  H  H77  1  0.058500  0.124900  0.068300  1
  H  H78  1  0.441500  0.624900  0.931700  1
  H  H79  1  0.941500  0.875100  0.931700  1
  H  H80  1  0.558500  0.375100  0.068300  1
  H  H81  1  0.157100  0.031200  0.033400  1
  H  H82  1  0.342900  0.531200  0.966600  1
  H  H83  1  0.842900  0.968800  0.966600  1
  H  H84  1  0.657100  0.468800  0.033400  1
  H  H85  1  0.242600  0.073100  0.959400  1
  H  H86  1  0.257400  0.573100  0.040600  1
  H  H87  1  0.757400  0.926900  0.040600  1
  H  H88  1  0.742600  0.426900  0.959400  1
  H  H89  1  0.060500  0.244700  0.851300  1
  H  H90  1  0.439500  0.744700  0.148700  1
  H  H91  1  0.939500  0.755300  0.148700  1
  H  H92  1  0.560500  0.255300  0.851300  1
  H  H93  1  0.935000  0.315000  0.864100  1
  H  H94  1  0.565000  0.815000  0.135900  1
  H  H95  1  0.065000  0.685000  0.135900  1
  H  H96  1  0.435000  0.185000  0.864100  1
  H  H97  1  0.910200  0.378500  0.681800  1
  H  H98  1  0.589800  0.878500  0.318200  1
  H  H99  1  0.089800  0.621500  0.318200  1
  H  H100  1  0.410200  0.121500  0.681800  1
  H  H101  1  0.036700  0.310100  0.669300  1
  H  H102  1  0.463300  0.810100  0.330700  1
  H  H103  1  0.963300  0.689900  0.330700  1
  H  H104  1  0.536700  0.189900  0.669300  1
  H  H105  1  0.789700  0.394800  0.741700  1
  H  H106  1  0.710300  0.894800  0.258300  1
  H  H107  1  0.210300  0.605200  0.258300  1
  H  H108  1  0.289700  0.105200  0.741700  1
  H  H109  1  0.797300  0.365100  0.812900  1
  H  H110  1  0.702700  0.865100  0.187100  1
  H  H111  1  0.202700  0.634900  0.187100  1
  H  H112  1  0.297300  0.134900  0.812900  1
  H  H113  1  0.865700  0.478900  0.897200  1
  H  H114  1  0.634300  0.978900  0.102800  1
  H  H115  1  0.134300  0.521100  0.102800  1
  H  H116  1  0.365700  0.021100  0.897200  1
  H  H117  1  0.867100  0.634800  0.892600  1
  H  H118  1  0.632900  0.134800  0.107400  1
  H  H119  1  0.132900  0.365200  0.107400  1
  H  H120  1  0.367100  0.865200  0.892600  1
  H  H121  1  0.862900  0.760500  0.852300  1
  H  H122  1  0.637100  0.260500  0.147700  1
  H  H123  1  0.137100  0.239500  0.147700  1
  H  H124  1  0.362900  0.739500  0.852300  1
  H  H125  1  0.864500  0.897100  0.817300  1
  H  H126  1  0.635500  0.397100  0.182700  1
  H  H127  1  0.135500  0.102900  0.182700  1
  H  H128  1  0.364500  0.602900  0.817300  1
  H  H129  1  0.833200  0.925200  0.711800  1
  H  H130  1  0.666800  0.425200  0.288200  1
  H  H131  1  0.166800  0.074800  0.288200  1
  H  H132  1  0.333200  0.574800  0.711800  1
  H  H133  1  0.801100  0.817700  0.641100  1
  H  H134  1  0.698900  0.317700  0.358900  1
  H  H135  1  0.198900  0.182300  0.358900  1
  H  H136  1  0.301100  0.682300  0.641100  1
  H  H137  1  0.161000  0.193900  0.791000  1
  H  H138  1  0.339000  0.693900  0.209000  1
  H  H139  1  0.839000  0.806100  0.209000  1
  H  H140  1  0.661000  0.306100  0.791000  1
  H  H141  1  0.127600  0.178400  0.719200  1
  H  H142  1  0.372400  0.678400  0.280800  1
  H  H143  1  0.872400  0.821600  0.280800  1
  H  H144  1  0.627600  0.321600  0.719200  1
  H  H145  1  0.203300  0.267600  0.637100  1
  H  H146  1  0.296700  0.767600  0.362900  1
  H  H147  1  0.796700  0.732400  0.362900  1
  H  H148  1  0.703300  0.232400  0.637100  1
  H  H149  1  0.335300  0.354200  0.647500  1
  H  H150  1  0.164700  0.854200  0.352500  1
  H  H151  1  0.664700  0.645800  0.352500  1
  H  H152  1  0.835300  0.145800  0.647500  1
  H  H153  1  0.447800  0.419700  0.693600  1
  H  H154  1  0.052200  0.919700  0.306400  1
  H  H155  1  0.552200  0.580300  0.306400  1
  H  H156  1  0.947800  0.080300  0.693600  1
  H  H157  1  0.574100  0.482200  0.733800  1
  H  H158  1  0.925900  0.982200  0.266200  1
  H  H159  1  0.425900  0.517800  0.266200  1
  H  H160  1  0.074100  0.017800  0.733800  1
  H  H161  1  0.605400  0.494200  0.842300  1
  H  H162  1  0.894600  0.994200  0.157700  1
  H  H163  1  0.394600  0.505800  0.157700  1
  H  H164  1  0.105400  0.005800  0.842300  1
  H  H165  1  0.510000  0.447500  0.908100  1
  H  H166  1  0.990000  0.947500  0.091900  1
  H  H167  1  0.490000  0.552500  0.091900  1
  H  H168  1  0.010000  0.052500  0.908100  1
  H  H169  1  0.858700  0.285800  0.362500  1
  H  H170  1  0.641300  0.785800  0.637500  1
  H  H171  1  0.141300  0.714200  0.637500  1
  H  H172  1  0.358700  0.214200  0.362500  1
  H  H173  1  0.998300  0.135100  0.423600  1
  H  H174  1  0.501700  0.635100  0.576400  1
  H  H175  1  0.001700  0.864900  0.576400  1
  H  H176  1  0.498300  0.364900  0.423600  1
  H  H177  1  0.030300  0.112300  0.357800  1
  H  H178  1  0.469700  0.612300  0.642200  1
  H  H179  1  0.969700  0.887700  0.642200  1
  H  H180  1  0.530300  0.387700  0.357800  1
  H  H181  1  0.946700  0.068800  0.378400  1
  H  H182  1  0.553300  0.568800  0.621600  1
  H  H183  1  0.053300  0.931200  0.621600  1
  H  H184  1  0.446700  0.431200  0.378400  1
  H  H185  1  0.875700  0.134000  0.272000  1
  H  H186  1  0.624300  0.634000  0.728000  1
  H  H187  1  0.124300  0.866000  0.728000  1
  H  H188  1  0.375700  0.366000  0.272000  1
  H  H189  1  0.962300  0.182600  0.264200  1
  H  H190  1  0.537700  0.682600  0.735800  1
  H  H191  1  0.037700  0.817400  0.735800  1
  H  H192  1  0.462300  0.317400  0.264200  1
  H  H193  1  0.876500  0.234000  0.269200  1
  H  H194  1  0.623500  0.734000  0.730800  1
  H  H195  1  0.123500  0.766000  0.730800  1
  H  H196  1  0.376500  0.266000  0.269200  1
  H  H197  1  0.387300  0.238900  0.988200  1
  H  H198  1  0.112700  0.738900  0.011800  1
  H  H199  1  0.612700  0.761100  0.011800  1
  H  H200  1  0.887300  0.261100  0.988200  1
  H  H201  1  0.353500  0.374800  0.991200  1
  H  H202  1  0.146500  0.874800  0.008800  1
  H  H203  1  0.646500  0.625200  0.008800  1
  H  H204  1  0.853500  0.125200  0.991200  1
  H  H205  1  0.381700  0.419500  0.056700  1
  H  H206  1  0.118300  0.919500  0.943300  1
  H  H207  1  0.618300  0.580500  0.943300  1
  H  H208  1  0.881700  0.080500  0.056700  1
  H  H209  1  0.284900  0.391200  0.039100  1
  H  H210  1  0.215100  0.891200  0.960900  1
  H  H211  1  0.715100  0.608800  0.960900  1
  H  H212  1  0.784900  0.108800  0.039100  1
  H  H213  1  0.363900  0.237500  0.147300  1
  H  H214  1  0.136100  0.737500  0.852700  1
  H  H215  1  0.636100  0.762500  0.852700  1
  H  H216  1  0.863900  0.262500  0.147300  1
  H  H217  1  0.330300  0.331900  0.148300  1
  H  H218  1  0.169700  0.831900  0.851700  1
  H  H219  1  0.669700  0.668100  0.851700  1
  H  H220  1  0.830300  0.168100  0.148300  1
  H  H221  1  0.429800  0.313600  0.149200  1
  H  H222  1  0.070200  0.813600  0.850800  1
  H  H223  1  0.570200  0.686400  0.850800  1
  H  H224  1  0.929800  0.186400  0.149200  1
  H  H225  1  0.227700  0.367300  0.486700  1
  H  H226  1  0.272300  0.867300  0.513300  1
  H  H227  1  0.772300  0.632700  0.513300  1
  H  H228  1  0.727700  0.132700  0.486700  1
  H  H229  1  0.223700  0.544600  0.574600  1
  H  H230  1  0.276300  0.044600  0.425400  1
  H  H231  1  0.776300  0.455400  0.425400  1
  H  H232  1  0.723700  0.955400  0.574600  1
  H  H233  1  0.323000  0.565800  0.578200  1
  H  H234  1  0.177000  0.065800  0.421800  1
  H  H235  1  0.677000  0.434200  0.421800  1
  H  H236  1  0.823000  0.934200  0.578200  1
  H  H237  1  0.289900  0.498600  0.625000  1
  H  H238  1  0.210100  0.998600  0.375000  1
  H  H239  1  0.710100  0.501400  0.375000  1
  H  H240  1  0.789900  0.001400  0.625000  1
  H  H241  1  0.392900  0.491300  0.499000  1
  H  H242  1  0.107100  0.991300  0.501000  1
  H  H243  1  0.607100  0.508700  0.501000  1
  H  H244  1  0.892900  0.008700  0.499000  1
  H  H245  1  0.372800  0.393700  0.490200  1
  H  H246  1  0.127200  0.893700  0.509800  1
  H  H247  1  0.627200  0.606300  0.509800  1
  H  H248  1  0.872800  0.106300  0.490200  1
  H  H249  1  0.413600  0.428500  0.556500  1
  H  H250  1  0.086400  0.928500  0.443500  1
  H  H251  1  0.586400  0.571500  0.443500  1
  H  H252  1  0.913600  0.071500  0.556500  1
  H  H253  1  0.259200  0.274700  0.105800  1
  H  H254  1  0.240800  0.774700  0.894200  1
  H  H255  1  0.740800  0.725300  0.894200  1
  H  H256  1  0.759200  0.225300  0.105800  1
  H  H257  1  0.339000  0.304400  0.152700  1
  H  H258  1  0.161000  0.804400  0.847300  1
  H  H259  1  0.661000  0.695600  0.847300  1
  H  H260  1  0.839000  0.195600  0.152700  1
  H  H261  1  0.335300  0.210900  0.126000  1
  H  H262  1  0.164700  0.710900  0.874000  1
  H  H263  1  0.664700  0.789100  0.874000  1
  H  H264  1  0.835300  0.289100  0.126000  1
  H  H265  1  0.220400  0.511600  0.586700  1
  H  H266  1  0.279600  0.011600  0.413300  1
  H  H267  1  0.779600  0.488400  0.413300  1
  H  H268  1  0.720400  0.988400  0.586700  1
  H  H269  1  0.364300  0.550100  0.574400  1
  H  H270  1  0.135700  0.050100  0.425600  1
  H  H271  1  0.635700  0.449900  0.425600  1
  H  H272  1  0.864300  0.949900  0.574400  1
  H  H273  1  0.399300  0.510400  0.514100  1
  H  H274  1  0.100700  0.010400  0.485900  1
  H  H275  1  0.600700  0.489600  0.485900  1
  H  H276  1  0.899300  0.989600  0.514100  1
  H  H277  1  0.412900  0.462200  0.579500  1
  H  H278  1  0.087100  0.962200  0.420500  1
  H  H279  1  0.587100  0.537800  0.420500  1
  H  H280  1  0.912900  0.037800  0.579500  1
  H  H281  1  0.243800  0.368100  0.468900  1
  H  H282  1  0.256200  0.868100  0.531100  1
  H  H283  1  0.756200  0.631900  0.531100  1
  H  H284  1  0.743800  0.131900  0.468900  1
  H  H285  1  0.330800  0.337100  0.507100  1
  H  H286  1  0.169200  0.837100  0.492900  1
  H  H287  1  0.669200  0.662900  0.492900  1
  H  H288  1  0.830800  0.162900  0.507100  1
  H  H289  1  0.332400  0.407500  0.454500  1
  H  H290  1  0.167600  0.907500  0.545500  1
  H  H291  1  0.667600  0.592500  0.545500  1
  H  H292  1  0.832400  0.092500  0.454500  1
  C  C293  1  0.131180  0.528010  0.797480  1
  C  C294  1  0.368820  0.028010  0.202520  1
  C  C295  1  0.868820  0.471990  0.202520  1
  C  C296  1  0.631180  0.971990  0.797480  1
  C  C297  1  0.150550  0.487860  0.743670  1
  C  C298  1  0.349450  0.987860  0.256330  1
  C  C299  1  0.849450  0.512140  0.256330  1
  C  C300  1  0.650550  0.012140  0.743670  1
  C  C301  1  0.103810  0.502580  0.686760  1
  C  C302  1  0.396190  0.002580  0.313240  1
  C  C303  1  0.896190  0.497420  0.313240  1
  C  C304  1  0.603810  0.997420  0.686760  1
  C  C305  1  0.036310  0.558610  0.681980  1
  C  C306  1  0.463690  0.058610  0.318020  1
  C  C307  1  0.963690  0.441390  0.318020  1
  C  C308  1  0.536310  0.941390  0.681980  1
  C  C309  1  0.017890  0.599750  0.735280  1
  C  C310  1  0.482110  0.099750  0.264720  1
  C  C311  1  0.982110  0.400250  0.264720  1
  C  C312  1  0.517890  0.900250  0.735280  1
  C  C313  1  0.064180  0.584270  0.792740  1
  C  C314  1  0.435820  0.084270  0.207260  1
  C  C315  1  0.935820  0.415730  0.207260  1
  C  C316  1  0.564180  0.915730  0.792740  1
  C  C317  1  0.984750  0.575120  0.619790  1
  C  C318  1  0.515250  0.075120  0.380210  1
  C  C319  1  0.015250  0.424880  0.380210  1
  C  C320  1  0.484750  0.924880  0.619790  1
  C  C321  1  0.961700  0.441170  0.558830  1
  C  C322  1  0.538300  0.941170  0.441170  1
  C  C323  1  0.038300  0.558830  0.441170  1
  C  C324  1  0.461700  0.058830  0.558830  1
  C  C325  1  0.894980  0.387880  0.544270  1
  C  C326  1  0.605020  0.887880  0.455730  1
  C  C327  1  0.105020  0.612120  0.455730  1
  C  C328  1  0.394980  0.112120  0.544270  1
  C  C329  1  0.827400  0.420520  0.574080  1
  C  C330  1  0.672600  0.920520  0.425920  1
  C  C331  1  0.172600  0.579480  0.425920  1
  C  C332  1  0.327400  0.079480  0.574080  1
  C  C333  1  0.740040  0.388190  0.570930  1
  C  C334  1  0.759960  0.888190  0.429070  1
  C  C335  1  0.259960  0.611810  0.429070  1
  C  C336  1  0.240040  0.111810  0.570930  1
  C  C337  1  0.717150  0.324310  0.527360  1
  C  C338  1  0.782850  0.824310  0.472640  1
  C  C339  1  0.282850  0.675690  0.472640  1
  C  C340  1  0.217150  0.175690  0.527360  1
  C  C341  1  0.636730  0.290250  0.519540  1
  C  C342  1  0.863270  0.790250  0.480460  1
  C  C343  1  0.363270  0.709750  0.480460  1
  C  C344  1  0.136730  0.209750  0.519540  1
  C  C345  1  0.575910  0.319140  0.555790  1
  C  C346  1  0.924090  0.819140  0.444210  1
  C  C347  1  0.424090  0.680860  0.444210  1
  C  C348  1  0.075910  0.180860  0.555790  1
  C  C349  1  0.596310  0.381500  0.599140  1
  C  C350  1  0.903690  0.881500  0.400860  1
  C  C351  1  0.403690  0.618500  0.400860  1
  C  C352  1  0.096310  0.118500  0.599140  1
  C  C353  1  0.678150  0.417890  0.608380  1
  C  C354  1  0.821850  0.917890  0.391620  1
  C  C355  1  0.321850  0.582110  0.391620  1
  C  C356  1  0.178150  0.082110  0.608380  1
  C  C357  1  0.184900  0.513660  0.859420  1
  C  C358  1  0.315100  0.013660  0.140580  1
  C  C359  1  0.815100  0.486340  0.140580  1
  C  C360  1  0.684900  0.986340  0.859420  1
  C  C361  1  0.085590  0.468740  0.936940  1
  C  C362  1  0.414410  0.968740  0.063060  1
  C  C363  1  0.914410  0.531260  0.063060  1
  C  C364  1  0.585590  0.031260  0.936940  1
  C  C365  1  0.071610  0.396440  0.968400  1
  C  C366  1  0.428390  0.896440  0.031600  1
  C  C367  1  0.928390  0.603560  0.031600  1
  C  C368  1  0.571610  0.103560  0.968400  1
  C  C369  1  0.129660  0.337580  0.949250  1
  C  C370  1  0.370340  0.837580  0.050750  1
  C  C371  1  0.870340  0.662420  0.050750  1
  C  C372  1  0.629660  0.162420  0.949250  1
  C  C373  1  0.141300  0.250240  0.970000  1
  C  C374  1  0.358700  0.750240  0.030000  1
  C  C375  1  0.858700  0.749760  0.030000  1
  C  C376  1  0.641300  0.249760  0.970000  1
  C  C377  1  0.090400  0.222110  0.015150  1
  C  C378  1  0.409600  0.722110  0.984850  1
  C  C379  1  0.909600  0.777890  0.984850  1
  C  C380  1  0.590400  0.277890  0.015150  1
  C  C381  1  0.094660  0.142030  0.038360  1
  C  C382  1  0.405340  0.642030  0.961640  1
  C  C383  1  0.905340  0.857970  0.961640  1
  C  C384  1  0.594660  0.357970  0.038360  1
  C  C385  1  0.152610  0.086560  0.017350  1
  C  C386  1  0.347390  0.586560  0.982650  1
  C  C387  1  0.847390  0.913440  0.982650  1
  C  C388  1  0.652610  0.413440  0.017350  1
  C  C389  1  0.203340  0.111850  0.973310  1
  C  C390  1  0.296660  0.611850  0.026690  1
  C  C391  1  0.796660  0.888150  0.026690  1
  C  C392  1  0.703340  0.388150  0.973310  1
  C  C393  1  0.199500  0.193070  0.947800  1
  C  C394  1  0.300500  0.693070  0.052200  1
  C  C395  1  0.800500  0.806930  0.052200  1
  C  C396  1  0.699500  0.306930  0.947800  1
  C  C397  1  0.061690  0.271090  0.759050  1
  C  C398  1  0.438310  0.771090  0.240950  1
  C  C399  1  0.938310  0.728910  0.240950  1
  C  C400  1  0.561690  0.228910  0.759050  1
  C  C401  1  0.030280  0.272590  0.816690  1
  C  C402  1  0.469720  0.772590  0.183310  1
  C  C403  1  0.969720  0.727410  0.183310  1
  C  C404  1  0.530280  0.227410  0.816690  1
  C  C405  1  0.955490  0.314210  0.824290  1
  C  C406  1  0.544510  0.814210  0.175710  1
  C  C407  1  0.044510  0.685790  0.175710  1
  C  C408  1  0.455490  0.185790  0.824290  1
  C  C409  1  0.910230  0.354680  0.774410  1
  C  C410  1  0.589770  0.854680  0.225590  1
  C  C411  1  0.089770  0.645320  0.225590  1
  C  C412  1  0.410230  0.145320  0.774410  1
  C  C413  1  0.941120  0.351900  0.716620  1
  C  C414  1  0.558880  0.851900  0.283380  1
  C  C415  1  0.058880  0.648100  0.283380  1
  C  C416  1  0.441120  0.148100  0.716620  1
  C  C417  1  0.016250  0.310920  0.709080  1
  C  C418  1  0.483750  0.810920  0.290920  1
  C  C419  1  0.983750  0.689080  0.290920  1
  C  C420  1  0.516250  0.189080  0.709080  1
  C  C421  1  0.826270  0.396930  0.782070  1
  C  C422  1  0.673730  0.896930  0.217930  1
  C  C423  1  0.173730  0.603070  0.217930  1
  C  C424  1  0.326270  0.103070  0.782070  1
  C  C425  1  0.854400  0.512240  0.860740  1
  C  C426  1  0.645600  0.012240  0.139260  1
  C  C427  1  0.145600  0.487760  0.139260  1
  C  C428  1  0.354400  0.987760  0.860740  1
  C  C429  1  0.855280  0.597590  0.858380  1
  C  C430  1  0.644720  0.097590  0.141620  1
  C  C431  1  0.144720  0.402410  0.141620  1
  C  C432  1  0.355280  0.902410  0.858380  1
  C  C433  1  0.835290  0.619500  0.795540  1
  C  C434  1  0.664710  0.119500  0.204460  1
  C  C435  1  0.164710  0.380500  0.204460  1
  C  C436  1  0.335290  0.880500  0.795540  1
  C  C437  1  0.831040  0.703790  0.768180  1
  C  C438  1  0.668960  0.203790  0.231820  1
  C  C439  1  0.168960  0.296210  0.231820  1
  C  C440  1  0.331040  0.796210  0.768180  1
  C  C441  1  0.850150  0.771410  0.808980  1
  C  C442  1  0.649850  0.271410  0.191020  1
  C  C443  1  0.149850  0.228590  0.191020  1
  C  C444  1  0.350150  0.728590  0.808980  1
  C  C445  1  0.851150  0.852810  0.788510  1
  C  C446  1  0.648850  0.352810  0.211490  1
  C  C447  1  0.148850  0.147190  0.211490  1
  C  C448  1  0.351150  0.647190  0.788510  1
  C  C449  1  0.832770  0.869150  0.726310  1
  C  C450  1  0.667230  0.369150  0.273690  1
  C  C451  1  0.167230  0.130850  0.273690  1
  C  C452  1  0.332770  0.630850  0.726310  1
  C  C453  1  0.813480  0.804920  0.684200  1
  C  C454  1  0.686520  0.304920  0.315800  1
  C  C455  1  0.186520  0.195080  0.315800  1
  C  C456  1  0.313480  0.695080  0.684200  1
  C  C457  1  0.811840  0.720730  0.703850  1
  C  C458  1  0.688160  0.220730  0.296150  1
  C  C459  1  0.188160  0.279270  0.296150  1
  C  C460  1  0.311840  0.779270  0.703850  1
  C  C461  1  0.141600  0.222280  0.751090  1
  C  C462  1  0.358400  0.722280  0.248910  1
  C  C463  1  0.858400  0.777720  0.248910  1
  C  C464  1  0.641600  0.277720  0.751090  1
  C  C465  1  0.233210  0.287060  0.674980  1
  C  C466  1  0.266790  0.787060  0.325020  1
  C  C467  1  0.766790  0.712940  0.325020  1
  C  C468  1  0.733210  0.212940  0.674980  1
  C  C469  1  0.305600  0.334400  0.680500  1
  C  C470  1  0.194400  0.834400  0.319500  1
  C  C471  1  0.694400  0.665600  0.319500  1
  C  C472  1  0.805600  0.165600  0.680500  1
  C  C473  1  0.327440  0.348040  0.744840  1
  C  C474  1  0.172560  0.848040  0.255160  1
  C  C475  1  0.672560  0.651960  0.255160  1
  C  C476  1  0.827440  0.151960  0.744840  1
  C  C477  1  0.401390  0.393230  0.775550  1
  C  C478  1  0.098610  0.893230  0.224450  1
  C  C479  1  0.598610  0.606770  0.224450  1
  C  C480  1  0.901390  0.106770  0.775550  1
  C  C481  1  0.460320  0.424530  0.737590  1
  C  C482  1  0.039680  0.924530  0.262410  1
  C  C483  1  0.539680  0.575470  0.262410  1
  C  C484  1  0.960320  0.075470  0.737590  1
  C  C485  1  0.535460  0.461920  0.761010  1
  C  C486  1  0.964540  0.961920  0.238990  1
  C  C487  1  0.464540  0.538080  0.238990  1
  C  C488  1  0.035460  0.038080  0.761010  1
  C  C489  1  0.553390  0.469380  0.825200  1
  C  C490  1  0.946610  0.969380  0.174800  1
  C  C491  1  0.446610  0.530620  0.174800  1
  C  C492  1  0.053390  0.030620  0.825200  1
  C  C493  1  0.496590  0.441070  0.864320  1
  C  C494  1  0.003410  0.941070  0.135680  1
  C  C495  1  0.503410  0.558930  0.135680  1
  C  C496  1  0.996590  0.058930  0.864320  1
  C  C497  1  0.419190  0.402890  0.841320  1
  C  C498  1  0.080810  0.902890  0.158680  1
  C  C499  1  0.580810  0.597110  0.158680  1
  C  C500  1  0.919190  0.097110  0.841320  1
  C  C501  1  0.893630  0.244580  0.384230  1
  C  C502  1  0.606370  0.744580  0.615770  1
  C  C503  1  0.106370  0.755420  0.615770  1
  C  C504  1  0.393630  0.255420  0.384230  1
  C  C505  1  0.980140  0.120510  0.379980  1
  C  C506  1  0.519860  0.620510  0.620020  1
  C  C507  1  0.019860  0.879490  0.620020  1
  C  C508  1  0.480140  0.379490  0.379980  1
  C  C509  1  0.909210  0.184270  0.283630  1
  C  C510  1  0.590790  0.684270  0.716370  1
  C  C511  1  0.090790  0.815730  0.716370  1
  C  C512  1  0.409210  0.315730  0.283630  1
  C  C513  1  0.387550  0.232100  0.032030  1
  C  C514  1  0.112450  0.732100  0.967970  1
  C  C515  1  0.612450  0.767900  0.967970  1
  C  C516  1  0.887550  0.267900  0.032030  1
  C  C517  1  0.344400  0.376950  0.035440  1
  C  C518  1  0.155600  0.876950  0.964560  1
  C  C519  1  0.655600  0.623050  0.964560  1
  C  C520  1  0.844400  0.123050  0.035440  1
  C  C521  1  0.372700  0.294700  0.133020  1
  C  C522  1  0.127300  0.794700  0.866980  1
  C  C523  1  0.627300  0.705300  0.866980  1
  C  C524  1  0.872700  0.205300  0.133020  1
  C  C525  1  0.223300  0.409600  0.517030  1
  C  C526  1  0.276700  0.909600  0.482970  1
  C  C527  1  0.776700  0.590400  0.482970  1
  C  C528  1  0.723300  0.090400  0.517030  1
  C  C529  1  0.281300  0.521500  0.582560  1
  C  C530  1  0.218700  0.021500  0.417440  1
  C  C531  1  0.718700  0.478500  0.417440  1
  C  C532  1  0.781300  0.978500  0.582560  1
  C  C533  1  0.374100  0.440900  0.519300  1
  C  C534  1  0.125900  0.940900  0.480700  1
  C  C535  1  0.625900  0.559100  0.480700  1
  C  C536  1  0.874100  0.059100  0.519300  1
  C  C537  1  0.320800  0.269500  0.116300  1
  C  C538  1  0.179200  0.769500  0.883700  1
  C  C539  1  0.679200  0.730500  0.883700  1
  C  C540  1  0.820800  0.230500  0.116300  1
  C  C541  1  0.224200  0.468200  0.557000  1
  C  C542  1  0.275800  0.968200  0.443000  1
  C  C543  1  0.775800  0.531800  0.443000  1
  C  C544  1  0.724200  0.031800  0.557000  1
  C  C545  1  0.374100  0.497800  0.552500  1
  C  C546  1  0.125900  0.997800  0.447500  1
  C  C547  1  0.625900  0.502200  0.447500  1
  C  C548  1  0.874100  0.002200  0.552500  1
  C  C549  1  0.300600  0.385400  0.487300  1
  C  C550  1  0.199400  0.885400  0.512700  1
  C  C551  1  0.699400  0.614600  0.512700  1
  C  C552  1  0.800600  0.114600  0.487300  1
  N  N553  1  0.853710  0.490380  0.605790  1
  N  N554  1  0.646290  0.990380  0.394210  1
  N  N555  1  0.146290  0.509620  0.394210  1
  N  N556  1  0.353710  0.009620  0.605790  1
  N  N557  1  0.936190  0.502200  0.595220  1
  N  N558  1  0.563810  0.002200  0.404780  1
  N  N559  1  0.063810  0.497800  0.404780  1
  N  N560  1  0.436190  0.997800  0.595220  1
  N  N561  1  0.147220  0.454160  0.900620  1
  N  N562  1  0.352780  0.954160  0.099380  1
  N  N563  1  0.852780  0.545840  0.099380  1
  N  N564  1  0.647220  0.045840  0.900620  1
  N  N565  1  0.175000  0.373920  0.907380  1
  N  N566  1  0.325000  0.873920  0.092620  1
  N  N567  1  0.825000  0.626080  0.092620  1
  N  N568  1  0.675000  0.126080  0.907380  1
  N  N569  1  0.822850  0.548720  0.761360  1
  N  N570  1  0.677150  0.048720  0.238640  1
  N  N571  1  0.177150  0.451280  0.238640  1
  N  N572  1  0.322850  0.951280  0.761360  1
  N  N573  1  0.834710  0.483970  0.802500  1
  N  N574  1  0.665290  0.983970  0.197500  1
  N  N575  1  0.165290  0.516030  0.197500  1
  N  N576  1  0.334710  0.016030  0.802500  1
  N  N577  1  0.211840  0.273010  0.732490  1
  N  N578  1  0.288160  0.773010  0.267510  1
  N  N579  1  0.788160  0.726990  0.267510  1
  N  N580  1  0.711840  0.226990  0.732490  1
  N  N581  1  0.268540  0.310180  0.776090  1
  N  N582  1  0.231460  0.810180  0.223910  1
  N  N583  1  0.731460  0.689820  0.223910  1
  N  N584  1  0.768540  0.189820  0.776090  1
  N  N585  1  0.928580  0.187500  0.350630  1
  N  N586  1  0.571420  0.687500  0.649370  1
  N  N587  1  0.071420  0.812500  0.649370  1
  N  N588  1  0.428580  0.312500  0.350630  1
  N  N589  1  0.363650  0.296640  0.063750  1
  N  N590  1  0.136350  0.796640  0.936250  1
  N  N591  1  0.636350  0.703360  0.936250  1
  N  N592  1  0.863650  0.203360  0.063750  1
  N  N593  1  0.292230  0.453870  0.536860  1
  N  N594  1  0.207770  0.953870  0.463140  1
  N  N595  1  0.707770  0.546130  0.463140  1
  N  N596  1  0.792230  0.046130  0.536860  1
  O  O597  1  0.691350  0.476470  0.651680  1
  O  O598  1  0.808650  0.976470  0.348320  1
  O  O599  1  0.308650  0.523530  0.348320  1
  O  O600  1  0.191350  0.023530  0.651680  1
  O  O601  1  0.250620  0.210240  0.904580  1
  O  O602  1  0.249380  0.710240  0.095420  1
  O  O603  1  0.749380  0.789760  0.095420  1
  O  O604  1  0.750620  0.289760  0.904580  1
  O  O605  1  0.792380  0.663900  0.660030  1
  O  O606  1  0.707620  0.163900  0.339970  1
  O  O607  1  0.207620  0.336100  0.339970  1
  O  O608  1  0.292380  0.836100  0.660030  1
  O  O609  1  0.369000  0.377710  0.882570  1
  O  O610  1  0.131000  0.877710  0.117430  1
  O  O611  1  0.631000  0.622290  0.117430  1
  O  O612  1  0.869000  0.122290  0.882570  1
  O  O613  1  0.903080  0.248110  0.441150  1
  O  O614  1  0.596920  0.748110  0.558850  1
  O  O615  1  0.096920  0.751890  0.558850  1
  O  O616  1  0.403080  0.251890  0.441150  1
  O  O617  1  0.410150  0.163900  0.054160  1
  O  O618  1  0.089850  0.663900  0.945840  1
  O  O619  1  0.589850  0.836100  0.945840  1
  O  O620  1  0.910150  0.336100  0.054160  1
  O  O621  1  0.153550  0.421460  0.536670  1
  O  O622  1  0.346450  0.921460  0.463330  1
  O  O623  1  0.846450  0.578540  0.463330  1
  O  O624  1  0.653550  0.078540  0.536670  1
