# generated using pymatgen
data_Co2H52C66N8Cl4O13
_symmetry_space_group_name_H-M   'P 1'
_cell_length_a   14.20600000
_cell_length_b   15.59400000
_cell_length_c   17.06200000
_cell_angle_alpha   90.38000000
_cell_angle_beta   108.26500000
_cell_angle_gamma   91.17200000
_symmetry_Int_Tables_number   1
_chemical_formula_structural   Co2H52C66N8Cl4O13
_chemical_formula_sum   'Co4 H104 C132 N16 Cl8 O26'
_cell_volume   3588.19435992
_cell_formula_units_Z   2
loop_
 _symmetry_equiv_pos_site_id
 _symmetry_equiv_pos_as_xyz
  1  'x, y, z'
loop_
 _atom_site_type_symbol
 _atom_site_label
 _atom_site_symmetry_multiplicity
 _atom_site_fract_x
 _atom_site_fract_y
 _atom_site_fract_z
 _atom_site_occupancy
  Co  Co1  1  0.174490  0.584030  0.148150  1
  Co  Co2  1  0.825510  0.415970  0.851850  1
  Co  Co3  1  0.444310  0.201750  0.435780  1
  Co  Co4  1  0.555690  0.798250  0.564220  1
  H  H5  1  0.160300  0.871900  0.241300  1
  H  H6  1  0.839700  0.128100  0.758700  1
  H  H7  1  0.057900  0.752700  0.407400  1
  H  H8  1  0.942100  0.247300  0.592600  1
  H  H9  1  0.022500  0.884500  0.450400  1
  H  H10  1  0.977500  0.115500  0.549600  1
  H  H11  1  0.050800  0.008700  0.390200  1
  H  H12  1  0.949200  0.991300  0.609800  1
  H  H13  1  0.114200  0.664100  0.316000  1
  H  H14  1  0.885800  0.335900  0.684000  1
  H  H15  1  0.094600  0.703700  0.228100  1
  H  H16  1  0.905400  0.296300  0.771900  1
  H  H17  1  0.316900  0.755900  0.402600  1
  H  H18  1  0.683100  0.244100  0.597400  1
  H  H19  1  0.467600  0.714400  0.366600  1
  H  H20  1  0.532400  0.285600  0.633400  1
  H  H21  1  0.549600  0.674300  0.280100  1
  H  H22  1  0.450400  0.325700  0.719900  1
  H  H23  1  0.644400  0.626500  0.208100  1
  H  H24  1  0.355600  0.373500  0.791900  1
  H  H25  1  0.577900  0.538700  0.091200  1
  H  H26  1  0.422100  0.461300  0.908800  1
  H  H27  1  0.410500  0.506800  0.048700  1
  H  H28  1  0.589500  0.493200  0.951300  1
  H  H29  1  0.161100  0.112800  0.371000  1
  H  H30  1  0.838900  0.887200  0.629000  1
  H  H31  1  0.199700  0.233000  0.175600  1
  H  H32  1  0.800300  0.767000  0.824400  1
  H  H33  1  0.160700  0.104300  0.101600  1
  H  H34  1  0.839300  0.895700  0.898400  1
  H  H35  1  0.110200  0.987800  0.155900  1
  H  H36  1  0.889800  0.012200  0.844100  1
  H  H37  1  0.159200  0.302300  0.322000  1
  H  H38  1  0.840800  0.697700  0.678000  1
  H  H39  1  0.237000  0.253200  0.392100  1
  H  H40  1  0.763000  0.746800  0.607900  1
  H  H41  1  0.234700  0.412600  0.243000  1
  H  H42  1  0.765300  0.587400  0.757000  1
  H  H43  1  0.400900  0.455800  0.252200  1
  H  H44  1  0.599100  0.544200  0.747800  1
  H  H45  1  0.564400  0.452100  0.288000  1
  H  H46  1  0.435600  0.547900  0.712000  1
  H  H47  1  0.738700  0.467700  0.329700  1
  H  H48  1  0.261300  0.532300  0.670300  1
  H  H49  1  0.831500  0.364100  0.417800  1
  H  H50  1  0.168500  0.635900  0.582200  1
  H  H51  1  0.756000  0.255800  0.464800  1
  H  H52  1  0.244000  0.744200  0.535200  1
  H  H53  1  0.286400  0.741300  0.070400  1
  H  H54  1  0.713600  0.258700  0.929600  1
  H  H55  1  0.031100  0.818300  0.912300  1
  H  H56  1  0.968900  0.181700  0.087700  1
  H  H57  1  0.081800  0.956000  0.944000  1
  H  H58  1  0.918200  0.044000  0.056000  1
  H  H59  1  0.228200  0.989400  0.045900  1
  H  H60  1  0.771800  0.010600  0.954100  1
  H  H61  1  0.107000  0.668300  0.903900  1
  H  H62  1  0.893000  0.331700  0.096100  1
  H  H63  1  0.176700  0.636600  0.988400  1
  H  H64  1  0.823300  0.363400  0.011600  1
  H  H65  1  0.920500  0.655000  0.879800  1
  H  H66  1  0.079500  0.345000  0.120200  1
  H  H67  1  0.822000  0.590900  0.961300  1
  H  H68  1  0.178000  0.409100  0.038700  1
  H  H69  1  0.788100  0.544900  0.078100  1
  H  H70  1  0.211900  0.455100  0.921900  1
  H  H71  1  0.747200  0.468000  0.174800  1
  H  H72  1  0.252800  0.532000  0.825200  1
  H  H73  1  0.867100  0.409000  0.283000  1
  H  H74  1  0.132900  0.591000  0.717000  1
  H  H75  1  0.032100  0.428400  0.291800  1
  H  H76  1  0.967900  0.571600  0.708200  1
  H  H77  1  0.324100  0.992000  0.184900  1
  H  H78  1  0.675900  0.008000  0.815100  1
  H  H79  1  0.612400  0.944000  0.291600  1
  H  H80  1  0.387600  0.056000  0.708400  1
  H  H81  1  0.600900  0.830400  0.198300  1
  H  H82  1  0.399100  0.169600  0.801700  1
  H  H83  1  0.449300  0.796000  0.102300  1
  H  H84  1  0.550700  0.204000  0.897700  1
  H  H85  1  0.543400  0.065100  0.337200  1
  H  H86  1  0.456600  0.934900  0.662800  1
  H  H87  1  0.440200  0.097200  0.281800  1
  H  H88  1  0.559800  0.902800  0.718200  1
  H  H89  1  0.415000  0.889800  0.364500  1
  H  H90  1  0.585000  0.110200  0.635500  1
  H  H91  1  0.344400  0.901100  0.477800  1
  H  H92  1  0.655600  0.098900  0.522200  1
  H  H93  1  0.238100  0.971100  0.534700  1
  H  H94  1  0.761900  0.028900  0.465300  1
  H  H95  1  0.159700  0.027100  0.619900  1
  H  H96  1  0.840300  0.972900  0.380100  1
  H  H97  1  0.184200  0.173600  0.658800  1
  H  H98  1  0.815800  0.826400  0.341200  1
  H  H99  1  0.290700  0.255200  0.612000  1
  H  H100  1  0.709300  0.744800  0.388000  1
  H  H101  1  0.364700  0.563300  0.508400  1
  H  H102  1  0.635300  0.436700  0.491600  1
  H  H103  1  0.395300  0.533300  0.431900  1
  H  H104  1  0.604700  0.466700  0.568100  1
  H  H105  1  0.212300  0.146500  0.896200  1
  H  H106  1  0.787700  0.853500  0.103800  1
  H  H107  1  0.218200  0.229600  0.950500  1
  H  H108  1  0.781800  0.770400  0.049500  1
  C  C109  1  0.113100  0.954600  0.309300  1
  C  C110  1  0.886900  0.045400  0.690700  1
  C  C111  1  0.132700  0.874900  0.284000  1
  C  C112  1  0.867300  0.125100  0.716000  1
  C  C113  1  0.113100  0.797000  0.319200  1
  C  C114  1  0.886900  0.203000  0.680800  1
  C  C115  1  0.071400  0.802200  0.382400  1
  C  C116  1  0.928600  0.197800  0.617600  1
  C  C117  1  0.050100  0.881600  0.407800  1
  C  C118  1  0.949900  0.118400  0.592200  1
  C  C119  1  0.068100  0.956600  0.372500  1
  C  C120  1  0.931900  0.043400  0.627500  1
  C  C121  1  0.133700  0.710000  0.285800  1
  C  C122  1  0.866300  0.290000  0.714200  1
  C  C123  1  0.317000  0.727700  0.354400  1
  C  C124  1  0.683000  0.272300  0.645600  1
  C  C125  1  0.401500  0.704800  0.335700  1
  C  C126  1  0.598500  0.295200  0.664300  1
  C  C127  1  0.362100  0.663500  0.257900  1
  C  C128  1  0.637900  0.336500  0.742100  1
  C  C129  1  0.418500  0.626400  0.208200  1
  C  C130  1  0.581500  0.373600  0.791800  1
  C  C131  1  0.520200  0.641900  0.232400  1
  C  C132  1  0.479800  0.358100  0.767600  1
  C  C133  1  0.577100  0.612400  0.190600  1
  C  C134  1  0.422900  0.387600  0.809400  1
  C  C135  1  0.537600  0.560100  0.120100  1
  C  C136  1  0.462400  0.439900  0.879900  1
  C  C137  1  0.437500  0.541600  0.095200  1
  C  C138  1  0.562500  0.458400  0.904800  1
  C  C139  1  0.374300  0.572900  0.137000  1
  C  C140  1  0.625700  0.427100  0.863000  1
  C  C141  1  0.135900  0.034700  0.270800  1
  C  C142  1  0.864100  0.965300  0.729200  1
  C  C143  1  0.162300  0.110400  0.316900  1
  C  C144  1  0.837700  0.889600  0.683100  1
  C  C145  1  0.190100  0.182000  0.281500  1
  C  C146  1  0.809900  0.818000  0.718500  1
  C  C147  1  0.185700  0.183300  0.200000  1
  C  C148  1  0.814300  0.816700  0.800000  1
  C  C149  1  0.159400  0.106900  0.155800  1
  C  C150  1  0.840600  0.893100  0.844200  1
  C  C151  1  0.132200  0.036500  0.188900  1
  C  C152  1  0.867800  0.963500  0.811100  1
  C  C153  1  0.217500  0.267200  0.334000  1
  C  C154  1  0.782500  0.732800  0.666000  1
  C  C155  1  0.291900  0.384900  0.272900  1
  C  C156  1  0.708100  0.615100  0.727100  1
  C  C157  1  0.382800  0.408200  0.277300  1
  C  C158  1  0.617200  0.591800  0.722700  1
  C  C159  1  0.447900  0.348800  0.326600  1
  C  C160  1  0.552100  0.651200  0.673400  1
  C  C161  1  0.555300  0.348000  0.352200  1
  C  C162  1  0.444700  0.652000  0.647800  1
  C  C163  1  0.602700  0.412700  0.324400  1
  C  C164  1  0.397300  0.587300  0.675600  1
  C  C165  1  0.708000  0.422500  0.348400  1
  C  C166  1  0.292000  0.577500  0.651600  1
  C  C167  1  0.762600  0.360600  0.401300  1
  C  C168  1  0.237400  0.639400  0.598700  1
  C  C169  1  0.717300  0.295600  0.429300  1
  C  C170  1  0.282700  0.704400  0.570700  1
  C  C171  1  0.616800  0.287000  0.406600  1
  C  C172  1  0.383200  0.713000  0.593400  1
  C  C173  1  0.272800  0.868900  0.069200  1
  C  C174  1  0.727200  0.131100  0.930800  1
  C  C175  1  0.244100  0.785200  0.046200  1
  C  C176  1  0.755900  0.214800  0.953800  1
  C  C177  1  0.154700  0.765100  0.988600  1
  C  C178  1  0.845300  0.234900  0.011400  1
  C  C179  1  0.092500  0.830800  0.951000  1
  C  C180  1  0.907500  0.169200  0.049000  1
  C  C181  1  0.121900  0.912000  0.971100  1
  C  C182  1  0.878100  0.088000  0.028900  1
  C  C183  1  0.210800  0.932300  0.031300  1
  C  C184  1  0.789200  0.067700  0.968700  1
  C  C185  1  0.121500  0.673500  0.963200  1
  C  C186  1  0.878500  0.326500  0.036800  1
  C  C187  1  0.944300  0.637200  0.934200  1
  C  C188  1  0.055700  0.362800  0.065800  1
  C  C189  1  0.890200  0.601100  0.979300  1
  C  C190  1  0.109800  0.398900  0.020700  1
  C  C191  1  0.955400  0.581900  0.057600  1
  C  C192  1  0.044600  0.418100  0.942400  1
  C  C193  1  0.937500  0.536800  0.125200  1
  C  C194  1  0.062500  0.463200  0.874800  1
  C  C195  1  0.838300  0.522100  0.121500  1
  C  C196  1  0.161700  0.477900  0.878500  1
  C  C197  1  0.813700  0.475900  0.179100  1
  C  C198  1  0.186300  0.524100  0.820900  1
  C  C199  1  0.884500  0.440700  0.243400  1
  C  C200  1  0.115500  0.559300  0.756600  1
  C  C201  1  0.983600  0.453300  0.248600  1
  C  C202  1  0.016400  0.546700  0.751400  1
  C  C203  1  0.013100  0.501600  0.191500  1
  C  C204  1  0.986900  0.498400  0.808500  1
  C  C205  1  0.372700  0.888800  0.133500  1
  C  C206  1  0.627300  0.111200  0.866500  1
  C  C207  1  0.379100  0.959100  0.188200  1
  C  C208  1  0.620900  0.040900  0.811800  1
  C  C209  1  0.470900  0.977200  0.247500  1
  C  C210  1  0.529100  0.022800  0.752500  1
  C  C211  1  0.552100  0.930500  0.251800  1
  C  C212  1  0.447900  0.069500  0.748200  1
  C  C213  1  0.545300  0.861900  0.196200  1
  C  C214  1  0.454700  0.138100  0.803800  1
  C  C215  1  0.454700  0.842100  0.138500  1
  C  C216  1  0.545300  0.157900  0.861500  1
  C  C217  1  0.474900  0.047800  0.310100  1
  C  C218  1  0.525100  0.952200  0.689900  1
  C  C219  1  0.405700  0.940400  0.390000  1
  C  C220  1  0.594300  0.059600  0.610000  1
  C  C221  1  0.365200  0.946300  0.451500  1
  C  C222  1  0.634800  0.053700  0.548500  1
  C  C223  1  0.360700  0.034500  0.467700  1
  C  C224  1  0.639300  0.965500  0.532300  1
  C  C225  1  0.315600  0.075600  0.523200  1
  C  C226  1  0.684400  0.924400  0.476800  1
  C  C227  1  0.250100  0.028400  0.551000  1
  C  C228  1  0.749900  0.971600  0.449000  1
  C  C229  1  0.202100  0.061700  0.601300  1
  C  C230  1  0.797900  0.938300  0.398700  1
  C  C231  1  0.217100  0.149400  0.625100  1
  C  C232  1  0.782900  0.850600  0.374900  1
  C  C233  1  0.281200  0.197400  0.597300  1
  C  C234  1  0.718800  0.802600  0.402700  1
  C  C235  1  0.333400  0.163400  0.547600  1
  C  C236  1  0.666600  0.836600  0.452400  1
  C  C237  1  0.353200  0.519700  0.465500  1
  C  C238  1  0.646800  0.480300  0.534500  1
  C  C239  1  0.177500  0.198000  0.903000  1
  C  C240  1  0.822500  0.802000  0.097000  1
  N  N241  1  0.262100  0.661900  0.233300  1
  N  N242  1  0.737900  0.338100  0.766700  1
  N  N243  1  0.236400  0.703600  0.293900  1
  N  N244  1  0.763600  0.296400  0.706100  1
  N  N245  1  0.295200  0.314900  0.318300  1
  N  N246  1  0.704800  0.685100  0.681700  1
  N  N247  1  0.393100  0.289000  0.350400  1
  N  N248  1  0.606900  0.711000  0.649600  1
  N  N249  1  0.048400  0.608200  0.057400  1
  N  N250  1  0.951600  0.391800  0.942600  1
  N  N251  1  0.038200  0.642100  0.983400  1
  N  N252  1  0.961800  0.357900  0.016600  1
  N  N253  1  0.430800  0.020500  0.371400  1
  N  N254  1  0.569200  0.979500  0.628600  1
  N  N255  1  0.402300  0.080000  0.417700  1
  N  N256  1  0.597700  0.920000  0.582300  1
  Cl  Cl257  1  0.227000  0.519600  0.403200  1
  Cl  Cl258  1  0.773000  0.480400  0.596800  1
  Cl  Cl259  1  0.383900  0.417600  0.510920  1
  Cl  Cl260  1  0.616100  0.582400  0.489080  1
  Cl  Cl261  1  0.060600  0.169000  0.914800  1
  Cl  Cl262  1  0.939400  0.831000  0.085200  1
  Cl  Cl263  1  0.152800  0.261900  0.812300  1
  Cl  Cl264  1  0.847200  0.738100  0.187700  1
  O  O265  1  0.279700  0.553800  0.107400  1
  O  O266  1  0.720300  0.446200  0.892600  1
  O  O267  1  0.578400  0.221600  0.440000  1
  O  O268  1  0.421600  0.778400  0.560000  1
  O  O269  1  0.108200  0.512100  0.204100  1
  O  O270  1  0.891800  0.487900  0.795900  1
  O  O271  1  0.396600  0.214100  0.527100  1
  O  O272  1  0.603400  0.785900  0.472900  1
  O  O273  1  0.906100  0.169200  0.272800  1
  O  O274  1  0.093900  0.830800  0.727200  1
  O  O275  1  0.646400  0.284100  0.098900  1
  O  O276  1  0.353600  0.715900  0.901100  1
  O  O277  1  0.389300  0.081500  0.995400  1
  O  O278  1  0.610700  0.918500  0.004600  1
  O  O279  1  0.366000  0.289000  0.068300  1
  O  O280  1  0.634000  0.711000  0.931700  1
  O  O281  1  0.714000  0.125000  0.253000  1
  O  O282  1  0.286000  0.875000  0.747000  1
  O  O283  1  0.931000  0.233000  0.259000  1
  O  O284  1  0.069000  0.767000  0.741000  1
  O  O285  1  0.562800  0.303400  0.073800  1
  O  O286  1  0.437200  0.696600  0.926200  1
  O  O287  1  0.425000  0.983000  0.956000  1
  O  O288  1  0.575000  0.017000  0.044000  1
  O  O289  1  0.645000  0.175000  0.209000  1
  O  O290  1  0.355000  0.825000  0.791000  1
