# generated using pymatgen
data_H26PdC32N2Cl2O3
_symmetry_space_group_name_H-M   'P 1'
_cell_length_a   9.24800000
_cell_length_b   16.17700000
_cell_length_c   20.06100000
_cell_angle_alpha   96.90100000
_cell_angle_beta   90.00000000
_cell_angle_gamma   90.00000000
_symmetry_Int_Tables_number   1
_chemical_formula_structural   H26PdC32N2Cl2O3
_chemical_formula_sum   'H104 Pd4 C128 N8 Cl8 O12'
_cell_volume   2979.48068737
_cell_formula_units_Z   4
loop_
 _symmetry_equiv_pos_site_id
 _symmetry_equiv_pos_as_xyz
  1  'x, y, z'
loop_
 _atom_site_type_symbol
 _atom_site_label
 _atom_site_symmetry_multiplicity
 _atom_site_fract_x
 _atom_site_fract_y
 _atom_site_fract_z
 _atom_site_occupancy
  H  H1  1  0.704400  0.892500  0.693100  1
  H  H2  1  0.204400  0.107500  0.306900  1
  H  H3  1  0.750700  0.852800  0.799100  1
  H  H4  1  0.250700  0.147200  0.200900  1
  H  H5  1  0.969300  0.655500  0.712000  1
  H  H6  1  0.469300  0.344500  0.288000  1
  H  H7  1  0.939800  0.710100  0.610900  1
  H  H8  1  0.439800  0.289900  0.389100  1
  H  H9  1  0.942900  0.768500  0.864400  1
  H  H10  1  0.442900  0.231500  0.135600  1
  H  H11  1  0.794700  0.721600  0.857700  1
  H  H12  1  0.294700  0.278400  0.142300  1
  H  H13  1  0.145200  0.771800  0.821900  1
  H  H14  1  0.645200  0.228200  0.178100  1
  H  H15  1  0.379500  0.753600  0.785200  1
  H  H16  1  0.879500  0.246400  0.214800  1
  H  H17  1  0.606500  0.669800  0.769500  1
  H  H18  1  0.106500  0.330200  0.230500  1
  H  H19  1  0.711000  0.542500  0.769400  1
  H  H20  1  0.211000  0.457500  0.230600  1
  H  H21  1  0.587900  0.422000  0.802100  1
  H  H22  1  0.087900  0.578000  0.197900  1
  H  H23  1  0.345800  0.437500  0.828100  1
  H  H24  1  0.845800  0.562500  0.171900  1
  H  H25  1  0.236000  0.540400  0.953100  1
  H  H26  1  0.736000  0.459600  0.046900  1
  H  H27  1  0.221000  0.492900  0.055600  1
  H  H28  1  0.721000  0.507100  0.944400  1
  H  H29  1  0.057100  0.382400  0.073600  1
  H  H30  1  0.557100  0.617600  0.926400  1
  H  H31  1  0.938100  0.314600  0.983100  1
  H  H32  1  0.438100  0.685400  0.016900  1
  H  H33  1  0.860800  0.309700  0.858300  1
  H  H34  1  0.360800  0.690300  0.141700  1
  H  H35  1  0.852700  0.371100  0.761400  1
  H  H36  1  0.352700  0.628900  0.238600  1
  H  H37  1  0.909800  0.424700  0.658100  1
  H  H38  1  0.409800  0.575300  0.341900  1
  H  H39  1  0.068600  0.394900  0.671200  1
  H  H40  1  0.568600  0.605100  0.328800  1
  H  H41  1  0.868400  0.495700  0.574500  1
  H  H42  1  0.368400  0.504300  0.425500  1
  H  H43  1  0.932000  0.577100  0.490000  1
  H  H44  1  0.432000  0.422900  0.510000  1
  H  H45  1  0.302900  0.629200  0.581200  1
  H  H46  1  0.802900  0.370800  0.418800  1
  H  H47  1  0.269400  0.522600  0.649400  1
  H  H48  1  0.769400  0.477400  0.350600  1
  H  H49  1  0.455500  0.760600  0.429200  1
  H  H50  1  0.955500  0.239400  0.570800  1
  H  H51  1  0.562500  0.818000  0.340500  1
  H  H52  1  0.062500  0.182000  0.659500  1
  H  H53  1  0.184300  0.804400  0.242100  1
  H  H54  1  0.684300  0.195600  0.757900  1
  H  H55  1  0.093900  0.740000  0.330500  1
  H  H56  1  0.593900  0.260000  0.669500  1
  H  H57  1  0.458400  0.930200  0.249000  1
  H  H58  1  0.958400  0.069800  0.751000  1
  H  H59  1  0.538700  0.848700  0.218500  1
  H  H60  1  0.038700  0.151300  0.781500  1
  H  H61  1  0.543900  0.965200  0.130100  1
  H  H62  1  0.043900  0.034800  0.869900  1
  H  H63  1  0.500000  0.074400  0.072300  1
  H  H64  1  0.000000  0.925600  0.927700  1
  H  H65  1  0.348900  0.157200  0.010900  1
  H  H66  1  0.848900  0.842800  0.989100  1
  H  H67  1  0.120200  0.204100  0.994300  1
  H  H68  1  0.620200  0.795900  0.005700  1
  H  H69  1  0.913900  0.132700  0.030300  1
  H  H70  1  0.413900  0.867300  0.969700  1
  H  H71  1  0.949700  0.032300  0.097900  1
  H  H72  1  0.449700  0.967700  0.902100  1
  H  H73  1  0.209600  0.828000  0.038600  1
  H  H74  1  0.709600  0.172000  0.961400  1
  H  H75  1  0.149600  0.714100  0.968700  1
  H  H76  1  0.649600  0.285900  0.031300  1
  H  H77  1  0.940400  0.633800  0.988200  1
  H  H78  1  0.440400  0.366200  0.011800  1
  H  H79  1  0.810400  0.670300  0.083900  1
  H  H80  1  0.310400  0.329700  0.916100  1
  H  H81  1  0.764300  0.767600  0.188100  1
  H  H82  1  0.264300  0.232400  0.811900  1
  H  H83  1  0.805400  0.888400  0.255600  1
  H  H84  1  0.305400  0.111600  0.744400  1
  H  H85  1  0.819300  0.028300  0.268400  1
  H  H86  1  0.319300  0.971700  0.731600  1
  H  H87  1  0.936200  0.087500  0.304200  1
  H  H88  1  0.436200  0.912500  0.695800  1
  H  H89  1  0.681900  0.016900  0.370100  1
  H  H90  1  0.181900  0.983100  0.629900  1
  H  H91  1  0.660600  0.950300  0.466700  1
  H  H92  1  0.160600  0.049700  0.533300  1
  H  H93  1  0.068600  0.883800  0.455700  1
  H  H94  1  0.568600  0.116200  0.544300  1
  H  H95  1  0.099800  0.949100  0.359300  1
  H  H96  1  0.599800  0.050900  0.640700  1
  H  H97  1  0.760400  0.727500  0.368500  1
  H  H98  1  0.260400  0.272500  0.631500  1
  H  H99  1  0.773900  0.709700  0.299700  1
  H  H100  1  0.273900  0.290300  0.700300  1
  H  H101  1  0.480200  0.728500  0.637100  1
  H  H102  1  0.980200  0.271500  0.362900  1
  H  H103  1  0.511900  0.808200  0.623400  1
  H  H104  1  0.011900  0.191800  0.376600  1
  Pd  Pd105  1  0.841090  0.861300  0.556330  1
  Pd  Pd106  1  0.341090  0.138700  0.443670  1
  Pd  Pd107  1  0.187520  0.677210  0.458100  1
  Pd  Pd108  1  0.687520  0.322790  0.541900  1
  C  C109  1  0.769200  0.849700  0.698000  1
  C  C110  1  0.269200  0.150300  0.302000  1
  C  C111  1  0.790700  0.822210  0.761310  1
  C  C112  1  0.290700  0.177790  0.238690  1
  C  C113  1  0.869500  0.750990  0.769250  1
  C  C114  1  0.369500  0.249010  0.230750  1
  C  C115  1  0.923100  0.706400  0.710840  1
  C  C116  1  0.423100  0.293600  0.289160  1
  C  C117  1  0.905600  0.740540  0.650020  1
  C  C118  1  0.405600  0.259460  0.349980  1
  C  C119  1  0.889200  0.725300  0.837280  1
  C  C120  1  0.389200  0.274700  0.162720  1
  C  C121  1  0.110200  0.647300  0.827200  1
  C  C122  1  0.610200  0.352700  0.172800  1
  C  C123  1  0.188000  0.719400  0.816600  1
  C  C124  1  0.688000  0.280600  0.183400  1
  C  C125  1  0.329000  0.708570  0.798400  1
  C  C126  1  0.829000  0.291430  0.201600  1
  C  C127  1  0.403600  0.630640  0.798700  1
  C  C128  1  0.903600  0.369360  0.201300  1
  C  C129  1  0.554000  0.624560  0.780900  1
  C  C130  1  0.054000  0.375440  0.219100  1
  C  C131  1  0.614300  0.548210  0.781900  1
  C  C132  1  0.114300  0.451790  0.218100  1
  C  C133  1  0.540300  0.472400  0.801100  1
  C  C134  1  0.040300  0.527600  0.198900  1
  C  C135  1  0.398200  0.482920  0.816900  1
  C  C136  1  0.898200  0.517080  0.183100  1
  C  C137  1  0.325600  0.561420  0.816900  1
  C  C138  1  0.825600  0.438580  0.183100  1
  C  C139  1  0.174500  0.572880  0.832500  1
  C  C140  1  0.674500  0.427120  0.167500  1
  C  C141  1  0.087200  0.496900  0.842540  1
  C  C142  1  0.587200  0.503100  0.157460  1
  C  C143  1  0.076900  0.464800  0.906240  1
  C  C144  1  0.576900  0.535200  0.093760  1
  C  C145  1  0.170600  0.498500  0.959850  1
  C  C146  1  0.670600  0.501500  0.040150  1
  C  C147  1  0.163500  0.468900  0.020400  1
  C  C148  1  0.663500  0.531100  0.979600  1
  C  C149  1  0.066700  0.399800  0.031280  1
  C  C150  1  0.566700  0.600200  0.968720  1
  C  C151  1  0.991800  0.362000  0.978020  1
  C  C152  1  0.491800  0.638000  0.021980  1
  C  C153  1  0.993100  0.393400  0.913960  1
  C  C154  1  0.493100  0.606600  0.086040  1
  C  C155  1  0.914000  0.358000  0.855510  1
  C  C156  1  0.414000  0.642000  0.144490  1
  C  C157  1  0.913400  0.391500  0.796590  1
  C  C158  1  0.413400  0.608500  0.203410  1
  C  C159  1  0.007900  0.458000  0.790880  1
  C  C160  1  0.507900  0.542000  0.209120  1
  C  C161  1  0.007400  0.443280  0.669460  1
  C  C162  1  0.507400  0.556720  0.330540  1
  C  C163  1  0.063400  0.495990  0.619680  1
  C  C164  1  0.563400  0.504010  0.380320  1
  C  C165  1  0.962000  0.516520  0.572970  1
  C  C166  1  0.462000  0.483480  0.427030  1
  C  C167  1  0.997500  0.568030  0.523510  1
  C  C168  1  0.497500  0.431970  0.476490  1
  C  C169  1  0.221600  0.595310  0.575880  1
  C  C170  1  0.721600  0.404690  0.424120  1
  C  C171  1  0.197000  0.535540  0.620150  1
  C  C172  1  0.697000  0.464460  0.379850  1
  C  C173  1  0.401400  0.767600  0.391220  1
  C  C174  1  0.901400  0.232400  0.608780  1
  C  C175  1  0.464100  0.806000  0.339040  1
  C  C176  1  0.964100  0.194000  0.660960  1
  C  C177  1  0.382600  0.826500  0.285300  1
  C  C178  1  0.882600  0.173500  0.714700  1
  C  C179  1  0.241300  0.797550  0.279220  1
  C  C180  1  0.741300  0.202450  0.720780  1
  C  C181  1  0.189900  0.757200  0.332750  1
  C  C182  1  0.689900  0.242800  0.667250  1
  C  C183  1  0.445100  0.872000  0.232000  1
  C  C184  1  0.945100  0.128000  0.768000  1
  C  C185  1  0.326600  0.935350  0.144140  1
  C  C186  1  0.826600  0.064650  0.855860  1
  C  C187  1  0.449500  0.980440  0.121090  1
  C  C188  1  0.949500  0.019560  0.878910  1
  C  C189  1  0.422400  0.044380  0.086630  1
  C  C190  1  0.922400  0.955620  0.913370  1
  C  C191  1  0.279000  0.068620  0.070810  1
  C  C192  1  0.779000  0.931380  0.929190  1
  C  C193  1  0.268200  0.133790  0.029010  1
  C  C194  1  0.768200  0.866210  0.970990  1
  C  C195  1  0.133600  0.158600  0.017900  1
  C  C196  1  0.633600  0.841400  0.982100  1
  C  C197  1  0.006900  0.117200  0.041370  1
  C  C198  1  0.506900  0.882800  0.958630  1
  C  C199  1  0.029400  0.056160  0.079350  1
  C  C200  1  0.529400  0.943840  0.920650  1
  C  C201  1  0.169900  0.025720  0.092950  1
  C  C202  1  0.669900  0.974280  0.907050  1
  C  C203  1  0.191400  0.957380  0.130940  1
  C  C204  1  0.691400  0.042620  0.869060  1
  C  C205  1  0.071900  0.903400  0.148220  1
  C  C206  1  0.571900  0.096600  0.851780  1
  C  C207  1  0.040800  0.829140  0.104600  1
  C  C208  1  0.540800  0.170860  0.895400  1
  C  C209  1  0.126400  0.798870  0.047480  1
  C  C210  1  0.626400  0.201130  0.952520  1
  C  C211  1  0.091900  0.729960  0.006000  1
  C  C212  1  0.591900  0.270040  0.994000  1
  C  C213  1  0.966500  0.679800  0.018130  1
  C  C214  1  0.466500  0.320200  0.981870  1
  C  C215  1  0.889400  0.702480  0.074330  1
  C  C216  1  0.389400  0.297520  0.925670  1
  C  C217  1  0.925400  0.774450  0.119650  1
  C  C218  1  0.425400  0.225550  0.880350  1
  C  C219  1  0.840700  0.801310  0.177860  1
  C  C220  1  0.340700  0.198690  0.822140  1
  C  C221  1  0.864500  0.872250  0.218900  1
  C  C222  1  0.364500  0.127750  0.781100  1
  C  C223  1  0.987400  0.922140  0.202650  1
  C  C224  1  0.487400  0.077860  0.797350  1
  C  C225  1  0.911900  0.029500  0.291150  1
  C  C226  1  0.411900  0.970500  0.708850  1
  C  C227  1  0.893440  0.989360  0.353290  1
  C  C228  1  0.393440  0.010640  0.646710  1
  C  C229  1  0.761400  0.990400  0.386480  1
  C  C230  1  0.261400  0.009600  0.613520  1
  C  C231  1  0.749500  0.951100  0.445080  1
  C  C232  1  0.249500  0.048900  0.554920  1
  C  C233  1  0.991400  0.911600  0.438720  1
  C  C234  1  0.491400  0.088400  0.561280  1
  C  C235  1  0.009900  0.950000  0.380140  1
  C  C236  1  0.509900  0.050000  0.619860  1
  N  N237  1  0.843200  0.813660  0.644950  1
  N  N238  1  0.343200  0.186340  0.355050  1
  N  N239  1  0.128100  0.603300  0.526270  1
  N  N240  1  0.628100  0.396700  0.473730  1
  N  N241  1  0.264800  0.741200  0.386540  1
  N  N242  1  0.764800  0.258800  0.613460  1
  N  N243  1  0.863870  0.914800  0.470340  1
  N  N244  1  0.363870  0.085200  0.529660  1
  Cl  Cl245  1  0.898100  0.988530  0.613190  1
  Cl  Cl246  1  0.398100  0.011470  0.386810  1
  Cl  Cl247  1  0.764700  0.739240  0.494210  1
  Cl  Cl248  1  0.264700  0.260760  0.505790  1
  Cl  Cl249  1  0.233700  0.785920  0.540330  1
  Cl  Cl250  1  0.733700  0.214080  0.459670  1
  Cl  Cl251  1  0.120200  0.574760  0.374970  1
  Cl  Cl252  1  0.620200  0.425240  0.625030  1
  O  O253  1  0.960600  0.649850  0.839200  1
  O  O254  1  0.460600  0.350150  0.160800  1
  O  O255  1  0.009500  0.494060  0.730660  1
  O  O256  1  0.509500  0.505940  0.269340  1
  O  O257  1  0.352000  0.865060  0.177090  1
  O  O258  1  0.852000  0.134940  0.822910  1
  O  O259  1  0.015000  0.995880  0.245070  1
  O  O260  1  0.515000  0.004120  0.754930  1
  O  O261  1  0.801700  0.692400  0.337500  1
  O  O262  1  0.301700  0.307600  0.662500  1
  O  O263  1  0.478700  0.779100  0.651000  1
  O  O264  1  0.978700  0.220900  0.349000  1
