# generated using pymatgen
data_H84Pt3C66N23O64
_symmetry_space_group_name_H-M   'P 1'
_cell_length_a   13.88360000
_cell_length_b   18.67900000
_cell_length_c   19.28300000
_cell_angle_alpha   92.90100000
_cell_angle_beta   94.20500000
_cell_angle_gamma   100.97100000
_symmetry_Int_Tables_number   1
_chemical_formula_structural   H84Pt3C66N23O64
_chemical_formula_sum   'H168 Pt6 C132 N46 O128'
_cell_volume   4885.42710330
_cell_formula_units_Z   2
loop_
 _symmetry_equiv_pos_site_id
 _symmetry_equiv_pos_as_xyz
  1  'x, y, z'
loop_
 _atom_site_type_symbol
 _atom_site_label
 _atom_site_symmetry_multiplicity
 _atom_site_fract_x
 _atom_site_fract_y
 _atom_site_fract_z
 _atom_site_occupancy
  H  H1  1  0.748200  0.769500  0.893700  1
  H  H2  1  0.251800  0.230500  0.106300  1
  H  H3  1  0.808600  0.665700  0.862500  1
  H  H4  1  0.191400  0.334300  0.137500  1
  H  H5  1  0.988700  0.786700  0.739600  1
  H  H6  1  0.011300  0.213300  0.260400  1
  H  H7  1  0.924500  0.887100  0.773300  1
  H  H8  1  0.075500  0.112900  0.226700  1
  H  H9  1  0.142100  0.674600  0.851900  1
  H  H10  1  0.857900  0.325400  0.148100  1
  H  H11  1  0.063800  0.633500  0.900700  1
  H  H12  1  0.936200  0.366500  0.099300  1
  H  H13  1  0.049300  0.709200  0.870100  1
  H  H14  1  0.950700  0.290800  0.129900  1
  H  H15  1  0.182200  0.566700  0.807600  1
  H  H16  1  0.817800  0.433300  0.192400  1
  H  H17  1  0.131400  0.485200  0.779200  1
  H  H18  1  0.868600  0.514800  0.220800  1
  H  H19  1  0.106900  0.517200  0.853000  1
  H  H20  1  0.893100  0.482800  0.147000  1
  H  H21  1  0.866900  0.458700  0.605100  1
  H  H22  1  0.133100  0.541300  0.394900  1
  H  H23  1  0.836500  0.532500  0.580400  1
  H  H24  1  0.163500  0.467500  0.419600  1
  H  H25  1  0.770600  0.483000  0.631500  1
  H  H26  1  0.229400  0.517000  0.368500  1
  H  H27  1  0.773000  0.674400  0.704000  1
  H  H28  1  0.227000  0.325600  0.296000  1
  H  H29  1  0.725800  0.591500  0.678400  1
  H  H30  1  0.274200  0.408500  0.321600  1
  H  H31  1  0.792200  0.642400  0.628800  1
  H  H32  1  0.207800  0.357600  0.371200  1
  H  H33  1  0.119100  0.367800  0.576700  1
  H  H34  1  0.880900  0.632200  0.423300  1
  H  H35  1  0.104500  0.481600  0.621700  1
  H  H36  1  0.895500  0.518400  0.378300  1
  H  H37  1  0.906500  0.384300  0.747000  1
  H  H38  1  0.093500  0.615700  0.253000  1
  H  H39  1  0.925700  0.272000  0.699900  1
  H  H40  1  0.074300  0.728000  0.300100  1
  H  H41  1  0.039400  0.278400  0.446300  1
  H  H42  1  0.960600  0.721600  0.553700  1
  H  H43  1  0.944000  0.327100  0.363000  1
  H  H44  1  0.056000  0.672900  0.637000  1
  H  H45  1  0.704600  0.254500  0.466300  1
  H  H46  1  0.295400  0.745500  0.533700  1
  H  H47  1  0.805800  0.208400  0.547000  1
  H  H48  1  0.194200  0.791600  0.453000  1
  H  H49  1  0.782700  0.209400  0.306300  1
  H  H50  1  0.217300  0.790600  0.693700  1
  H  H51  1  0.787600  0.234400  0.228300  1
  H  H52  1  0.212400  0.765600  0.771700  1
  H  H53  1  0.686100  0.191500  0.252900  1
  H  H54  1  0.313900  0.808500  0.747100  1
  H  H55  1  0.588400  0.328800  0.147600  1
  H  H56  1  0.411600  0.671200  0.852400  1
  H  H57  1  0.583400  0.249900  0.177400  1
  H  H58  1  0.416600  0.750100  0.822600  1
  H  H59  1  0.682600  0.290900  0.148000  1
  H  H60  1  0.317400  0.709100  0.852000  1
  H  H61  1  0.583400  0.511600  0.326400  1
  H  H62  1  0.416600  0.488400  0.673600  1
  H  H63  1  0.694700  0.543300  0.356600  1
  H  H64  1  0.305300  0.456700  0.643400  1
  H  H65  1  0.618300  0.500000  0.405300  1
  H  H66  1  0.381700  0.500000  0.594700  1
  H  H67  1  0.825600  0.421000  0.466100  1
  H  H68  1  0.174400  0.579000  0.533900  1
  H  H69  1  0.713800  0.409500  0.485500  1
  H  H70  1  0.286200  0.590500  0.514500  1
  H  H71  1  0.763700  0.484000  0.454200  1
  H  H72  1  0.236300  0.516000  0.545800  1
  H  H73  1  0.683100  0.503100  0.178800  1
  H  H74  1  0.316900  0.496900  0.821200  1
  H  H75  1  0.585300  0.572200  0.121200  1
  H  H76  1  0.414700  0.427800  0.878800  1
  H  H77  1  0.346100  0.455200  0.186100  1
  H  H78  1  0.653900  0.544800  0.813900  1
  H  H79  1  0.437500  0.379900  0.241100  1
  H  H80  1  0.562500  0.620100  0.758900  1
  H  H81  1  0.547000  0.662300  0.227100  1
  H  H82  1  0.453000  0.337700  0.772900  1
  H  H83  1  0.572400  0.705400  0.342100  1
  H  H84  1  0.427600  0.294600  0.657900  1
  H  H85  1  0.280900  0.684000  0.349600  1
  H  H86  1  0.719100  0.316000  0.650400  1
  H  H87  1  0.260200  0.634000  0.236500  1
  H  H88  1  0.739800  0.366000  0.763500  1
  H  H89  1  0.468700  0.895700  0.397100  1
  H  H90  1  0.531300  0.104300  0.602900  1
  H  H91  1  0.356800  0.867800  0.413100  1
  H  H92  1  0.643200  0.132200  0.586900  1
  H  H93  1  0.402900  0.826300  0.353000  1
  H  H94  1  0.597100  0.173700  0.647000  1
  H  H95  1  0.486700  0.918500  0.591200  1
  H  H96  1  0.513300  0.081500  0.408800  1
  H  H97  1  0.419100  0.922900  0.521200  1
  H  H98  1  0.580900  0.077100  0.478800  1
  H  H99  1  0.536400  0.943100  0.521600  1
  H  H100  1  0.463600  0.056900  0.478400  1
  H  H101  1  0.607700  0.640600  0.575600  1
  H  H102  1  0.392300  0.359400  0.424400  1
  H  H103  1  0.510800  0.631400  0.617000  1
  H  H104  1  0.489200  0.368600  0.383000  1
  H  H105  1  0.601100  0.697600  0.639000  1
  H  H106  1  0.398900  0.302400  0.361000  1
  H  H107  1  0.459200  0.575300  0.499800  1
  H  H108  1  0.540800  0.424700  0.500200  1
  H  H109  1  0.553100  0.600500  0.457100  1
  H  H110  1  0.446900  0.399500  0.542900  1
  H  H111  1  0.444600  0.590300  0.419100  1
  H  H112  1  0.555400  0.409700  0.580900  1
  H  H113  1  0.563000  0.826500  0.803900  1
  H  H114  1  0.437000  0.173500  0.196100  1
  H  H115  1  0.474600  0.772700  0.701800  1
  H  H116  1  0.525400  0.227300  0.298200  1
  H  H117  1  0.685600  0.884500  0.594000  1
  H  H118  1  0.314400  0.115500  0.406000  1
  H  H119  1  0.767500  0.936000  0.698700  1
  H  H120  1  0.232500  0.064000  0.301300  1
  H  H121  1  0.167400  0.197800  0.658400  1
  H  H122  1  0.832600  0.802200  0.341600  1
  H  H123  1  0.083700  0.189900  0.703500  1
  H  H124  1  0.916300  0.810100  0.296500  1
  H  H125  1  0.030100  0.071800  0.672700  1
  H  H126  1  0.969900  0.928200  0.327300  1
  H  H127  1  0.147700  0.079800  0.677500  1
  H  H128  1  0.852300  0.920200  0.322500  1
  H  H129  1  0.150700  0.089600  0.558600  1
  H  H130  1  0.849300  0.910400  0.441400  1
  H  H131  1  0.067000  0.019800  0.568900  1
  H  H132  1  0.933000  0.980200  0.431100  1
  H  H133  1  0.949100  0.080700  0.541700  1
  H  H134  1  0.050900  0.919300  0.458300  1
  H  H135  1  0.022800  0.111100  0.493100  1
  H  H136  1  0.977200  0.888900  0.506900  1
  H  H137  1  0.417000  0.571600  0.998400  1
  H  H138  1  0.583000  0.428400  0.001600  1
  H  H139  1  0.337200  0.511600  0.016400  1
  H  H140  1  0.662800  0.488400  0.983600  1
  H  H141  1  0.217400  0.571600  0.992100  1
  H  H142  1  0.782600  0.428400  0.007900  1
  H  H143  1  0.290200  0.594200  0.932600  1
  H  H144  1  0.709800  0.405800  0.067400  1
  H  H145  1  0.243600  0.696900  0.992500  1
  H  H146  1  0.756400  0.303100  0.007500  1
  H  H147  1  0.360800  0.702900  0.993800  1
  H  H148  1  0.639200  0.297100  0.006200  1
  H  H149  1  0.244400  0.667900  0.103000  1
  H  H150  1  0.755600  0.332100  0.897000  1
  H  H151  1  0.338600  0.722200  0.106000  1
  H  H152  1  0.661400  0.277800  0.894000  1
  H  H153  1  0.683300  0.030100  0.830900  1
  H  H154  1  0.316700  0.969900  0.169100  1
  H  H155  1  0.629600  0.988900  0.885300  1
  H  H156  1  0.370400  0.011100  0.114700  1
  H  H157  1  0.800400  0.093000  0.904300  1
  H  H158  1  0.199600  0.907000  0.095700  1
  H  H159  1  0.709400  0.083700  0.951700  1
  H  H160  1  0.290600  0.916300  0.048300  1
  H  H161  1  0.758400  0.998300  0.008500  1
  H  H162  1  0.241600  0.001700  0.991500  1
  H  H163  1  0.858700  0.054300  0.999600  1
  H  H164  1  0.141300  0.945700  0.000400  1
  H  H165  1  0.843000  0.923500  0.969200  1
  H  H166  1  0.157000  0.076500  0.030800  1
  H  H167  1  0.905800  0.978000  0.929700  1
  H  H168  1  0.094200  0.022000  0.070300  1
  Pt  Pt169  1  0.017421  0.210378  0.583533  1
  Pt  Pt170  1  0.982579  0.789622  0.416467  1
  Pt  Pt171  1  0.381190  0.600050  0.120990  1
  Pt  Pt172  1  0.618810  0.399950  0.879010  1
  Pt  Pt173  1  0.758540  0.921000  0.850580  1
  Pt  Pt174  1  0.241460  0.079000  0.149420  1
  C  C175  1  0.796500  0.772600  0.861000  1
  C  C176  1  0.203500  0.227400  0.139000  1
  C  C177  1  0.832200  0.710400  0.842300  1
  C  C178  1  0.167800  0.289600  0.157700  1
  C  C179  1  0.901400  0.713500  0.794700  1
  C  C180  1  0.098600  0.286500  0.205300  1
  C  C181  1  0.937700  0.781500  0.770300  1
  C  C182  1  0.062300  0.218500  0.229700  1
  C  C183  1  0.899400  0.841200  0.790700  1
  C  C184  1  0.100600  0.158800  0.209300  1
  C  C185  1  0.931700  0.646500  0.766100  1
  C  C186  1  0.068300  0.353500  0.233900  1
  C  C187  1  0.013100  0.622200  0.796900  1
  C  C188  1  0.986900  0.377800  0.203100  1
  C  C189  1  0.037400  0.557900  0.770200  1
  C  C190  1  0.962600  0.442100  0.229800  1
  C  C191  1  0.980200  0.518400  0.713100  1
  C  C192  1  0.019800  0.481600  0.286900  1
  C  C193  1  0.899000  0.542800  0.681400  1
  C  C194  1  0.101000  0.457200  0.318600  1
  C  C195  1  0.874000  0.606700  0.708600  1
  C  C196  1  0.126000  0.393300  0.291400  1
  C  C197  1  0.072300  0.663500  0.860500  1
  C  C198  1  0.927700  0.336500  0.139500  1
  C  C199  1  0.121900  0.529200  0.805600  1
  C  C200  1  0.878100  0.470800  0.194400  1
  C  C201  1  0.837900  0.500500  0.619100  1
  C  C202  1  0.162100  0.499500  0.380900  1
  C  C203  1  0.783300  0.630900  0.677200  1
  C  C204  1  0.216700  0.369100  0.322800  1
  C  C205  1  0.074000  0.371200  0.611000  1
  C  C206  1  0.926000  0.628800  0.389000  1
  C  C207  1  0.065300  0.439200  0.637600  1
  C  C208  1  0.934700  0.560800  0.362400  1
  C  C209  1  0.000000  0.446500  0.687200  1
  C  C210  1  0.000000  0.553500  0.312800  1
  C  C211  1  0.949400  0.382200  0.711000  1
  C  C212  1  0.050600  0.617800  0.289000  1
  C  C213  1  0.961000  0.315300  0.682800  1
  C  C214  1  0.039000  0.684700  0.317200  1
  C  C215  1  0.970900  0.274400  0.450700  1
  C  C216  1  0.029100  0.725600  0.549300  1
  C  C217  1  0.914200  0.303500  0.400700  1
  C  C218  1  0.085800  0.696500  0.599300  1
  C  C219  1  0.813700  0.297600  0.406400  1
  C  C220  1  0.186300  0.702400  0.593600  1
  C  C221  1  0.773300  0.260800  0.461500  1
  C  C222  1  0.226700  0.739200  0.538500  1
  C  C223  1  0.834100  0.233400  0.509500  1
  C  C224  1  0.165900  0.766600  0.490500  1
  C  C225  1  0.751600  0.332200  0.356900  1
  C  C226  1  0.248400  0.667800  0.643100  1
  C  C227  1  0.720000  0.299000  0.290400  1
  C  C228  1  0.280000  0.701000  0.709600  1
  C  C229  1  0.661100  0.333000  0.245000  1
  C  C230  1  0.338900  0.667000  0.755000  1
  C  C231  1  0.635100  0.398400  0.267700  1
  C  C232  1  0.364900  0.601600  0.732300  1
  C  C233  1  0.667100  0.432000  0.334200  1
  C  C234  1  0.332900  0.568000  0.665800  1
  C  C235  1  0.725400  0.398000  0.379600  1
  C  C236  1  0.274600  0.602000  0.620400  1
  C  C237  1  0.746400  0.227300  0.267500  1
  C  C238  1  0.253600  0.772700  0.732500  1
  C  C239  1  0.625800  0.297500  0.173200  1
  C  C240  1  0.374200  0.702500  0.826800  1
  C  C241  1  0.638400  0.503000  0.357700  1
  C  C242  1  0.361600  0.497000  0.642300  1
  C  C243  1  0.760200  0.431100  0.452800  1
  C  C244  1  0.239800  0.568900  0.547200  1
  C  C245  1  0.572200  0.436400  0.221100  1
  C  C246  1  0.427800  0.563600  0.778900  1
  C  C247  1  0.614000  0.492900  0.182100  1
  C  C248  1  0.386000  0.507100  0.817900  1
  C  C249  1  0.555400  0.534300  0.148300  1
  C  C250  1  0.444600  0.465700  0.851700  1
  C  C251  1  0.415700  0.465700  0.185500  1
  C  C252  1  0.584300  0.534300  0.814500  1
  C  C253  1  0.470000  0.421000  0.219200  1
  C  C254  1  0.530000  0.579000  0.780800  1
  C  C255  1  0.491800  0.665500  0.252500  1
  C  C256  1  0.508200  0.334500  0.747500  1
  C  C257  1  0.507000  0.692300  0.320800  1
  C  C258  1  0.493000  0.307700  0.679200  1
  C  C259  1  0.429600  0.700600  0.359300  1
  C  C260  1  0.570400  0.299400  0.640700  1
  C  C261  1  0.337000  0.679000  0.325800  1
  C  C262  1  0.663000  0.321000  0.674200  1
  C  C263  1  0.325100  0.650100  0.257700  1
  C  C264  1  0.674900  0.349900  0.742300  1
  C  C265  1  0.451400  0.729800  0.433700  1
  C  C266  1  0.548600  0.270200  0.566300  1
  C  C267  1  0.449600  0.802900  0.451500  1
  C  C268  1  0.550400  0.197100  0.548500  1
  C  C269  1  0.483400  0.831800  0.519500  1
  C  C270  1  0.516600  0.168200  0.480500  1
  C  C271  1  0.520500  0.787900  0.567100  1
  C  C272  1  0.479500  0.212100  0.432900  1
  C  C273  1  0.519800  0.714000  0.549700  1
  C  C274  1  0.480200  0.286000  0.450300  1
  C  C275  1  0.483400  0.684600  0.482500  1
  C  C276  1  0.516600  0.315400  0.517500  1
  C  C277  1  0.416600  0.852600  0.399100  1
  C  C278  1  0.583400  0.147400  0.600900  1
  C  C279  1  0.481200  0.911200  0.540200  1
  C  C280  1  0.518800  0.088800  0.459800  1
  C  C281  1  0.563700  0.666667  0.599700  1
  C  C282  1  0.436300  0.333333  0.400300  1
  C  C283  1  0.485200  0.605800  0.462900  1
  C  C284  1  0.514800  0.394200  0.537100  1
  C  C285  1  0.588400  0.838000  0.760500  1
  C  C286  1  0.411600  0.162000  0.239500  1
  C  C287  1  0.535200  0.805900  0.699700  1
  C  C288  1  0.464800  0.194100  0.300300  1
  C  C289  1  0.570200  0.822000  0.635400  1
  C  C290  1  0.429800  0.178000  0.364600  1
  C  C291  1  0.658600  0.871400  0.636500  1
  C  C292  1  0.341400  0.128600  0.363500  1
  C  C293  1  0.707600  0.901600  0.699200  1
  C  C294  1  0.292400  0.098400  0.300800  1
  C  C295  1  0.091000  0.095400  0.652700  1
  C  C296  1  0.909000  0.904600  0.347300  1
  C  C297  1  0.085600  0.073600  0.576600  1
  C  C298  1  0.914400  0.926400  0.423400  1
  C  C299  1  0.284300  0.597100  0.983500  1
  C  C300  1  0.715700  0.402900  0.016500  1
  C  C301  1  0.299500  0.674900  0.009900  1
  C  C302  1  0.700500  0.325100  0.990100  1
  C  C303  1  0.752300  0.056800  0.926200  1
  C  C304  1  0.247700  0.943200  0.073800  1
  C  C305  1  0.803500  0.019100  0.974100  1
  C  C306  1  0.196500  0.980900  0.025900  1
  N  N307  1  0.828100  0.836800  0.834200  1
  N  N308  1  0.171900  0.163200  0.165800  1
  N  N309  1  0.020600  0.309500  0.632000  1
  N  N310  1  0.979400  0.690500  0.368000  1
  N  N311  1  0.931600  0.241080  0.504760  1
  N  N312  1  0.068400  0.758920  0.495240  1
  N  N313  1  0.457500  0.523000  0.152200  1
  N  N314  1  0.542500  0.477000  0.847800  1
  N  N315  1  0.400200  0.643700  0.220600  1
  N  N316  1  0.599800  0.356300  0.779400  1
  N  N317  1  0.674100  0.884400  0.760300  1
  N  N318  1  0.325900  0.115600  0.239700  1
  N  N319  1  0.102500  0.176300  0.660700  1
  N  N320  1  0.897500  0.823700  0.339300  1
  N  N321  1  0.010900  0.108400  0.539300  1
  N  N322  1  0.989100  0.891600  0.460700  1
  N  N323  1  0.358900  0.561500  0.019300  1
  N  N324  1  0.641100  0.438500  0.980700  1
  N  N325  1  0.306600  0.676700  0.087800  1
  N  N326  1  0.693400  0.323300  0.912200  1
  N  N327  1  0.691000  0.005900  0.870700  1
  N  N328  1  0.309000  0.994100  0.129300  1
  N  N329  1  0.842100  0.960500  0.939700  1
  N  N330  1  0.157900  0.039500  0.060300  1
  N  N331  1  0.257100  0.969100  0.575900  1
  N  N332  1  0.742900  0.030900  0.424100  1
  N  N333  1  0.405600  0.363300  0.029300  1
  N  N334  1  0.594400  0.636700  0.970700  1
  N  N335  1  0.022100  0.797000  0.996000  1
  N  N336  1  0.977900  0.203000  0.004000  1
  N  N337  1  0.807500  0.647000  0.203800  1
  N  N338  1  0.192500  0.353000  0.796200  1
  N  N339  1  0.221400  0.873600  0.285400  1
  N  N340  1  0.778600  0.126400  0.714600  1
  N  N341  1  0.970300  0.939500  0.144600  1
  N  N342  1  0.029700  0.060500  0.855400  1
  N  N343  1  0.758700  0.743700  0.500000  1
  N  N344  1  0.241300  0.256300  0.500000  1
  N  N345  1  0.245000  0.276300  0.521400  1
  N  N346  1  0.755000  0.723700  0.478600  1
  N  N347  1  0.135000  0.504000  0.123300  1
  N  N348  1  0.865000  0.496000  0.876700  1
  N  N349  1  0.153000  0.497000  0.122600  1
  N  N350  1  0.847000  0.503000  0.877400  1
  N  N351  1  0.136900  0.926800  0.250500  1
  N  N352  1  0.863100  0.073200  0.749500  1
  O  O353  1  0.189500  0.917500  0.556000  1
  O  O354  1  0.810500  0.082500  0.444000  1
  O  O355  1  0.285800  0.980700  0.639500  1
  O  O356  1  0.714200  0.019300  0.360500  1
  O  O357  1  0.296100  0.012900  0.534600  1
  O  O358  1  0.703900  0.987100  0.465400  1
  O  O359  1  0.319300  0.332000  0.030100  1
  O  O360  1  0.680700  0.668000  0.969900  1
  O  O361  1  0.426300  0.425400  0.008100  1
  O  O362  1  0.573700  0.574600  0.991900  1
  O  O363  1  0.474400  0.334600  0.049800  1
  O  O364  1  0.525600  0.665400  0.950200  1
  O  O365  1  0.740400  0.684000  0.462900  1
  O  O366  1  0.259600  0.316000  0.537100  1
  O  O367  1  0.734900  0.799200  0.476900  1
  O  O368  1  0.265100  0.200800  0.523100  1
  O  O369  1  0.099200  0.782200  0.007200  1
  O  O370  1  0.900800  0.217800  0.992800  1
  O  O371  1  0.954000  0.757100  0.027600  1
  O  O372  1  0.046000  0.242900  0.972400  1
  O  O373  1  0.008400  0.846900  0.959000  1
  O  O374  1  0.991600  0.153100  0.041000  1
  O  O375  1  0.883300  0.650000  0.233000  1
  O  O376  1  0.116700  0.350000  0.767000  1
  O  O377  1  0.800000  0.628300  0.142600  1
  O  O378  1  0.200000  0.371700  0.857400  1
  O  O379  1  0.743400  0.675200  0.229000  1
  O  O380  1  0.256600  0.324800  0.771000  1
  O  O381  1  0.176100  0.858000  0.329300  1
  O  O382  1  0.823900  0.142000  0.670700  1
  O  O383  1  0.265400  0.939400  0.292000  1
  O  O384  1  0.734600  0.060600  0.708000  1
  O  O385  1  0.245600  0.828400  0.242600  1
  O  O386  1  0.754400  0.171600  0.757400  1
  O  O387  1  0.972500  0.991300  0.120900  1
  O  O388  1  0.027500  0.008700  0.879100  1
  O  O389  1  0.885400  0.902900  0.161300  1
  O  O390  1  0.114600  0.097100  0.838700  1
  O  O391  1  0.044800  0.934600  0.183100  1
  O  O392  1  0.955200  0.065400  0.816900  1
  O  O393  1  0.086800  0.893300  0.681900  1
  O  O394  1  0.913200  0.106700  0.318100  1
  O  O395  1  0.418800  0.189200  0.062200  1
  O  O396  1  0.581200  0.810800  0.937800  1
  O  O397  1  0.948200  0.778700  0.202200  1
  O  O398  1  0.051800  0.221300  0.797800  1
  O  O399  1  0.965000  0.618700  0.115000  1
  O  O400  1  0.035000  0.381300  0.885000  1
  O  O401  1  0.426700  0.816700  0.152100  1
  O  O402  1  0.573300  0.183300  0.847900  1
  O  O403  1  0.660600  0.723000  0.137100  1
  O  O404  1  0.339400  0.277000  0.862900  1
  O  O405  1  0.832000  0.064100  0.171600  1
  O  O406  1  0.168000  0.935900  0.828400  1
  O  O407  1  0.718300  0.851600  0.044600  1
  O  O408  1  0.281700  0.148400  0.955400  1
  O  O409  1  0.742000  0.172200  0.075100  1
  O  O410  1  0.258000  0.827800  0.924900  1
  O  O411  1  0.908200  0.858500  0.043500  1
  O  O412  1  0.091800  0.141500  0.956500  1
  O  O413  1  0.804100  0.747700  0.556700  1
  O  O414  1  0.195900  0.252300  0.443300  1
  O  O415  1  0.277400  0.290200  0.579500  1
  O  O416  1  0.722600  0.709800  0.420500  1
  O  O417  1  0.212100  0.327700  0.492100  1
  O  O418  1  0.787900  0.672300  0.507900  1
  O  O419  1  0.244000  0.217400  0.487000  1
  O  O420  1  0.756000  0.782600  0.513000  1
  O  O421  1  0.195300  0.476300  0.151100  1
  O  O422  1  0.804700  0.523700  0.848900  1
  O  O423  1  0.127100  0.568900  0.141100  1
  O  O424  1  0.872900  0.431100  0.858900  1
  O  O425  1  0.076100  0.476100  0.071100  1
  O  O426  1  0.923900  0.523900  0.928900  1
  O  O427  1  0.190000  0.451800  0.097400  1
  O  O428  1  0.810000  0.548200  0.902600  1
  O  O429  1  0.186700  0.530300  0.181400  1
  O  O430  1  0.813300  0.469700  0.818600  1
  O  O431  1  0.076300  0.515400  0.095400  1
  O  O432  1  0.923700  0.484600  0.904600  1
  O  O433  1  0.088500  0.972800  0.253800  1
  O  O434  1  0.911500  0.027200  0.746200  1
  O  O435  1  0.135000  0.893400  0.189900  1
  O  O436  1  0.865000  0.106600  0.810100  1
  O  O437  1  0.180700  0.899600  0.300000  1
  O  O438  1  0.819300  0.100400  0.700000  1
  O  O439  1  0.163000  0.990400  0.416800  1
  O  O440  1  0.837000  0.009600  0.583200  1
  O  O441  1  0.086600  0.114400  0.401600  1
  O  O442  1  0.913400  0.885600  0.598400  1
  O  O443  1  0.334800  0.147200  0.636100  1
  O  O444  1  0.665200  0.852800  0.363900  1
  O  O445  1  0.778100  0.577600  0.066200  1
  O  O446  1  0.221900  0.422400  0.933800  1
  O  O447  1  0.469400  0.982400  0.719600  1
  O  O448  1  0.530600  0.017600  0.280400  1
  O  O449  1  0.380200  0.169000  0.778600  1
  O  O450  1  0.619800  0.831000  0.221400  1
  O  O451  1  0.365300  0.916300  0.240800  1
  O  O452  1  0.634700  0.083700  0.759200  1
  O  O453  1  0.734600  0.704300  0.314900  1
  O  O454  1  0.265400  0.295700  0.685100  1
  O  O455  1  0.692600  0.942900  0.147800  1
  O  O456  1  0.307400  0.057100  0.852200  1
  O  O457  1  0.582700  0.132700  0.034000  1
  O  O458  1  0.417300  0.867300  0.966000  1
  O  O459  1  0.963600  0.585600  0.030600  1
  O  O460  1  0.036400  0.414400  0.969400  1
  O  O461  1  0.147500  0.740300  0.173100  1
  O  O462  1  0.852500  0.259700  0.826900  1
  O  O463  1  0.123000  0.704000  0.131700  1
  O  O464  1  0.877000  0.296000  0.868300  1
  O  O465  1  0.569000  0.046200  0.148600  1
  O  O466  1  0.431000  0.953800  0.851400  1
  O  O467  1  0.479600  0.012000  0.055200  1
  O  O468  1  0.520400  0.988000  0.944800  1
  O  O469  1  0.874300  0.036300  0.194000  1
  O  O470  1  0.125700  0.963700  0.806000  1
  O  O471  1  0.766000  0.835400  0.035900  1
  O  O472  1  0.234000  0.164600  0.964100  1
  O  O473  1  0.545400  0.136900  0.980500  1
  O  O474  1  0.454600  0.863100  0.019500  1
  O  O475  1  0.113900  0.849700  0.904300  1
  O  O476  1  0.886100  0.150300  0.095700  1
  O  O477  1  0.652000  0.976700  0.161400  1
  O  O478  1  0.348000  0.023300  0.838600  1
  O  O479  1  0.218000  0.837800  0.908600  1
  O  O480  1  0.782000  0.162200  0.091400  1
