# generated using pymatgen
data_NaFeH36C36(N4O27)2
_symmetry_space_group_name_H-M   'P 1'
_cell_length_a   13.78500000
_cell_length_b   13.78500000
_cell_length_c   16.24400000
_cell_angle_alpha   90.00000000
_cell_angle_beta   90.00000000
_cell_angle_gamma   120.00000000
_symmetry_Int_Tables_number   1
_chemical_formula_structural   NaFeH36C36(N4O27)2
_chemical_formula_sum   'Na2 Fe2 H72 C72 N16 O108'
_cell_volume   2673.23509109
_cell_formula_units_Z   2
loop_
 _symmetry_equiv_pos_site_id
 _symmetry_equiv_pos_as_xyz
  1  'x, y, z'
loop_
 _atom_site_type_symbol
 _atom_site_label
 _atom_site_symmetry_multiplicity
 _atom_site_fract_x
 _atom_site_fract_y
 _atom_site_fract_z
 _atom_site_occupancy
  Na  Na1  1  0.000000  0.000000  0.000000  1
  Na  Na2  1  0.000000  0.000000  0.500000  1
  Fe  Fe3  1  0.333333  0.666667  0.750000  1
  Fe  Fe4  1  0.666667  0.333333  0.250000  1
  H  H5  1  0.374000  0.827000  0.939000  1.0
  H  H6  1  0.453000  0.626000  0.939000  1.0
  H  H7  1  0.173000  0.547000  0.939000  1.0
  H  H8  1  0.626000  0.173000  0.439000  1.0
  H  H9  1  0.547000  0.374000  0.439000  1.0
  H  H10  1  0.827000  0.453000  0.439000  1.0
  H  H11  1  0.626000  0.173000  0.061000  1.0
  H  H12  1  0.547000  0.374000  0.061000  1.0
  H  H13  1  0.827000  0.453000  0.061000  1.0
  H  H14  1  0.374000  0.827000  0.561000  1.0
  H  H15  1  0.453000  0.626000  0.561000  1.0
  H  H16  1  0.173000  0.547000  0.561000  1.0
  H  H17  1  0.355000  0.096000  0.821000  1.0
  H  H18  1  0.741000  0.645000  0.821000  1.0
  H  H19  1  0.904000  0.259000  0.821000  1.0
  H  H20  1  0.645000  0.904000  0.321000  1.0
  H  H21  1  0.259000  0.355000  0.321000  1.0
  H  H22  1  0.096000  0.741000  0.321000  1.0
  H  H23  1  0.645000  0.904000  0.179000  1.0
  H  H24  1  0.259000  0.355000  0.179000  1.0
  H  H25  1  0.096000  0.741000  0.179000  1.0
  H  H26  1  0.355000  0.096000  0.679000  1.0
  H  H27  1  0.741000  0.645000  0.679000  1.0
  H  H28  1  0.904000  0.259000  0.679000  1.0
  H  H29  1  0.255000  0.812000  0.065000  1.0
  H  H30  1  0.557000  0.745000  0.065000  1.0
  H  H31  1  0.188000  0.443000  0.065000  1.0
  H  H32  1  0.745000  0.188000  0.565000  1.0
  H  H33  1  0.443000  0.255000  0.565000  1.0
  H  H34  1  0.812000  0.557000  0.565000  1.0
  H  H35  1  0.745000  0.188000  0.935000  1.0
  H  H36  1  0.443000  0.255000  0.935000  1.0
  H  H37  1  0.812000  0.557000  0.935000  1.0
  H  H38  1  0.255000  0.812000  0.435000  1.0
  H  H39  1  0.557000  0.745000  0.435000  1.0
  H  H40  1  0.188000  0.443000  0.435000  1.0
  H  H41  1  0.379000  0.924000  0.087000  1.0
  H  H42  1  0.545000  0.621000  0.087000  1.0
  H  H43  1  0.076000  0.455000  0.087000  1.0
  H  H44  1  0.621000  0.076000  0.587000  1.0
  H  H45  1  0.455000  0.379000  0.587000  1.0
  H  H46  1  0.924000  0.545000  0.587000  1.0
  H  H47  1  0.621000  0.076000  0.913000  1.0
  H  H48  1  0.455000  0.379000  0.913000  1.0
  H  H49  1  0.924000  0.545000  0.913000  1.0
  H  H50  1  0.379000  0.924000  0.413000  1.0
  H  H51  1  0.545000  0.621000  0.413000  1.0
  H  H52  1  0.076000  0.455000  0.413000  1.0
  H  H53  1  0.473000  0.819000  0.083000  1.0
  H  H54  1  0.346000  0.527000  0.083000  1.0
  H  H55  1  0.181000  0.654000  0.083000  1.0
  H  H56  1  0.527000  0.181000  0.583000  1.0
  H  H57  1  0.654000  0.473000  0.583000  1.0
  H  H58  1  0.819000  0.346000  0.583000  1.0
  H  H59  1  0.527000  0.181000  0.917000  1.0
  H  H60  1  0.654000  0.473000  0.917000  1.0
  H  H61  1  0.819000  0.346000  0.917000  1.0
  H  H62  1  0.473000  0.819000  0.417000  1.0
  H  H63  1  0.346000  0.527000  0.417000  1.0
  H  H64  1  0.181000  0.654000  0.417000  1.0
  H  H65  1  0.375000  0.769000  0.150000  1.0
  H  H66  1  0.394000  0.625000  0.150000  1.0
  H  H67  1  0.231000  0.606000  0.150000  1.0
  H  H68  1  0.625000  0.231000  0.650000  1.0
  H  H69  1  0.606000  0.375000  0.650000  1.0
  H  H70  1  0.769000  0.394000  0.650000  1.0
  H  H71  1  0.625000  0.231000  0.850000  1.0
  H  H72  1  0.606000  0.375000  0.850000  1.0
  H  H73  1  0.769000  0.394000  0.850000  1.0
  H  H74  1  0.375000  0.769000  0.350000  1.0
  H  H75  1  0.394000  0.625000  0.350000  1.0
  H  H76  1  0.231000  0.606000  0.350000  1.0
  C  C77  1  0.382500  0.881900  0.794200  1.0
  C  C78  1  0.499400  0.617500  0.794200  1.0
  C  C79  1  0.118100  0.500600  0.794200  1.0
  C  C80  1  0.617500  0.118100  0.294200  1.0
  C  C81  1  0.500600  0.382500  0.294200  1.0
  C  C82  1  0.881900  0.499400  0.294200  1.0
  C  C83  1  0.617500  0.118100  0.205800  1.0
  C  C84  1  0.500600  0.382500  0.205800  1.0
  C  C85  1  0.881900  0.499400  0.205800  1.0
  C  C86  1  0.382500  0.881900  0.705800  1.0
  C  C87  1  0.499400  0.617500  0.705800  1.0
  C  C88  1  0.118100  0.500600  0.705800  1.0
  C  C89  1  0.369400  0.961500  0.837600  1.0
  C  C90  1  0.592100  0.630600  0.837600  1.0
  C  C91  1  0.038500  0.407900  0.837600  1.0
  C  C92  1  0.630600  0.038500  0.337600  1.0
  C  C93  1  0.407900  0.369400  0.337600  1.0
  C  C94  1  0.961500  0.592100  0.337600  1.0
  C  C95  1  0.630600  0.038500  0.162400  1.0
  C  C96  1  0.407900  0.369400  0.162400  1.0
  C  C97  1  0.961500  0.592100  0.162400  1.0
  C  C98  1  0.369400  0.961500  0.662400  1.0
  C  C99  1  0.592100  0.630600  0.662400  1.0
  C  C100  1  0.038500  0.407900  0.662400  1.0
  C  C101  1  0.353100  0.954400  0.927800  1.0
  C  C102  1  0.601300  0.646900  0.927800  1.0
  C  C103  1  0.045600  0.398700  0.927800  1.0
  C  C104  1  0.646900  0.045600  0.427800  1.0
  C  C105  1  0.398700  0.353100  0.427800  1.0
  C  C106  1  0.954400  0.601300  0.427800  1.0
  C  C107  1  0.646900  0.045600  0.072200  1.0
  C  C108  1  0.398700  0.353100  0.072200  1.0
  C  C109  1  0.954400  0.601300  0.072200  1.0
  C  C110  1  0.353100  0.954400  0.572200  1.0
  C  C111  1  0.601300  0.646900  0.572200  1.0
  C  C112  1  0.045600  0.398700  0.572200  1.0
  C  C113  1  0.363400  0.045600  0.792000  1.0
  C  C114  1  0.682200  0.636600  0.792000  1.0
  C  C115  1  0.954400  0.317800  0.792000  1.0
  C  C116  1  0.636600  0.954400  0.292000  1.0
  C  C117  1  0.317800  0.363400  0.292000  1.0
  C  C118  1  0.045600  0.682200  0.292000  1.0
  C  C119  1  0.636600  0.954400  0.208000  1.0
  C  C120  1  0.317800  0.363400  0.208000  1.0
  C  C121  1  0.045600  0.682200  0.208000  1.0
  C  C122  1  0.363400  0.045600  0.708000  1.0
  C  C123  1  0.682200  0.636600  0.708000  1.0
  C  C124  1  0.954400  0.317800  0.708000  1.0
  C  C125  1  0.338800  0.853500  0.055700  1.0
  C  C126  1  0.514700  0.661200  0.055700  1.0
  C  C127  1  0.146500  0.485300  0.055700  1.0
  C  C128  1  0.661200  0.146500  0.555700  1.0
  C  C129  1  0.485300  0.338800  0.555700  1.0
  C  C130  1  0.853500  0.514700  0.555700  1.0
  C  C131  1  0.661200  0.146500  0.944300  1.0
  C  C132  1  0.485300  0.338800  0.944300  1.0
  C  C133  1  0.853500  0.514700  0.944300  1.0
  C  C134  1  0.338800  0.853500  0.444300  1.0
  C  C135  1  0.514700  0.661200  0.444300  1.0
  C  C136  1  0.146500  0.485300  0.444300  1.0
  C  C137  1  0.385600  0.782500  0.089900  1.0
  C  C138  1  0.396900  0.614400  0.089900  1.0
  C  C139  1  0.217500  0.603100  0.089900  1.0
  C  C140  1  0.614400  0.217500  0.589900  1.0
  C  C141  1  0.603100  0.385600  0.589900  1.0
  C  C142  1  0.782500  0.396900  0.589900  1.0
  C  C143  1  0.614400  0.217500  0.910100  1.0
  C  C144  1  0.603100  0.385600  0.910100  1.0
  C  C145  1  0.782500  0.396900  0.910100  1.0
  C  C146  1  0.385600  0.782500  0.410100  1.0
  C  C147  1  0.396900  0.614400  0.410100  1.0
  C  C148  1  0.217500  0.603100  0.410100  1.0
  N  N149  1  0.333333  0.666667  0.058700  1.0
  N  N150  1  0.666667  0.333333  0.558700  1.0
  N  N151  1  0.666667  0.333333  0.941300  1.0
  N  N152  1  0.333333  0.666667  0.441300  1.0
  N  N153  1  0.362700  0.875300  0.967800  1.0
  N  N154  1  0.512600  0.637300  0.967800  1.0
  N  N155  1  0.124700  0.487400  0.967800  1.0
  N  N156  1  0.637300  0.124700  0.467800  1.0
  N  N157  1  0.487400  0.362700  0.467800  1.0
  N  N158  1  0.875300  0.512600  0.467800  1.0
  N  N159  1  0.637300  0.124700  0.032200  1.0
  N  N160  1  0.487400  0.362700  0.032200  1.0
  N  N161  1  0.875300  0.512600  0.032200  1.0
  N  N162  1  0.362700  0.875300  0.532200  1.0
  N  N163  1  0.512600  0.637300  0.532200  1.0
  N  N164  1  0.124700  0.487400  0.532200  1.0
  O  O165  1  0.626300  0.888200  0.876600  1
  O  O166  1  0.261900  0.373700  0.876600  1
  O  O167  1  0.111800  0.738100  0.876600  1
  O  O168  1  0.373700  0.111800  0.376600  1
  O  O169  1  0.738100  0.626300  0.376600  1
  O  O170  1  0.888200  0.261900  0.376600  1
  O  O171  1  0.373700  0.111800  0.123400  1
  O  O172  1  0.738100  0.626300  0.123400  1
  O  O173  1  0.888200  0.261900  0.123400  1
  O  O174  1  0.626300  0.888200  0.623400  1
  O  O175  1  0.261900  0.373700  0.623400  1
  O  O176  1  0.111800  0.738100  0.623400  1
  O  O177  1  0.720500  0.058700  0.750000  1
  O  O178  1  0.338200  0.279500  0.750000  1
  O  O179  1  0.941300  0.661800  0.750000  1
  O  O180  1  0.279500  0.941300  0.250000  1
  O  O181  1  0.661800  0.720500  0.250000  1
  O  O182  1  0.058700  0.338200  0.250000  1
  O  O183  1  0.771000  0.912000  0.750000  1
  O  O184  1  0.141000  0.229000  0.750000  1
  O  O185  1  0.088000  0.859000  0.750000  1
  O  O186  1  0.229000  0.088000  0.250000  1
  O  O187  1  0.859000  0.771000  0.250000  1
  O  O188  1  0.912000  0.141000  0.250000  1
  O  O189  1  0.914000  0.894000  0.750000  1
  O  O190  1  0.980000  0.086000  0.750000  1
  O  O191  1  0.106000  0.020000  0.750000  1
  O  O192  1  0.086000  0.106000  0.250000  1
  O  O193  1  0.020000  0.914000  0.250000  1
  O  O194  1  0.894000  0.980000  0.250000  1
  O  O195  1  0.891100  0.083700  0.938700  1
  O  O196  1  0.192600  0.108900  0.938700  1
  O  O197  1  0.916300  0.807400  0.938700  1
  O  O198  1  0.108900  0.916300  0.438700  1
  O  O199  1  0.807400  0.891100  0.438700  1
  O  O200  1  0.083700  0.192600  0.438700  1
  O  O201  1  0.108900  0.916300  0.061300  1
  O  O202  1  0.807400  0.891100  0.061300  1
  O  O203  1  0.083700  0.192600  0.061300  1
  O  O204  1  0.891100  0.083700  0.561300  1
  O  O205  1  0.192600  0.108900  0.561300  1
  O  O206  1  0.916300  0.807400  0.561300  1
  O  O207  1  0.964500  0.108200  0.900000  1
  O  O208  1  0.143700  0.035500  0.900000  1
  O  O209  1  0.891800  0.856300  0.900000  1
  O  O210  1  0.035500  0.891800  0.400000  1
  O  O211  1  0.856300  0.964500  0.400000  1
  O  O212  1  0.108200  0.143700  0.400000  1
  O  O213  1  0.035500  0.891800  0.100000  1
  O  O214  1  0.856300  0.964500  0.100000  1
  O  O215  1  0.108200  0.143700  0.100000  1
  O  O216  1  0.964500  0.108200  0.600000  1
  O  O217  1  0.143700  0.035500  0.600000  1
  O  O218  1  0.891800  0.856300  0.600000  1
  O  O219  1  0.823400  0.966000  0.821600  1
  O  O220  1  0.142600  0.176600  0.821600  1
  O  O221  1  0.034000  0.857400  0.821600  1
  O  O222  1  0.176600  0.034000  0.321600  1
  O  O223  1  0.857400  0.823400  0.321600  1
  O  O224  1  0.966000  0.142600  0.321600  1
  O  O225  1  0.176600  0.034000  0.178400  1
  O  O226  1  0.857400  0.823400  0.178400  1
  O  O227  1  0.966000  0.142600  0.178400  1
  O  O228  1  0.823400  0.966000  0.678400  1
  O  O229  1  0.142600  0.176600  0.678400  1
  O  O230  1  0.034000  0.857400  0.678400  1
  O  O231  1  0.830000  0.899000  0.805000  1
  O  O232  1  0.069000  0.170000  0.805000  1
  O  O233  1  0.101000  0.931000  0.805000  1
  O  O234  1  0.170000  0.101000  0.305000  1
  O  O235  1  0.931000  0.830000  0.305000  1
  O  O236  1  0.899000  0.069000  0.305000  1
  O  O237  1  0.170000  0.101000  0.195000  1
  O  O238  1  0.931000  0.830000  0.195000  1
  O  O239  1  0.899000  0.069000  0.195000  1
  O  O240  1  0.830000  0.899000  0.695000  1
  O  O241  1  0.069000  0.170000  0.695000  1
  O  O242  1  0.101000  0.931000  0.695000  1
  O  O243  1  0.760000  0.015000  0.750000  1
  O  O244  1  0.255000  0.240000  0.750000  1
  O  O245  1  0.985000  0.745000  0.750000  1
  O  O246  1  0.240000  0.985000  0.250000  1
  O  O247  1  0.745000  0.760000  0.250000  1
  O  O248  1  0.015000  0.255000  0.250000  1
  O  O249  1  0.389800  0.797500  0.827800  1.0
  O  O250  1  0.407700  0.610200  0.827800  1.0
  O  O251  1  0.202500  0.592300  0.827800  1.0
  O  O252  1  0.610200  0.202500  0.327800  1.0
  O  O253  1  0.592300  0.389800  0.327800  1.0
  O  O254  1  0.797500  0.407700  0.327800  1.0
  O  O255  1  0.610200  0.202500  0.172200  1.0
  O  O256  1  0.592300  0.389800  0.172200  1.0
  O  O257  1  0.797500  0.407700  0.172200  1.0
  O  O258  1  0.389800  0.797500  0.672200  1.0
  O  O259  1  0.407700  0.610200  0.672200  1.0
  O  O260  1  0.202500  0.592300  0.672200  1.0
  O  O261  1  0.329600  0.020200  0.964900  1.0
  O  O262  1  0.690600  0.670400  0.964900  1.0
  O  O263  1  0.979800  0.309400  0.964900  1.0
  O  O264  1  0.670400  0.979800  0.464900  1.0
  O  O265  1  0.309400  0.329600  0.464900  1.0
  O  O266  1  0.020200  0.690600  0.464900  1.0
  O  O267  1  0.670400  0.979800  0.035100  1.0
  O  O268  1  0.309400  0.329600  0.035100  1.0
  O  O269  1  0.020200  0.690600  0.035100  1.0
  O  O270  1  0.329600  0.020200  0.535100  1.0
  O  O271  1  0.690600  0.670400  0.535100  1.0
  O  O272  1  0.979800  0.309400  0.535100  1.0
