# generated using pymatgen
data_H80Ru2C83S2N2O13F6
_symmetry_space_group_name_H-M   'P 1'
_cell_length_a   17.58100000
_cell_length_b   19.48100000
_cell_length_c   25.64200000
_cell_angle_alpha   90.00000000
_cell_angle_beta   90.00000000
_cell_angle_gamma   113.73000000
_symmetry_Int_Tables_number   1
_chemical_formula_structural   H80Ru2C83S2N2O13F6
_chemical_formula_sum   'H320 Ru8 C332 S8 N8 O52 F24'
_cell_volume   8039.74543881
_cell_formula_units_Z   4
loop_
 _symmetry_equiv_pos_site_id
 _symmetry_equiv_pos_as_xyz
  1  'x, y, z'
loop_
 _atom_site_type_symbol
 _atom_site_label
 _atom_site_symmetry_multiplicity
 _atom_site_fract_x
 _atom_site_fract_y
 _atom_site_fract_z
 _atom_site_occupancy
  H  H1  1  0.370400  0.532700  0.271500  1
  H  H2  1  0.129600  0.967300  0.771500  1
  H  H3  1  0.629600  0.467300  0.728500  1
  H  H4  1  0.870400  0.032700  0.228500  1
  H  H5  1  0.392000  0.463500  0.252800  1
  H  H6  1  0.108000  0.036500  0.752800  1
  H  H7  1  0.608000  0.536500  0.747200  1
  H  H8  1  0.892000  0.963500  0.247200  1
  H  H9  1  0.509800  0.553700  0.300100  1
  H  H10  1  0.990200  0.946300  0.800100  1
  H  H11  1  0.490200  0.446300  0.699900  1
  H  H12  1  0.009800  0.053700  0.199900  1
  H  H13  1  0.473200  0.475900  0.331200  1
  H  H14  1  0.026800  0.024100  0.831200  1
  H  H15  1  0.526800  0.524100  0.668800  1
  H  H16  1  0.973200  0.975900  0.168800  1
  H  H17  1  0.451500  0.544400  0.349900  1
  H  H18  1  0.048500  0.955600  0.849900  1
  H  H19  1  0.548500  0.455600  0.650100  1
  H  H20  1  0.951500  0.044400  0.150100  1
  H  H21  1  0.237000  0.355600  0.271700  1
  H  H22  1  0.263000  0.144400  0.771700  1
  H  H23  1  0.763000  0.644400  0.728300  1
  H  H24  1  0.737000  0.855600  0.228300  1
  H  H25  1  0.216800  0.429400  0.273600  1
  H  H26  1  0.283200  0.070600  0.773600  1
  H  H27  1  0.783200  0.570600  0.726400  1
  H  H28  1  0.716800  0.929400  0.226400  1
  H  H29  1  0.121800  0.339100  0.331900  1
  H  H30  1  0.378200  0.160900  0.831900  1
  H  H31  1  0.878200  0.660900  0.668100  1
  H  H32  1  0.621800  0.839100  0.168100  1
  H  H33  1  0.185400  0.405800  0.366500  1
  H  H34  1  0.314600  0.094200  0.866500  1
  H  H35  1  0.814600  0.594200  0.633500  1
  H  H36  1  0.685400  0.905800  0.133500  1
  H  H37  1  0.197200  0.328800  0.360800  1
  H  H38  1  0.302800  0.171200  0.860800  1
  H  H39  1  0.802800  0.671200  0.639200  1
  H  H40  1  0.697200  0.828800  0.139200  1
  H  H41  1  0.360900  0.766800  0.851000  1
  H  H42  1  0.139100  0.733200  0.351000  1
  H  H43  1  0.639100  0.233200  0.149000  1
  H  H44  1  0.860900  0.266800  0.649000  1
  H  H45  1  0.372700  0.700200  0.883100  1
  H  H46  1  0.127300  0.799800  0.383100  1
  H  H47  1  0.627300  0.299800  0.116900  1
  H  H48  1  0.872700  0.200200  0.616900  1
  H  H49  1  0.440100  0.821700  0.929900  1
  H  H50  1  0.059900  0.678300  0.429900  1
  H  H51  1  0.559900  0.178300  0.070100  1
  H  H52  1  0.940100  0.321700  0.570100  1
  H  H53  1  0.369200  0.761400  0.964900  1
  H  H54  1  0.130800  0.738600  0.464900  1
  H  H55  1  0.630800  0.238600  0.035100  1
  H  H56  1  0.869200  0.261400  0.535100  1
  H  H57  1  0.350900  0.825100  0.934700  1
  H  H58  1  0.149100  0.674900  0.434700  1
  H  H59  1  0.649100  0.174900  0.065300  1
  H  H60  1  0.850900  0.325100  0.565300  1
  H  H61  1  0.218800  0.589400  0.887200  1
  H  H62  1  0.281200  0.910600  0.387200  1
  H  H63  1  0.781200  0.410600  0.112800  1
  H  H64  1  0.718800  0.089400  0.612800  1
  H  H65  1  0.218800  0.632200  0.833600  1
  H  H66  1  0.281200  0.867800  0.333600  1
  H  H67  1  0.781200  0.367800  0.166400  1
  H  H68  1  0.718800  0.132200  0.666400  1
  H  H69  1  0.079400  0.577200  0.854200  1
  H  H70  1  0.420600  0.922800  0.354200  1
  H  H71  1  0.920600  0.422800  0.145800  1
  H  H72  1  0.579400  0.077200  0.645800  1
  H  H73  1  0.105700  0.661000  0.875100  1
  H  H74  1  0.394300  0.839000  0.375100  1
  H  H75  1  0.894300  0.339000  0.124900  1
  H  H76  1  0.605700  0.161000  0.624900  1
  H  H77  1  0.096800  0.595100  0.915000  1
  H  H78  1  0.403200  0.904900  0.415000  1
  H  H79  1  0.903200  0.404900  0.085000  1
  H  H80  1  0.596800  0.095100  0.585000  1
  H  H81  1  0.648500  0.439900  0.068600  1
  H  H82  1  0.851500  0.060100  0.568600  1
  H  H83  1  0.351500  0.560100  0.931400  1
  H  H84  1  0.148500  0.939900  0.431400  1
  H  H85  1  0.723900  0.388600  0.013300  1
  H  H86  1  0.776100  0.111400  0.513300  1
  H  H87  1  0.276100  0.611400  0.986700  1
  H  H88  1  0.223900  0.888600  0.486700  1
  H  H89  1  0.690900  0.444200  0.984500  1
  H  H90  1  0.809100  0.055800  0.484500  1
  H  H91  1  0.309100  0.555800  0.015500  1
  H  H92  1  0.190900  0.944200  0.515500  1
  H  H93  1  0.639300  0.355400  0.980600  1
  H  H94  1  0.860700  0.144600  0.480600  1
  H  H95  1  0.360700  0.644600  0.019400  1
  H  H96  1  0.139300  0.855400  0.519400  1
  H  H97  1  0.493000  0.434800  0.893700  1.0
  H  H98  1  0.007000  0.065200  0.393700  1.0
  H  H99  1  0.507000  0.565200  0.106300  1.0
  H  H100  1  0.993000  0.934800  0.606300  1.0
  H  H101  1  0.431400  0.311000  0.899400  1.0
  H  H102  1  0.068600  0.189000  0.399400  1.0
  H  H103  1  0.568600  0.689000  0.100600  1.0
  H  H104  1  0.931400  0.811000  0.600600  1.0
  H  H105  1  0.497000  0.232700  0.872300  1.0
  H  H106  1  0.003000  0.267300  0.372300  1.0
  H  H107  1  0.503000  0.767300  0.127700  1.0
  H  H108  1  0.997000  0.732700  0.627700  1.0
  H  H109  1  0.634400  0.283300  0.852600  1.0
  H  H110  1  0.865600  0.216700  0.352600  1.0
  H  H111  1  0.365600  0.716700  0.147400  1.0
  H  H112  1  0.134400  0.783300  0.647400  1.0
  H  H113  1  0.862600  0.770500  0.826900  1.0
  H  H114  1  0.637400  0.729500  0.326900  1.0
  H  H115  1  0.137400  0.229500  0.173100  1.0
  H  H116  1  0.362600  0.270500  0.673100  1.0
  H  H117  1  0.009700  0.625900  0.777400  1.0
  H  H118  1  0.490300  0.874100  0.277400  1.0
  H  H119  1  0.990300  0.374100  0.222600  1.0
  H  H120  1  0.509700  0.125900  0.722600  1.0
  H  H121  1  0.998000  0.827200  0.788900  1.0
  H  H122  1  0.502000  0.672800  0.288900  1.0
  H  H123  1  0.002000  0.172800  0.211100  1.0
  H  H124  1  0.498000  0.327200  0.711100  1.0
  H  H125  1  0.061100  0.747600  0.758900  1.0
  H  H126  1  0.438900  0.752400  0.258900  1.0
  H  H127  1  0.938900  0.252400  0.241100  1.0
  H  H128  1  0.561100  0.247600  0.741100  1.0
  H  H129  1  0.931200  0.490400  0.714200  1.0
  H  H130  1  0.568800  0.009600  0.214200  1.0
  H  H131  1  0.068800  0.509600  0.285800  1.0
  H  H132  1  0.431200  0.990400  0.785800  1.0
  H  H133  1  0.731200  0.308900  0.750400  1.0
  H  H134  1  0.768800  0.191100  0.250400  1.0
  H  H135  1  0.268800  0.691100  0.249600  1.0
  H  H136  1  0.231200  0.808900  0.749600  1.0
  H  H137  1  0.886800  0.494300  0.632600  1.0
  H  H138  1  0.613200  0.005700  0.132600  1.0
  H  H139  1  0.113200  0.505700  0.367400  1.0
  H  H140  1  0.386800  0.994300  0.867400  1.0
  H  H141  1  0.670700  0.313300  0.670400  1.0
  H  H142  1  0.829300  0.186700  0.170400  1.0
  H  H143  1  0.329300  0.686700  0.329600  1.0
  H  H144  1  0.170700  0.813300  0.829600  1.0
  H  H145  1  0.780600  0.443600  0.460300  1.0
  H  H146  1  0.719400  0.056400  0.960300  1.0
  H  H147  1  0.219400  0.556400  0.539700  1.0
  H  H148  1  0.280600  0.943600  0.039700  1.0
  H  H149  1  0.539600  0.340000  0.567700  1.0
  H  H150  1  0.960400  0.160000  0.067700  1.0
  H  H151  1  0.460400  0.660000  0.432300  1.0
  H  H152  1  0.039600  0.840000  0.932300  1.0
  H  H153  1  0.728000  0.428600  0.375400  1.0
  H  H154  1  0.772000  0.071400  0.875400  1.0
  H  H155  1  0.272000  0.571400  0.624600  1.0
  H  H156  1  0.228000  0.928600  0.124600  1.0
  H  H157  1  0.592700  0.424200  0.212800  1.0
  H  H158  1  0.907300  0.075800  0.712800  1.0
  H  H159  1  0.407300  0.575800  0.787200  1.0
  H  H160  1  0.092700  0.924200  0.287200  1.0
  H  H161  1  0.386400  0.277000  0.278500  1.0
  H  H162  1  0.113600  0.223000  0.778500  1.0
  H  H163  1  0.613600  0.723000  0.721500  1.0
  H  H164  1  0.886400  0.777000  0.221500  1.0
  H  H165  1  0.319700  0.272300  0.199000  1.0
  H  H166  1  0.180300  0.227700  0.699000  1.0
  H  H167  1  0.680300  0.727700  0.801000  1.0
  H  H168  1  0.819700  0.772300  0.301000  1.0
  H  H169  1  0.526600  0.401400  0.133700  1.0
  H  H170  1  0.973400  0.098600  0.633700  1.0
  H  H171  1  0.473400  0.598600  0.866300  1.0
  H  H172  1  0.026600  0.901400  0.366300  1.0
  H  H173  1  0.435600  0.294300  0.400800  1.0
  H  H174  1  0.064400  0.205700  0.900800  1.0
  H  H175  1  0.564400  0.705700  0.599200  1.0
  H  H176  1  0.935600  0.794300  0.099200  1.0
  H  H177  1  0.477100  0.196300  0.588300  1.0
  H  H178  1  0.022900  0.303700  0.088300  1.0
  H  H179  1  0.522900  0.803700  0.411700  1.0
  H  H180  1  0.977100  0.696300  0.911700  1.0
  H  H181  1  0.374000  0.153700  0.417400  1.0
  H  H182  1  0.126000  0.346300  0.917400  1.0
  H  H183  1  0.626000  0.846300  0.582600  1.0
  H  H184  1  0.874000  0.653700  0.082600  1.0
  H  H185  1  0.461200  0.429000  0.584100  1.0
  H  H186  1  0.038800  0.071000  0.084100  1.0
  H  H187  1  0.538800  0.571000  0.415900  1.0
  H  H188  1  0.961200  0.929000  0.915900  1.0
  H  H189  1  0.355700  0.381300  0.413700  1.0
  H  H190  1  0.144300  0.118700  0.913700  1.0
  H  H191  1  0.644300  0.618700  0.586300  1.0
  H  H192  1  0.855700  0.881300  0.086300  1.0
  H  H193  1  0.403600  0.077400  0.560300  1.0
  H  H194  1  0.096400  0.422600  0.060300  1.0
  H  H195  1  0.596400  0.922600  0.439700  1.0
  H  H196  1  0.903600  0.577400  0.939700  1.0
  H  H197  1  0.349900  0.053600  0.475500  1.0
  H  H198  1  0.150100  0.446400  0.975500  1.0
  H  H199  1  0.650100  0.946400  0.524500  1.0
  H  H200  1  0.849900  0.553600  0.024500  1.0
  H  H201  1  0.366500  0.480200  0.547600  1.0
  H  H202  1  0.133500  0.019800  0.047600  1.0
  H  H203  1  0.633500  0.519800  0.452400  1.0
  H  H204  1  0.866500  0.980200  0.952400  1.0
  H  H205  1  0.324200  0.462700  0.466000  1.0
  H  H206  1  0.175800  0.037300  0.966000  1.0
  H  H207  1  0.675800  0.537300  0.534000  1.0
  H  H208  1  0.824200  0.962700  0.034000  1.0
  H  H209  1  0.868600  0.254400  0.771500  1.0
  H  H210  1  0.631400  0.245600  0.271500  1.0
  H  H211  1  0.131400  0.745600  0.228500  1.0
  H  H212  1  0.368600  0.754400  0.728500  1.0
  H  H213  1  0.061200  0.460200  0.806400  1.0
  H  H214  1  0.438800  0.039800  0.306400  1.0
  H  H215  1  0.938800  0.539800  0.193600  1.0
  H  H216  1  0.561200  0.960200  0.693600  1.0
  H  H217  1  0.004600  0.454600  0.894200  1.0
  H  H218  1  0.495400  0.045400  0.394200  1.0
  H  H219  1  0.995400  0.545400  0.105800  1.0
  H  H220  1  0.504600  0.954600  0.605800  1.0
  H  H221  1  0.811000  0.249400  0.858400  1.0
  H  H222  1  0.689000  0.250600  0.358400  1.0
  H  H223  1  0.189000  0.750600  0.141600  1.0
  H  H224  1  0.311000  0.749400  0.641600  1.0
  H  H225  1  0.051500  0.336300  0.724600  1.0
  H  H226  1  0.448500  0.163700  0.224600  1.0
  H  H227  1  0.948500  0.663700  0.275400  1.0
  H  H228  1  0.551500  0.836300  0.775400  1.0
  H  H229  1  0.033600  0.409500  0.714700  1.0
  H  H230  1  0.466400  0.090500  0.214700  1.0
  H  H231  1  0.966400  0.590500  0.285300  1.0
  H  H232  1  0.533600  0.909500  0.785300  1.0
  H  H233  1  0.962400  0.328100  0.703900  1.0
  H  H234  1  0.537600  0.171900  0.203900  1.0
  H  H235  1  0.037600  0.671900  0.296100  1.0
  H  H236  1  0.462400  0.828100  0.796100  1.0
  H  H237  1  0.562000  0.853900  0.970600  1.0
  H  H238  1  0.938000  0.646100  0.470600  1.0
  H  H239  1  0.438000  0.146100  0.029400  1.0
  H  H240  1  0.062000  0.353900  0.529400  1.0
  H  H241  1  0.593800  0.919100  0.927700  1.0
  H  H242  1  0.906200  0.580900  0.427700  1.0
  H  H243  1  0.406200  0.080900  0.072300  1.0
  H  H244  1  0.093800  0.419100  0.572300  1.0
  H  H245  1  0.655700  0.915400  0.972300  1.0
  H  H246  1  0.844300  0.584600  0.472300  1.0
  H  H247  1  0.344300  0.084600  0.027700  1.0
  H  H248  1  0.155700  0.415400  0.527700  1.0
  H  H249  1  0.931200  0.341900  0.959100  1.0
  H  H250  1  0.568800  0.158100  0.459100  1.0
  H  H251  1  0.068800  0.658100  0.040900  1.0
  H  H252  1  0.431200  0.841900  0.540900  1.0
  H  H253  1  0.508300  0.694100  0.938400  1.0
  H  H254  1  0.991700  0.805900  0.438400  1.0
  H  H255  1  0.491700  0.305900  0.061600  1.0
  H  H256  1  0.008300  0.194100  0.561600  1.0
  H  H257  1  0.513600  0.597400  0.983400  1.0
  H  H258  1  0.986400  0.902600  0.483400  1.0
  H  H259  1  0.486400  0.402600  0.016600  1.0
  H  H260  1  0.013600  0.097400  0.516600  1.0
  H  H261  1  0.773500  0.702200  0.986900  1.0
  H  H262  1  0.726500  0.797800  0.486900  1.0
  H  H263  1  0.226500  0.297800  0.013100  1.0
  H  H264  1  0.273500  0.202200  0.513100  1.0
  H  H265  1  0.769300  0.810500  0.939700  1.0
  H  H266  1  0.730700  0.689500  0.439700  1.0
  H  H267  1  0.230700  0.189500  0.060300  1.0
  H  H268  1  0.269300  0.310500  0.560300  1.0
  H  H269  1  0.940000  0.462400  0.948200  1.0
  H  H270  1  0.560000  0.037600  0.448200  1.0
  H  H271  1  0.060000  0.537600  0.051800  1.0
  H  H272  1  0.440000  0.962400  0.551800  1.0
  H  H273  1  0.894400  0.419500  0.999900  1.0
  H  H274  1  0.605600  0.080500  0.499900  1.0
  H  H275  1  0.105600  0.580500  0.000100  1.0
  H  H276  1  0.394400  0.919500  0.500100  1.0
  H  H277  1  0.840800  0.429000  0.952200  1.0
  H  H278  1  0.659200  0.071000  0.452200  1.0
  H  H279  1  0.159200  0.571000  0.047800  1.0
  H  H280  1  0.340800  0.929000  0.547800  1.0
  H  H281  1  0.819500  0.239000  0.941500  1.0
  H  H282  1  0.680500  0.261000  0.441500  1.0
  H  H283  1  0.180500  0.761000  0.058500  1.0
  H  H284  1  0.319500  0.739000  0.558500  1.0
  H  H285  1  0.765000  0.287800  0.945500  1.0
  H  H286  1  0.735000  0.212200  0.445500  1.0
  H  H287  1  0.235000  0.712200  0.054500  1.0
  H  H288  1  0.265000  0.787800  0.554500  1.0
  H  H289  1  0.817800  0.281300  0.994700  1.0
  H  H290  1  0.682200  0.218700  0.494700  1.0
  H  H291  1  0.182200  0.718700  0.005300  1.0
  H  H292  1  0.317800  0.781300  0.505300  1.0
  H  H293  1  0.648100  0.573200  0.057700  1.0
  H  H294  1  0.851900  0.926800  0.557700  1.0
  H  H295  1  0.351900  0.426800  0.942300  1.0
  H  H296  1  0.148100  0.073200  0.442300  1.0
  H  H297  1  0.702400  0.569300  0.008500  1.0
  H  H298  1  0.797600  0.930700  0.508500  1.0
  H  H299  1  0.297600  0.430700  0.991500  1.0
  H  H300  1  0.202400  0.069300  0.491500  1.0
  H  H301  1  0.603300  0.526500  0.007000  1.0
  H  H302  1  0.896700  0.973500  0.507000  1.0
  H  H303  1  0.396700  0.473500  0.993000  1.0
  H  H304  1  0.103300  0.026500  0.493000  1.0
  H  H305  1  0.587900  0.812200  0.890100  1.0
  H  H306  1  0.912100  0.687800  0.390100  1.0
  H  H307  1  0.412100  0.187800  0.109900  1.0
  H  H308  1  0.087900  0.312200  0.609900  1.0
  H  H309  1  0.708900  0.841000  0.845700  1.0
  H  H310  1  0.791100  0.659000  0.345700  1.0
  H  H311  1  0.291100  0.159000  0.154300  1.0
  H  H312  1  0.208900  0.341000  0.654300  1.0
  H  H313  1  0.758400  0.903200  0.888200  1.0
  H  H314  1  0.741600  0.596800  0.388200  1.0
  H  H315  1  0.241600  0.096800  0.111800  1.0
  H  H316  1  0.258400  0.403200  0.611800  1.0
  H  H317  1  0.688100  0.913200  0.853200  1.0
  H  H318  1  0.811900  0.586800  0.353200  1.0
  H  H319  1  0.311900  0.086800  0.146800  1.0
  H  H320  1  0.188100  0.413200  0.646800  1.0
  Ru  Ru321  1  0.884810  0.393480  0.814330  1.0
  Ru  Ru322  1  0.615190  0.106520  0.314330  1.0
  Ru  Ru323  1  0.115190  0.606520  0.185670  1.0
  Ru  Ru324  1  0.384810  0.893480  0.685670  1.0
  Ru  Ru325  1  0.646990  0.665960  0.911800  1.0
  Ru  Ru326  1  0.853010  0.834040  0.411800  1.0
  Ru  Ru327  1  0.353010  0.334040  0.088200  1.0
  Ru  Ru328  1  0.146990  0.165960  0.588200  1.0
  C  C329  1  0.899500  0.398300  0.358500  1
  C  C330  1  0.600500  0.101700  0.858500  1
  C  C331  1  0.100500  0.601700  0.641500  1
  C  C332  1  0.399500  0.898300  0.141500  1
  C  C333  1  0.172800  0.122900  0.274100  1
  C  C334  1  0.327200  0.377100  0.774100  1
  C  C335  1  0.827200  0.877100  0.725900  1
  C  C336  1  0.672800  0.622900  0.225900  1
  C  C337  1  0.383900  0.490600  0.283500  1
  C  C338  1  0.116100  0.009400  0.783500  1
  C  C339  1  0.616100  0.509400  0.716500  1
  C  C340  1  0.883900  0.990600  0.216500  1
  C  C341  1  0.461800  0.518800  0.319500  1
  C  C342  1  0.038200  0.981200  0.819500  1
  C  C343  1  0.538200  0.481200  0.680500  1
  C  C344  1  0.961800  0.018800  0.180500  1
  C  C345  1  0.235600  0.396200  0.294300  1
  C  C346  1  0.264400  0.103800  0.794300  1
  C  C347  1  0.764400  0.603800  0.705700  1
  C  C348  1  0.735600  0.896200  0.205700  1
  C  C349  1  0.179900  0.364600  0.342800  1
  C  C350  1  0.320100  0.135400  0.842800  1
  C  C351  1  0.820100  0.635400  0.657200  1
  C  C352  1  0.679900  0.864600  0.157200  1
  C  C353  1  0.348900  0.738500  0.884200  1
  C  C354  1  0.151100  0.761500  0.384200  1
  C  C355  1  0.651100  0.261500  0.115800  1
  C  C356  1  0.848900  0.238500  0.615800  1
  C  C357  1  0.380000  0.792000  0.933000  1
  C  C358  1  0.120000  0.708000  0.433000  1
  C  C359  1  0.620000  0.208000  0.067000  1
  C  C360  1  0.880000  0.292000  0.567000  1
  C  C361  1  0.205700  0.630000  0.871000  1
  C  C362  1  0.294300  0.870000  0.371000  1
  C  C363  1  0.794300  0.370000  0.129000  1
  C  C364  1  0.705700  0.130000  0.629000  1
  C  C365  1  0.113500  0.614300  0.879700  1
  C  C366  1  0.386500  0.885700  0.379700  1
  C  C367  1  0.886500  0.385700  0.120300  1
  C  C368  1  0.613500  0.114300  0.620300  1
  C  C369  1  0.674300  0.396500  0.003300  1
  C  C370  1  0.825700  0.103500  0.503300  1
  C  C371  1  0.325700  0.603500  0.996700  1
  C  C372  1  0.174300  0.896500  0.496700  1
  C  C373  1  0.656900  0.522300  0.877800  1.0
  C  C374  1  0.843100  0.977700  0.377800  1.0
  C  C375  1  0.343100  0.477700  0.122200  1.0
  C  C376  1  0.156900  0.022300  0.622200  1.0
  C  C377  1  0.611000  0.438400  0.876000  1.0
  C  C378  1  0.889000  0.061600  0.376000  1.0
  C  C379  1  0.389000  0.561600  0.124000  1.0
  C  C380  1  0.111000  0.938400  0.624000  1.0
  C  C381  1  0.523300  0.404800  0.887200  1.0
  C  C382  1  0.976700  0.095200  0.387200  1.0
  C  C383  1  0.476700  0.595200  0.112800  1.0
  C  C384  1  0.023300  0.904800  0.612800  1.0
  C  C385  1  0.487700  0.333500  0.888200  1.0
  C  C386  1  0.012300  0.166500  0.388200  1.0
  C  C387  1  0.512300  0.666500  0.111800  1.0
  C  C388  1  0.987700  0.833500  0.611800  1.0
  C  C389  1  0.527700  0.285500  0.873400  1.0
  C  C390  1  0.972300  0.214500  0.373400  1.0
  C  C391  1  0.472300  0.714500  0.126600  1.0
  C  C392  1  0.027700  0.785500  0.626600  1.0
  C  C393  1  0.606100  0.314200  0.861500  1.0
  C  C394  1  0.893900  0.185800  0.361500  1.0
  C  C395  1  0.393900  0.685800  0.138500  1.0
  C  C396  1  0.106100  0.814200  0.638500  1.0
  C  C397  1  0.647800  0.392900  0.862400  1.0
  C  C398  1  0.852200  0.107100  0.362400  1.0
  C  C399  1  0.352200  0.607100  0.137600  1.0
  C  C400  1  0.147800  0.892900  0.637600  1.0
  C  C401  1  0.738500  0.424900  0.846900  1.0
  C  C402  1  0.761500  0.075100  0.346900  1.0
  C  C403  1  0.261500  0.575100  0.153100  1.0
  C  C404  1  0.238500  0.924900  0.653100  1.0
  C  C405  1  0.779300  0.506500  0.843000  1.0
  C  C406  1  0.720700  0.993500  0.343000  1.0
  C  C407  1  0.220700  0.493500  0.157000  1.0
  C  C408  1  0.279300  0.006500  0.657000  1.0
  C  C409  1  0.734900  0.552100  0.858300  1.0
  C  C410  1  0.765100  0.947900  0.358300  1.0
  C  C411  1  0.265100  0.447900  0.141700  1.0
  C  C412  1  0.234900  0.052100  0.641700  1.0
  C  C413  1  0.778700  0.634700  0.852500  1.0
  C  C414  1  0.721300  0.865300  0.352500  1.0
  C  C415  1  0.221300  0.365300  0.147500  1.0
  C  C416  1  0.278700  0.134700  0.647500  1.0
  C  C417  1  0.862300  0.539000  0.823800  1.0
  C  C418  1  0.637700  0.961000  0.323800  1.0
  C  C419  1  0.137700  0.461000  0.176200  1.0
  C  C420  1  0.362300  0.039000  0.676200  1.0
  C  C421  1  0.856900  0.662700  0.828100  1.0
  C  C422  1  0.643100  0.837300  0.328100  1.0
  C  C423  1  0.143100  0.337300  0.171900  1.0
  C  C424  1  0.356900  0.162700  0.671900  1.0
  C  C425  1  0.892200  0.740700  0.817800  1.0
  C  C426  1  0.607800  0.759300  0.317800  1.0
  C  C427  1  0.107800  0.259300  0.182200  1.0
  C  C428  1  0.392200  0.240700  0.682200  1.0
  C  C429  1  0.898200  0.619500  0.813100  1.0
  C  C430  1  0.601800  0.880500  0.313100  1.0
  C  C431  1  0.101800  0.380500  0.186900  1.0
  C  C432  1  0.398200  0.119500  0.686900  1.0
  C  C433  1  0.979800  0.655100  0.787100  1.0
  C  C434  1  0.520200  0.844900  0.287100  1.0
  C  C435  1  0.020200  0.344900  0.212900  1.0
  C  C436  1  0.479800  0.155100  0.712900  1.0
  C  C437  1  0.971700  0.774500  0.793900  1.0
  C  C438  1  0.528300  0.725500  0.293900  1.0
  C  C439  1  0.028300  0.225500  0.206100  1.0
  C  C440  1  0.471700  0.274500  0.706100  1.0
  C  C441  1  0.010300  0.726300  0.777600  1.0
  C  C442  1  0.489700  0.773700  0.277600  1.0
  C  C443  1  0.989700  0.273700  0.222400  1.0
  C  C444  1  0.510300  0.226300  0.722400  1.0
  C  C445  1  0.878900  0.453200  0.704000  1.0
  C  C446  1  0.621100  0.046800  0.204000  1.0
  C  C447  1  0.121100  0.546800  0.296000  1.0
  C  C448  1  0.378900  0.953200  0.796000  1.0
  C  C449  1  0.761000  0.347500  0.726400  1.0
  C  C450  1  0.739000  0.152500  0.226400  1.0
  C  C451  1  0.239000  0.652500  0.273600  1.0
  C  C452  1  0.261000  0.847500  0.773600  1.0
  C  C453  1  0.852300  0.457500  0.656400  1.0
  C  C454  1  0.647700  0.042500  0.156400  1.0
  C  C455  1  0.147700  0.542500  0.343600  1.0
  C  C456  1  0.352300  0.957500  0.843600  1.0
  C  C457  1  0.724900  0.349400  0.678100  1.0
  C  C458  1  0.775100  0.150600  0.178100  1.0
  C  C459  1  0.275100  0.650600  0.321900  1.0
  C  C460  1  0.224900  0.849400  0.821900  1.0
  C  C461  1  0.768600  0.404700  0.640500  1.0
  C  C462  1  0.731400  0.095300  0.140500  1.0
  C  C463  1  0.231400  0.595300  0.359500  1.0
  C  C464  1  0.268600  0.904700  0.859500  1.0
  C  C465  1  0.735100  0.405900  0.591900  1.0
  C  C466  1  0.764900  0.094100  0.091900  1.0
  C  C467  1  0.264900  0.594100  0.408100  1.0
  C  C468  1  0.235100  0.905900  0.908100  1.0
  C  C469  1  0.705900  0.401600  0.548300  1.0
  C  C470  1  0.794100  0.098400  0.048300  1.0
  C  C471  1  0.294100  0.598400  0.451700  1.0
  C  C472  1  0.205900  0.901600  0.951700  1.0
  C  C473  1  0.670800  0.392400  0.497600  1.0
  C  C474  1  0.829200  0.107600  0.997600  1.0
  C  C475  1  0.329200  0.607600  0.502400  1.0
  C  C476  1  0.170800  0.892400  0.002400  1.0
  C  C477  1  0.722400  0.418900  0.454900  1.0
  C  C478  1  0.777600  0.081100  0.954900  1.0
  C  C479  1  0.277600  0.581100  0.545100  1.0
  C  C480  1  0.222400  0.918900  0.045100  1.0
  C  C481  1  0.585600  0.358000  0.490900  1.0
  C  C482  1  0.914400  0.142000  0.990900  1.0
  C  C483  1  0.414400  0.642000  0.509100  1.0
  C  C484  1  0.085600  0.858000  0.009100  1.0
  C  C485  1  0.518100  0.330600  0.531100  1.0
  C  C486  1  0.981900  0.169400  0.031100  1.0
  C  C487  1  0.481900  0.669400  0.468900  1.0
  C  C488  1  0.018100  0.830600  0.968900  1.0
  C  C489  1  0.553800  0.347500  0.439300  1.0
  C  C490  1  0.946200  0.152500  0.939300  1.0
  C  C491  1  0.446200  0.652500  0.560700  1.0
  C  C492  1  0.053800  0.847500  0.060700  1.0
  C  C493  1  0.691100  0.410400  0.404100  1.0
  C  C494  1  0.808900  0.089600  0.904100  1.0
  C  C495  1  0.308900  0.589600  0.595900  1.0
  C  C496  1  0.191100  0.910400  0.095900  1.0
  C  C497  1  0.606500  0.375500  0.395700  1.0
  C  C498  1  0.893500  0.124500  0.895700  1.0
  C  C499  1  0.393500  0.624500  0.604300  1.0
  C  C500  1  0.106500  0.875500  0.104300  1.0
  C  C501  1  0.571900  0.365700  0.346200  1.0
  C  C502  1  0.928100  0.134300  0.846200  1.0
  C  C503  1  0.428100  0.634300  0.653800  1.0
  C  C504  1  0.071900  0.865700  0.153800  1.0
  C  C505  1  0.540600  0.359700  0.303400  1.0
  C  C506  1  0.959400  0.140300  0.803400  1.0
  C  C507  1  0.459400  0.640300  0.696600  1.0
  C  C508  1  0.040600  0.859700  0.196600  1.0
  C  C509  1  0.499500  0.353600  0.254300  1.0
  C  C510  1  0.000500  0.146400  0.754300  1.0
  C  C511  1  0.500500  0.646400  0.745700  1.0
  C  C512  1  0.999500  0.853600  0.245700  1.0
  C  C513  1  0.536200  0.389800  0.211100  1.0
  C  C514  1  0.963800  0.110200  0.711100  1.0
  C  C515  1  0.463800  0.610200  0.788900  1.0
  C  C516  1  0.036200  0.889800  0.288900  1.0
  C  C517  1  0.416300  0.306300  0.249800  1.0
  C  C518  1  0.083700  0.193700  0.749800  1.0
  C  C519  1  0.583700  0.693700  0.750200  1.0
  C  C520  1  0.916300  0.806300  0.250200  1.0
  C  C521  1  0.377400  0.303100  0.201500  1.0
  C  C522  1  0.122600  0.196900  0.701500  1.0
  C  C523  1  0.622600  0.696900  0.798500  1.0
  C  C524  1  0.877400  0.803100  0.298500  1.0
  C  C525  1  0.495600  0.379200  0.164100  1.0
  C  C526  1  0.004400  0.120800  0.664100  1.0
  C  C527  1  0.504400  0.620800  0.835900  1.0
  C  C528  1  0.995600  0.879200  0.335900  1.0
  C  C529  1  0.458100  0.305600  0.437100  1.0
  C  C530  1  0.041900  0.194400  0.937100  1.0
  C  C531  1  0.541900  0.694400  0.562900  1.0
  C  C532  1  0.958100  0.805600  0.062900  1.0
  C  C533  1  0.468300  0.248600  0.519500  1.0
  C  C534  1  0.031700  0.251400  0.019500  1.0
  C  C535  1  0.531700  0.751400  0.480500  1.0
  C  C536  1  0.968300  0.748600  0.980500  1.0
  C  C537  1  0.439000  0.237200  0.469800  1.0
  C  C538  1  0.061000  0.262800  0.969800  1.0
  C  C539  1  0.561000  0.762800  0.530200  1.0
  C  C540  1  0.939000  0.737200  0.030200  1.0
  C  C541  1  0.455300  0.187500  0.553900  1.0
  C  C542  1  0.044700  0.312500  0.053900  1.0
  C  C543  1  0.544700  0.812500  0.446100  1.0
  C  C544  1  0.955300  0.687500  0.946100  1.0
  C  C545  1  0.394400  0.163000  0.452200  1.0
  C  C546  1  0.105600  0.337000  0.952200  1.0
  C  C547  1  0.605600  0.837000  0.547800  1.0
  C  C548  1  0.894400  0.663000  0.047800  1.0
  C  C549  1  0.460500  0.370900  0.517600  1.0
  C  C550  1  0.039500  0.129100  0.017600  1.0
  C  C551  1  0.539500  0.629100  0.482400  1.0
  C  C552  1  0.960500  0.870900  0.982400  1.0
  C  C553  1  0.426700  0.356000  0.466900  1.0
  C  C554  1  0.073300  0.144000  0.966900  1.0
  C  C555  1  0.573300  0.644000  0.533100  1.0
  C  C556  1  0.926700  0.856000  0.033100  1.0
  C  C557  1  0.440500  0.417600  0.549500  1.0
  C  C558  1  0.059500  0.082400  0.049500  1.0
  C  C559  1  0.559500  0.582400  0.450500  1.0
  C  C560  1  0.940500  0.917600  0.950500  1.0
  C  C561  1  0.376600  0.390800  0.448300  1.0
  C  C562  1  0.123400  0.109200  0.948300  1.0
  C  C563  1  0.623400  0.609200  0.551700  1.0
  C  C564  1  0.876600  0.890800  0.051700  1.0
  C  C565  1  0.412700  0.118200  0.537300  1.0
  C  C566  1  0.087300  0.381800  0.037300  1.0
  C  C567  1  0.587300  0.881800  0.462700  1.0
  C  C568  1  0.912700  0.618200  0.962700  1.0
  C  C569  1  0.380800  0.103800  0.486500  1.0
  C  C570  1  0.119200  0.396200  0.986500  1.0
  C  C571  1  0.619200  0.896200  0.513500  1.0
  C  C572  1  0.880800  0.603800  0.013500  1.0
  C  C573  1  0.383900  0.449400  0.526100  1.0
  C  C574  1  0.116100  0.050600  0.026100  1.0
  C  C575  1  0.616100  0.550600  0.473900  1.0
  C  C576  1  0.883900  0.949400  0.973900  1.0
  C  C577  1  0.357200  0.438200  0.479200  1.0
  C  C578  1  0.142800  0.061800  0.979200  1.0
  C  C579  1  0.642800  0.561800  0.520800  1.0
  C  C580  1  0.857200  0.938200  0.020800  1.0
  C  C581  1  0.978300  0.353700  0.784300  1.0
  C  C582  1  0.521700  0.146300  0.284300  1.0
  C  C583  1  0.021700  0.646300  0.215700  1.0
  C  C584  1  0.478300  0.853700  0.715700  1.0
  C  C585  1  0.902600  0.289800  0.799100  1.0
  C  C586  1  0.597400  0.210200  0.299100  1.0
  C  C587  1  0.097400  0.710200  0.200900  1.0
  C  C588  1  0.402600  0.789800  0.700900  1.0
  C  C589  1  0.017500  0.412000  0.819300  1.0
  C  C590  1  0.482500  0.088000  0.319300  1.0
  C  C591  1  0.982500  0.588000  0.180700  1.0
  C  C592  1  0.517500  0.912000  0.680700  1.0
  C  C593  1  0.983700  0.408300  0.872200  1.0
  C  C594  1  0.516300  0.091700  0.372200  1.0
  C  C595  1  0.016300  0.591700  0.127800  1.0
  C  C596  1  0.483700  0.908300  0.627800  1.0
  C  C597  1  0.914000  0.348300  0.888100  1.0
  C  C598  1  0.586000  0.151700  0.388100  1.0
  C  C599  1  0.086000  0.651700  0.111900  1.0
  C  C600  1  0.414000  0.848300  0.611900  1.0
  C  C601  1  0.868000  0.287300  0.850000  1.0
  C  C602  1  0.632000  0.212700  0.350000  1.0
  C  C603  1  0.132000  0.712700  0.150000  1.0
  C  C604  1  0.368000  0.787300  0.650000  1.0
  C  C605  1  0.009400  0.357300  0.726400  1.0
  C  C606  1  0.490600  0.142700  0.226400  1.0
  C  C607  1  0.990600  0.642700  0.273600  1.0
  C  C608  1  0.509400  0.857300  0.773600  1.0
  C  C609  1  0.609600  0.885600  0.949400  1.0
  C  C610  1  0.890400  0.614400  0.449400  1.0
  C  C611  1  0.390400  0.114400  0.050600  1.0
  C  C612  1  0.109600  0.385600  0.550600  1.0
  C  C613  1  0.885500  0.348300  0.939200  1.0
  C  C614  1  0.614500  0.151700  0.439200  1.0
  C  C615  1  0.114500  0.651700  0.060800  1.0
  C  C616  1  0.385500  0.848300  0.560800  1.0
  C  C617  1  0.562200  0.702100  0.955700  1.0
  C  C618  1  0.937800  0.797900  0.455700  1.0
  C  C619  1  0.437800  0.297900  0.044300  1.0
  C  C620  1  0.062200  0.202100  0.544300  1.0
  C  C621  1  0.564900  0.644900  0.981600  1.0
  C  C622  1  0.935100  0.855100  0.481600  1.0
  C  C623  1  0.435100  0.355100  0.018400  1.0
  C  C624  1  0.064900  0.144900  0.518400  1.0
  C  C625  1  0.643300  0.643300  0.996000  1.0
  C  C626  1  0.856700  0.856700  0.496000  1.0
  C  C627  1  0.356700  0.356700  0.004000  1.0
  C  C628  1  0.143300  0.143300  0.504000  1.0
  C  C629  1  0.719300  0.707100  0.983200  1.0
  C  C630  1  0.780700  0.792900  0.483200  1.0
  C  C631  1  0.280700  0.292900  0.016800  1.0
  C  C632  1  0.219300  0.207100  0.516800  1.0
  C  C633  1  0.717300  0.771500  0.954700  1.0
  C  C634  1  0.782700  0.728500  0.454700  1.0
  C  C635  1  0.282700  0.228500  0.045300  1.0
  C  C636  1  0.217300  0.271500  0.545300  1.0
  C  C637  1  0.634900  0.766000  0.937700  1.0
  C  C638  1  0.865100  0.734000  0.437700  1.0
  C  C639  1  0.365100  0.234000  0.062300  1.0
  C  C640  1  0.134900  0.266000  0.562300  1.0
  C  C641  1  0.890600  0.421100  0.961800  1.0
  C  C642  1  0.609400  0.078900  0.461800  1.0
  C  C643  1  0.109400  0.578900  0.038200  1.0
  C  C644  1  0.390600  0.921100  0.538200  1.0
  C  C645  1  0.816700  0.284100  0.956600  1.0
  C  C646  1  0.683300  0.215900  0.456600  1.0
  C  C647  1  0.183300  0.715900  0.043400  1.0
  C  C648  1  0.316700  0.784100  0.543400  1.0
  C  C649  1  0.649900  0.571300  0.019500  1.0
  C  C650  1  0.850100  0.928700  0.519500  1.0
  C  C651  1  0.350100  0.428700  0.980500  1.0
  C  C652  1  0.149900  0.071300  0.480500  1.0
  C  C653  1  0.638000  0.834000  0.913000  1.0
  C  C654  1  0.862000  0.666000  0.413000  1.0
  C  C655  1  0.362000  0.166000  0.087000  1.0
  C  C656  1  0.138000  0.334000  0.587000  1.0
  C  C657  1  0.704500  0.876800  0.871100  1.0
  C  C658  1  0.795500  0.623200  0.371100  1.0
  C  C659  1  0.295500  0.123200  0.128900  1.0
  C  C660  1  0.204500  0.376800  0.628900  1.0
  S  S661  1  0.855200  0.383510  0.292090  1
  S  S662  1  0.644800  0.116490  0.792090  1
  S  S663  1  0.144800  0.616490  0.707910  1
  S  S664  1  0.355200  0.883510  0.207910  1
  S  S665  1  0.232800  0.127800  0.331900  1
  S  S666  1  0.267200  0.372200  0.831900  1
  S  S667  1  0.767200  0.872200  0.668100  1
  S  S668  1  0.732800  0.627800  0.168100  1
  N  N669  1  0.836200  0.398400  0.739900  1.0
  N  N670  1  0.663800  0.101600  0.239900  1.0
  N  N671  1  0.163800  0.601600  0.260100  1.0
  N  N672  1  0.336200  0.898400  0.760100  1.0
  N  N673  1  0.414900  0.339400  0.159800  1.0
  N  N674  1  0.085100  0.160600  0.659800  1.0
  N  N675  1  0.585100  0.660600  0.840200  1.0
  N  N676  1  0.914900  0.839400  0.340200  1.0
  O  O677  1  0.777500  0.391600  0.297200  1
  O  O678  1  0.722500  0.108400  0.797200  1
  O  O679  1  0.222500  0.608400  0.702800  1
  O  O680  1  0.277500  0.891600  0.202800  1
  O  O681  1  0.918700  0.442300  0.262400  1
  O  O682  1  0.581300  0.057700  0.762400  1
  O  O683  1  0.081300  0.557700  0.737600  1
  O  O684  1  0.418700  0.942300  0.237600  1
  O  O685  1  0.843700  0.307100  0.281700  1
  O  O686  1  0.656300  0.192900  0.781700  1
  O  O687  1  0.156300  0.692900  0.718300  1
  O  O688  1  0.343700  0.807100  0.218300  1
  O  O689  1  0.314700  0.137200  0.310500  1
  O  O690  1  0.185300  0.362800  0.810500  1
  O  O691  1  0.685300  0.862800  0.689500  1
  O  O692  1  0.814700  0.637200  0.189500  1
  O  O693  1  0.228900  0.185000  0.368500  1
  O  O694  1  0.271100  0.315000  0.868500  1
  O  O695  1  0.771100  0.815000  0.631500  1
  O  O696  1  0.728900  0.685000  0.131500  1
  O  O697  1  0.186100  0.050900  0.353200  1
  O  O698  1  0.313900  0.449100  0.853200  1
  O  O699  1  0.813900  0.949100  0.646800  1
  O  O700  1  0.686100  0.550900  0.146800  1
  O  O701  1  0.317200  0.438700  0.319000  1
  O  O702  1  0.182800  0.061300  0.819000  1
  O  O703  1  0.682800  0.561300  0.681000  1
  O  O704  1  0.817200  0.938700  0.181000  1
  O  O705  1  0.254700  0.703600  0.897100  1
  O  O706  1  0.245300  0.796400  0.397100  1
  O  O707  1  0.745300  0.296400  0.102900  1
  O  O708  1  0.754700  0.203600  0.602900  1
  O  O709  1  0.624300  0.398600  0.053300  1
  O  O710  1  0.875700  0.101400  0.553300  1
  O  O711  1  0.375700  0.601400  0.946700  1
  O  O712  1  0.124300  0.898600  0.446700  1
  O  O713  1  0.766600  0.377900  0.837900  1.0
  O  O714  1  0.733400  0.122100  0.337900  1.0
  O  O715  1  0.233400  0.622100  0.162100  1.0
  O  O716  1  0.266600  0.877900  0.662100  1.0
  O  O717  1  0.909500  0.505100  0.814200  1.0
  O  O718  1  0.590500  0.994900  0.314200  1.0
  O  O719  1  0.090500  0.494900  0.185800  1.0
  O  O720  1  0.409500  0.005100  0.685800  1.0
  O  O721  1  0.746300  0.679200  0.867100  1.0
  O  O722  1  0.753700  0.820800  0.367100  1.0
  O  O723  1  0.253700  0.320800  0.132900  1.0
  O  O724  1  0.246300  0.179200  0.632900  1.0
  O  O725  1  0.612700  0.555300  0.897400  1.0
  O  O726  1  0.887300  0.944700  0.397400  1.0
  O  O727  1  0.387300  0.444700  0.102600  1.0
  O  O728  1  0.112700  0.055300  0.602600  1.0
  F  F729  1  0.971700  0.393800  0.357000  1
  F  F730  1  0.528300  0.106200  0.857000  1
  F  F731  1  0.028300  0.606200  0.643000  1
  F  F732  1  0.471700  0.893800  0.143000  1
  F  F733  1  0.906800  0.464500  0.372600  1
  F  F734  1  0.593200  0.035500  0.872600  1
  F  F735  1  0.093200  0.535500  0.627400  1
  F  F736  1  0.406800  0.964500  0.127400  1
  F  F737  1  0.844700  0.348300  0.388400  1
  F  F738  1  0.655300  0.151700  0.888400  1
  F  F739  1  0.155300  0.651700  0.611600  1
  F  F740  1  0.344700  0.848300  0.111600  1
  F  F741  1  0.098800  0.112900  0.290900  1
  F  F742  1  0.401200  0.387100  0.790900  1
  F  F743  1  0.901200  0.887100  0.709100  1
  F  F744  1  0.598800  0.612900  0.209100  1
  F  F745  1  0.209300  0.188900  0.255200  1
  F  F746  1  0.290700  0.311100  0.755200  1
  F  F747  1  0.790700  0.811100  0.744800  1
  F  F748  1  0.709300  0.688900  0.244800  1
  F  F749  1  0.175200  0.066700  0.245000  1
  F  F750  1  0.324800  0.433300  0.745000  1
  F  F751  1  0.824800  0.933300  0.755000  1
  F  F752  1  0.675200  0.566700  0.255000  1
