# generated using pymatgen
data_P6H109Pt3C72(N2O3)3
_symmetry_space_group_name_H-M   'P 1'
_cell_length_a   10.48870000
_cell_length_b   23.08530000
_cell_length_c   41.38520000
_cell_angle_alpha   90.00000000
_cell_angle_beta   90.00000000
_cell_angle_gamma   99.36600000
_symmetry_Int_Tables_number   1
_chemical_formula_structural   P6H109Pt3C72(N2O3)3
_chemical_formula_sum   'P24 H436 Pt12 C288 N24 O36'
_cell_volume   9887.20838412
_cell_formula_units_Z   4
loop_
 _symmetry_equiv_pos_site_id
 _symmetry_equiv_pos_as_xyz
  1  'x, y, z'
loop_
 _atom_site_type_symbol
 _atom_site_label
 _atom_site_symmetry_multiplicity
 _atom_site_fract_x
 _atom_site_fract_y
 _atom_site_fract_z
 _atom_site_occupancy
  P  P1  1  0.566000  0.003000  0.893320  1.0
  P  P2  1  0.434000  0.997000  0.393320  1.0
  P  P3  1  0.434000  0.997000  0.106680  1.0
  P  P4  1  0.566000  0.003000  0.606680  1.0
  P  P5  1  0.945000  0.138900  0.880840  1.0
  P  P6  1  0.055000  0.861100  0.380840  1.0
  P  P7  1  0.055000  0.861100  0.119160  1.0
  P  P8  1  0.945000  0.138900  0.619160  1.0
  P  P9  1  0.677100  0.352000  0.995200  1.0
  P  P10  1  0.322900  0.648000  0.495200  1.0
  P  P11  1  0.322900  0.648000  0.004800  1.0
  P  P12  1  0.677100  0.352000  0.504800  1.0
  P  P13  1  0.307500  0.219700  0.018000  1.0
  P  P14  1  0.692500  0.780300  0.518000  1.0
  P  P15  1  0.692500  0.780300  0.982000  1.0
  P  P16  1  0.307500  0.219700  0.482000  1.0
  P  P17  1  0.753300  0.482700  0.841170  1.0
  P  P18  1  0.246700  0.517300  0.341170  1.0
  P  P19  1  0.246700  0.517300  0.158830  1.0
  P  P20  1  0.753300  0.482700  0.658830  1.0
  P  P21  1  0.100400  0.630700  0.845860  1.0
  P  P22  1  0.899600  0.369300  0.345860  1.0
  P  P23  1  0.899600  0.369300  0.154140  1.0
  P  P24  1  0.100400  0.630700  0.654140  1.0
  H  H25  1  0.840900  0.979800  0.937700  1.0
  H  H26  1  0.159100  0.020200  0.437700  1.0
  H  H27  1  0.159100  0.020200  0.062300  1.0
  H  H28  1  0.840900  0.979800  0.562300  1.0
  H  H29  1  0.927000  0.999000  0.989800  1.0
  H  H30  1  0.073000  0.001000  0.489800  1.0
  H  H31  1  0.073000  0.001000  0.010200  1.0
  H  H32  1  0.927000  0.999000  0.510200  1.0
  H  H33  1  0.884900  0.027800  0.044200  1.0
  H  H34  1  0.115100  0.972200  0.544200  1.0
  H  H35  1  0.115100  0.972200  0.955800  1.0
  H  H36  1  0.884900  0.027800  0.455800  1.0
  H  H37  1  0.872200  0.110500  0.075600  1.0
  H  H38  1  0.127800  0.889500  0.575600  1.0
  H  H39  1  0.127800  0.889500  0.924400  1.0
  H  H40  1  0.872200  0.110500  0.424400  1.0
  H  H41  1  0.726000  0.183000  0.089200  1.0
  H  H42  1  0.274000  0.817000  0.589200  1.0
  H  H43  1  0.274000  0.817000  0.910800  1.0
  H  H44  1  0.726000  0.183000  0.410800  1.0
  H  H45  1  0.594400  0.247100  0.069500  1.0
  H  H46  1  0.405600  0.752900  0.569500  1.0
  H  H47  1  0.405600  0.752900  0.930500  1.0
  H  H48  1  0.594400  0.247100  0.430500  1.0
  H  H49  1  0.622800  0.193600  0.978600  1.0
  H  H50  1  0.377200  0.806400  0.478600  1.0
  H  H51  1  0.377200  0.806400  0.021400  1.0
  H  H52  1  0.622800  0.193600  0.521400  1.0
  H  H53  1  0.683000  0.129800  0.948400  1.0
  H  H54  1  0.317000  0.870200  0.448400  1.0
  H  H55  1  0.317000  0.870200  0.051600  1.0
  H  H56  1  0.683000  0.129800  0.551600  1.0
  H  H57  1  0.337800  0.386000  0.009400  1.0
  H  H58  1  0.662200  0.614000  0.509400  1.0
  H  H59  1  0.662200  0.614000  0.990600  1.0
  H  H60  1  0.337800  0.386000  0.490600  1.0
  H  H61  1  0.233900  0.445600  0.978000  1.0
  H  H62  1  0.766100  0.554400  0.478000  1.0
  H  H63  1  0.766100  0.554400  0.022000  1.0
  H  H64  1  0.233900  0.445600  0.522000  1.0
  H  H65  1  0.301300  0.347500  0.901600  1.0
  H  H66  1  0.698700  0.652500  0.401600  1.0
  H  H67  1  0.698700  0.652500  0.098400  1.0
  H  H68  1  0.301300  0.347500  0.598400  1.0
  H  H69  1  0.410500  0.297500  0.935100  1.0
  H  H70  1  0.589500  0.702500  0.435100  1.0
  H  H71  1  0.589500  0.702500  0.064900  1.0
  H  H72  1  0.410500  0.297500  0.564900  1.0
  H  H73  1  0.069000  0.469400  0.949800  1.0
  H  H74  1  0.931000  0.530600  0.449800  1.0
  H  H75  1  0.931000  0.530600  0.050200  1.0
  H  H76  1  0.069000  0.469400  0.550200  1.0
  H  H77  1  0.970800  0.530000  0.916700  1.0
  H  H78  1  0.029200  0.470000  0.416700  1.0
  H  H79  1  0.029200  0.470000  0.083300  1.0
  H  H80  1  0.970800  0.530000  0.583300  1.0
  H  H81  1  0.121700  0.478400  0.837700  1.0
  H  H82  1  0.878300  0.521600  0.337700  1.0
  H  H83  1  0.878300  0.521600  0.162300  1.0
  H  H84  1  0.121700  0.478400  0.662300  1.0
  H  H85  1  0.218900  0.399400  0.873800  1.0
  H  H86  1  0.781100  0.600600  0.373800  1.0
  H  H87  1  0.781100  0.600600  0.126200  1.0
  H  H88  1  0.218900  0.399400  0.626200  1.0
  H  H89  1  0.746700  0.640700  0.857900  1.0
  H  H90  1  0.253300  0.359300  0.357900  1.0
  H  H91  1  0.253300  0.359300  0.142100  1.0
  H  H92  1  0.746700  0.640700  0.642100  1.0
  H  H93  1  0.658700  0.709700  0.829900  1.0
  H  H94  1  0.341300  0.290300  0.329900  1.0
  H  H95  1  0.341300  0.290300  0.170100  1.0
  H  H96  1  0.658700  0.709700  0.670100  1.0
  H  H97  1  0.549800  0.729200  0.777300  1.0
  H  H98  1  0.450200  0.270800  0.277300  1.0
  H  H99  1  0.450200  0.270800  0.222700  1.0
  H  H100  1  0.549800  0.729200  0.722700  1.0
  H  H101  1  0.874100  0.582100  0.774900  1.0
  H  H102  1  0.125900  0.417900  0.274900  1.0
  H  H103  1  0.125900  0.417900  0.225100  1.0
  H  H104  1  0.874100  0.582100  0.725100  1.0
  H  H105  1  0.848400  0.008600  0.828300  1.0
  H  H106  1  0.151600  0.991400  0.328300  1.0
  H  H107  1  0.151600  0.991400  0.171700  1.0
  H  H108  1  0.848400  0.008600  0.671700  1.0
  H  H109  1  0.859400  0.012500  0.773300  1.0
  H  H110  1  0.140600  0.987500  0.273300  1.0
  H  H111  1  0.140600  0.987500  0.226700  1.0
  H  H112  1  0.859400  0.012500  0.726700  1.0
  H  H113  1  0.601200  0.125400  0.776800  1.0
  H  H114  1  0.398800  0.874600  0.276800  1.0
  H  H115  1  0.398800  0.874600  0.223200  1.0
  H  H116  1  0.601200  0.125400  0.723200  1.0
  H  H117  1  0.638400  0.130600  0.830300  1.0
  H  H118  1  0.361600  0.869400  0.330300  1.0
  H  H119  1  0.361600  0.869400  0.169700  1.0
  H  H120  1  0.638400  0.130600  0.669700  1.0
  H  H121  1  0.499300  0.078100  0.927900  1.0
  H  H122  1  0.500700  0.921900  0.427900  1.0
  H  H123  1  0.500700  0.921900  0.072100  1.0
  H  H124  1  0.499300  0.078100  0.572100  1.0
  H  H125  1  0.376600  0.027600  0.920900  1.0
  H  H126  1  0.623400  0.972400  0.420900  1.0
  H  H127  1  0.623400  0.972400  0.079100  1.0
  H  H128  1  0.376600  0.027600  0.579100  1.0
  H  H129  1  0.458000  0.013200  0.973700  1.0
  H  H130  1  0.542000  0.986800  0.473700  1.0
  H  H131  1  0.542000  0.986800  0.026300  1.0
  H  H132  1  0.458000  0.013200  0.526300  1.0
  H  H133  1  0.597800  0.010900  0.958800  1.0
  H  H134  1  0.402200  0.989100  0.458800  1.0
  H  H135  1  0.402200  0.989100  0.041200  1.0
  H  H136  1  0.597800  0.010900  0.541200  1.0
  H  H137  1  0.479700  0.959600  0.951000  1.0
  H  H138  1  0.520300  0.040400  0.451000  1.0
  H  H139  1  0.520300  0.040400  0.049000  1.0
  H  H140  1  0.479700  0.959600  0.549000  1.0
  H  H141  1  0.623300  0.918200  0.919200  1.0
  H  H142  1  0.376700  0.081800  0.419200  1.0
  H  H143  1  0.376700  0.081800  0.080800  1.0
  H  H144  1  0.623300  0.918200  0.580800  1.0
  H  H145  1  0.501000  0.898900  0.895500  1.0
  H  H146  1  0.499000  0.101100  0.395500  1.0
  H  H147  1  0.499000  0.101100  0.104500  1.0
  H  H148  1  0.501000  0.898900  0.604500  1.0
  H  H149  1  0.698100  0.881800  0.869400  1.0
  H  H150  1  0.301900  0.118200  0.369400  1.0
  H  H151  1  0.301900  0.118200  0.130600  1.0
  H  H152  1  0.698100  0.881800  0.630600  1.0
  H  H153  1  0.754400  0.950200  0.873000  1.0
  H  H154  1  0.245600  0.049800  0.373000  1.0
  H  H155  1  0.245600  0.049800  0.127000  1.0
  H  H156  1  0.754400  0.950200  0.627000  1.0
  H  H157  1  0.633600  0.929300  0.849800  1.0
  H  H158  1  0.366400  0.070700  0.349800  1.0
  H  H159  1  0.366400  0.070700  0.150200  1.0
  H  H160  1  0.633600  0.929300  0.650200  1.0
  H  H161  1  0.063000  0.112300  0.833900  1.0
  H  H162  1  0.937000  0.887700  0.333900  1.0
  H  H163  1  0.937000  0.887700  0.166100  1.0
  H  H164  1  0.063000  0.112300  0.666100  1.0
  H  H165  1  0.155300  0.161600  0.854800  1.0
  H  H166  1  0.844700  0.838400  0.354800  1.0
  H  H167  1  0.844700  0.838400  0.145200  1.0
  H  H168  1  0.155300  0.161600  0.645200  1.0
  H  H169  1  0.208500  0.065400  0.866700  1.0
  H  H170  1  0.791500  0.934600  0.366700  1.0
  H  H171  1  0.791500  0.934600  0.133300  1.0
  H  H172  1  0.208500  0.065400  0.633300  1.0
  H  H173  1  0.062400  0.044000  0.877900  1.0
  H  H174  1  0.937600  0.956000  0.377900  1.0
  H  H175  1  0.937600  0.956000  0.122100  1.0
  H  H176  1  0.062400  0.044000  0.622100  1.0
  H  H177  1  0.154000  0.092700  0.898400  1.0
  H  H178  1  0.846000  0.907300  0.398400  1.0
  H  H179  1  0.846000  0.907300  0.101600  1.0
  H  H180  1  0.154000  0.092700  0.601600  1.0
  H  H181  1  0.867300  0.221000  0.903600  1.0
  H  H182  1  0.132700  0.779000  0.403600  1.0
  H  H183  1  0.132700  0.779000  0.096400  1.0
  H  H184  1  0.867300  0.221000  0.596400  1.0
  H  H185  1  0.962200  0.197000  0.928500  1.0
  H  H186  1  0.037800  0.803000  0.428500  1.0
  H  H187  1  0.037800  0.803000  0.071500  1.0
  H  H188  1  0.962200  0.197000  0.571500  1.0
  H  H189  1  0.049300  0.289600  0.913300  1.0
  H  H190  1  0.950700  0.710400  0.413300  1.0
  H  H191  1  0.950700  0.710400  0.086700  1.0
  H  H192  1  0.049300  0.289600  0.586700  1.0
  H  H193  1  0.040400  0.271700  0.875900  1.0
  H  H194  1  0.959600  0.728300  0.375900  1.0
  H  H195  1  0.959600  0.728300  0.124100  1.0
  H  H196  1  0.040400  0.271700  0.624100  1.0
  H  H197  1  0.138500  0.245500  0.899300  1.0
  H  H198  1  0.861500  0.754500  0.399300  1.0
  H  H199  1  0.861500  0.754500  0.100700  1.0
  H  H200  1  0.138500  0.245500  0.600700  1.0
  H  H201  1  0.031200  0.209000  0.840900  1.0
  H  H202  1  0.968800  0.791000  0.340900  1.0
  H  H203  1  0.968800  0.791000  0.159100  1.0
  H  H204  1  0.031200  0.209000  0.659100  1.0
  H  H205  1  0.915800  0.163300  0.825600  1.0
  H  H206  1  0.084200  0.836700  0.325600  1.0
  H  H207  1  0.084200  0.836700  0.174400  1.0
  H  H208  1  0.915800  0.163300  0.674400  1.0
  H  H209  1  0.855000  0.257900  0.830200  1.0
  H  H210  1  0.145000  0.742100  0.330200  1.0
  H  H211  1  0.145000  0.742100  0.169800  1.0
  H  H212  1  0.855000  0.257900  0.669800  1.0
  H  H213  1  0.876200  0.256500  0.868500  1.0
  H  H214  1  0.123800  0.743500  0.368500  1.0
  H  H215  1  0.123800  0.743500  0.131500  1.0
  H  H216  1  0.876200  0.256500  0.631500  1.0
  H  H217  1  0.762200  0.211800  0.852000  1.0
  H  H218  1  0.237800  0.788200  0.352000  1.0
  H  H219  1  0.237800  0.788200  0.148000  1.0
  H  H220  1  0.762200  0.211800  0.648000  1.0
  H  H221  1  0.631900  0.366200  0.939600  1.0
  H  H222  1  0.368100  0.633800  0.439600  1.0
  H  H223  1  0.368100  0.633800  0.060400  1.0
  H  H224  1  0.631900  0.366200  0.560400  1.0
  H  H225  1  0.758200  0.411500  0.950300  1.0
  H  H226  1  0.241800  0.588500  0.450300  1.0
  H  H227  1  0.241800  0.588500  0.049700  1.0
  H  H228  1  0.758200  0.411500  0.549700  1.0
  H  H229  1  0.827300  0.337000  0.918700  1.0
  H  H230  1  0.172700  0.663000  0.418700  1.0
  H  H231  1  0.172700  0.663000  0.081300  1.0
  H  H232  1  0.827300  0.337000  0.581300  1.0
  H  H233  1  0.749400  0.287300  0.941400  1.0
  H  H234  1  0.250600  0.712700  0.441400  1.0
  H  H235  1  0.250600  0.712700  0.058600  1.0
  H  H236  1  0.749400  0.287300  0.558600  1.0
  H  H237  1  0.873800  0.329600  0.955100  1.0
  H  H238  1  0.126200  0.670400  0.455100  1.0
  H  H239  1  0.126200  0.670400  0.044900  1.0
  H  H240  1  0.873800  0.329600  0.544900  1.0
  H  H241  1  0.827000  0.340500  0.034400  1.0
  H  H242  1  0.173000  0.659500  0.534400  1.0
  H  H243  1  0.173000  0.659500  0.965600  1.0
  H  H244  1  0.827000  0.340500  0.465600  1.0
  H  H245  1  0.853200  0.305600  0.002900  1.0
  H  H246  1  0.146800  0.694400  0.502900  1.0
  H  H247  1  0.146800  0.694400  0.997100  1.0
  H  H248  1  0.853200  0.305600  0.497100  1.0
  H  H249  1  0.036700  0.365400  0.015700  1.0
  H  H250  1  0.963300  0.634600  0.515700  1.0
  H  H251  1  0.963300  0.634600  0.984300  1.0
  H  H252  1  0.036700  0.365400  0.484300  1.0
  H  H253  1  0.966100  0.421800  0.017500  1.0
  H  H254  1  0.033900  0.578200  0.517500  1.0
  H  H255  1  0.033900  0.578200  0.982500  1.0
  H  H256  1  0.966100  0.421800  0.482500  1.0
  H  H257  1  0.984700  0.391600  0.983300  1.0
  H  H258  1  0.015300  0.608400  0.483300  1.0
  H  H259  1  0.015300  0.608400  0.016700  1.0
  H  H260  1  0.984700  0.391600  0.516700  1.0
  H  H261  1  0.755200  0.449000  0.013000  1.0
  H  H262  1  0.244800  0.551000  0.513000  1.0
  H  H263  1  0.244800  0.551000  0.987000  1.0
  H  H264  1  0.755200  0.449000  0.487000  1.0
  H  H265  1  0.606000  0.443400  0.003100  1.0
  H  H266  1  0.394000  0.556600  0.503100  1.0
  H  H267  1  0.394000  0.556600  0.996900  1.0
  H  H268  1  0.606000  0.443400  0.496900  1.0
  H  H269  1  0.623900  0.454100  0.059300  1.0
  H  H270  1  0.376100  0.545900  0.559300  1.0
  H  H271  1  0.376100  0.545900  0.940700  1.0
  H  H272  1  0.623900  0.454100  0.440700  1.0
  H  H273  1  0.697800  0.398800  0.061600  1.0
  H  H274  1  0.302200  0.601200  0.561600  1.0
  H  H275  1  0.302200  0.601200  0.938400  1.0
  H  H276  1  0.697800  0.398800  0.438400  1.0
  H  H277  1  0.548500  0.389600  0.051600  1.0
  H  H278  1  0.451500  0.610400  0.551600  1.0
  H  H279  1  0.451500  0.610400  0.948400  1.0
  H  H280  1  0.548500  0.389600  0.448400  1.0
  H  H281  1  0.376700  0.125200  0.017500  1.0
  H  H282  1  0.623300  0.874800  0.517500  1.0
  H  H283  1  0.623300  0.874800  0.982500  1.0
  H  H284  1  0.376700  0.125200  0.482500  1.0
  H  H285  1  0.221100  0.116500  0.017400  1.0
  H  H286  1  0.778900  0.883500  0.517400  1.0
  H  H287  1  0.778900  0.883500  0.982600  1.0
  H  H288  1  0.221100  0.116500  0.482600  1.0
  H  H289  1  0.298500  0.097900  0.964700  1.0
  H  H290  1  0.701500  0.902100  0.464700  1.0
  H  H291  1  0.701500  0.902100  0.035300  1.0
  H  H292  1  0.298500  0.097900  0.535300  1.0
  H  H293  1  0.379600  0.162900  0.963900  1.0
  H  H294  1  0.620400  0.837100  0.463900  1.0
  H  H295  1  0.620400  0.837100  0.036100  1.0
  H  H296  1  0.379600  0.162900  0.536100  1.0
  H  H297  1  0.225000  0.153400  0.963800  1.0
  H  H298  1  0.775000  0.846600  0.463800  1.0
  H  H299  1  0.775000  0.846600  0.036200  1.0
  H  H300  1  0.225000  0.153400  0.536200  1.0
  H  H301  1  0.148700  0.280700  0.008800  1.0
  H  H302  1  0.851300  0.719300  0.508800  1.0
  H  H303  1  0.851300  0.719300  0.991200  1.0
  H  H304  1  0.148700  0.280700  0.491200  1.0
  H  H305  1  0.136000  0.230100  0.981900  1.0
  H  H306  1  0.864000  0.769900  0.481900  1.0
  H  H307  1  0.864000  0.769900  0.018100  1.0
  H  H308  1  0.136000  0.230100  0.518100  1.0
  H  H309  1  0.955500  0.212200  0.016900  1.0
  H  H310  1  0.044500  0.787800  0.516900  1.0
  H  H311  1  0.044500  0.787800  0.983100  1.0
  H  H312  1  0.955500  0.212200  0.483100  1.0
  H  H313  1  0.048900  0.211800  0.047500  1.0
  H  H314  1  0.951100  0.788200  0.547500  1.0
  H  H315  1  0.951100  0.788200  0.952500  1.0
  H  H316  1  0.048900  0.211800  0.452500  1.0
  H  H317  1  0.038800  0.160500  0.021100  1.0
  H  H318  1  0.961200  0.839500  0.521100  1.0
  H  H319  1  0.961200  0.839500  0.978900  1.0
  H  H320  1  0.038800  0.160500  0.478900  1.0
  H  H321  1  0.211200  0.191800  0.068900  1.0
  H  H322  1  0.788800  0.808200  0.568900  1.0
  H  H323  1  0.788800  0.808200  0.931100  1.0
  H  H324  1  0.211200  0.191800  0.431100  1.0
  H  H325  1  0.364800  0.199800  0.072000  1.0
  H  H326  1  0.635200  0.800200  0.572000  1.0
  H  H327  1  0.635200  0.800200  0.928000  1.0
  H  H328  1  0.364800  0.199800  0.428000  1.0
  H  H329  1  0.290000  0.272300  0.102700  1.0
  H  H330  1  0.710000  0.727700  0.602700  1.0
  H  H331  1  0.710000  0.727700  0.897300  1.0
  H  H332  1  0.290000  0.272300  0.397300  1.0
  H  H333  1  0.219400  0.294300  0.071900  1.0
  H  H334  1  0.780600  0.705700  0.571900  1.0
  H  H335  1  0.780600  0.705700  0.928100  1.0
  H  H336  1  0.219400  0.294300  0.428100  1.0
  H  H337  1  0.373900  0.303600  0.073400  1.0
  H  H338  1  0.626100  0.696400  0.573400  1.0
  H  H339  1  0.626100  0.696400  0.926600  1.0
  H  H340  1  0.373900  0.303600  0.426600  1.0
  H  H341  1  0.574800  0.526300  0.823200  1.0
  H  H342  1  0.425200  0.473700  0.323200  1.0
  H  H343  1  0.425200  0.473700  0.176800  1.0
  H  H344  1  0.574800  0.526300  0.676800  1.0
  H  H345  1  0.523500  0.461700  0.838300  1.0
  H  H346  1  0.476500  0.538300  0.338300  1.0
  H  H347  1  0.476500  0.538300  0.161700  1.0
  H  H348  1  0.523500  0.461700  0.661700  1.0
  H  H349  1  0.514600  0.536700  0.879000  1.0
  H  H350  1  0.485400  0.463300  0.379000  1.0
  H  H351  1  0.485400  0.463300  0.121000  1.0
  H  H352  1  0.514600  0.536700  0.621000  1.0
  H  H353  1  0.666700  0.557400  0.874500  1.0
  H  H354  1  0.333300  0.442600  0.374500  1.0
  H  H355  1  0.333300  0.442600  0.125500  1.0
  H  H356  1  0.666700  0.557400  0.625500  1.0
  H  H357  1  0.613600  0.494100  0.889300  1.0
  H  H358  1  0.386400  0.505900  0.389300  1.0
  H  H359  1  0.386400  0.505900  0.110700  1.0
  H  H360  1  0.613600  0.494100  0.610700  1.0
  H  H361  1  0.808200  0.397100  0.865200  1.0
  H  H362  1  0.191800  0.602900  0.365200  1.0
  H  H363  1  0.191800  0.602900  0.134800  1.0
  H  H364  1  0.808200  0.397100  0.634800  1.0
  H  H365  1  0.739600  0.432300  0.891100  1.0
  H  H366  1  0.260400  0.567700  0.391100  1.0
  H  H367  1  0.260400  0.567700  0.108900  1.0
  H  H368  1  0.739600  0.432300  0.608900  1.0
  H  H369  1  0.625000  0.339600  0.882900  1.0
  H  H370  1  0.375000  0.660400  0.382900  1.0
  H  H371  1  0.375000  0.660400  0.117100  1.0
  H  H372  1  0.625000  0.339600  0.617100  1.0
  H  H373  1  0.605500  0.354400  0.845600  1.0
  H  H374  1  0.394500  0.645600  0.345600  1.0
  H  H375  1  0.394500  0.645600  0.154400  1.0
  H  H376  1  0.605500  0.354400  0.654400  1.0
  H  H377  1  0.539100  0.388200  0.873100  1.0
  H  H378  1  0.460900  0.611800  0.373100  1.0
  H  H379  1  0.460900  0.611800  0.126900  1.0
  H  H380  1  0.539100  0.388200  0.626900  1.0
  H  H381  1  0.659200  0.418200  0.798600  1.0
  H  H382  1  0.340800  0.581800  0.298600  1.0
  H  H383  1  0.340800  0.581800  0.201400  1.0
  H  H384  1  0.659200  0.418200  0.701400  1.0
  H  H385  1  0.727500  0.479400  0.783300  1.0
  H  H386  1  0.272500  0.520600  0.283300  1.0
  H  H387  1  0.272500  0.520600  0.216700  1.0
  H  H388  1  0.727500  0.479400  0.716700  1.0
  H  H389  1  0.856300  0.407500  0.771700  1.0
  H  H390  1  0.143700  0.592500  0.271700  1.0
  H  H391  1  0.143700  0.592500  0.228300  1.0
  H  H392  1  0.856300  0.407500  0.728300  1.0
  H  H393  1  0.862300  0.391600  0.809300  1.0
  H  H394  1  0.137700  0.608400  0.309300  1.0
  H  H395  1  0.137700  0.608400  0.190700  1.0
  H  H396  1  0.862300  0.391600  0.690700  1.0
  H  H397  1  0.933700  0.453800  0.796400  1.0
  H  H398  1  0.066300  0.546200  0.296400  1.0
  H  H399  1  0.066300  0.546200  0.203600  1.0
  H  H400  1  0.933700  0.453800  0.703600  1.0
  H  H401  1  0.268800  0.615900  0.806600  1.0
  H  H402  1  0.731200  0.384100  0.306600  1.0
  H  H403  1  0.731200  0.384100  0.193400  1.0
  H  H404  1  0.268800  0.615900  0.693400  1.0
  H  H405  1  0.127600  0.586100  0.792700  1.0
  H  H406  1  0.872400  0.413900  0.292700  1.0
  H  H407  1  0.872400  0.413900  0.207300  1.0
  H  H408  1  0.127600  0.586100  0.707300  1.0
  H  H409  1  0.175700  0.685100  0.773000  1.0
  H  H410  1  0.824300  0.314900  0.273000  1.0
  H  H411  1  0.824300  0.314900  0.227000  1.0
  H  H412  1  0.175700  0.685100  0.727000  1.0
  H  H413  1  0.199200  0.707700  0.809400  1.0
  H  H414  1  0.800800  0.292300  0.309400  1.0
  H  H415  1  0.800800  0.292300  0.190600  1.0
  H  H416  1  0.199200  0.707700  0.690600  1.0
  H  H417  1  0.057400  0.679000  0.797900  1.0
  H  H418  1  0.942600  0.321000  0.297900  1.0
  H  H419  1  0.942600  0.321000  0.202100  1.0
  H  H420  1  0.057400  0.679000  0.702100  1.0
  H  H421  1  0.222800  0.599600  0.888000  1.0
  H  H422  1  0.777200  0.400400  0.388000  1.0
  H  H423  1  0.777200  0.400400  0.112000  1.0
  H  H424  1  0.222800  0.599600  0.612000  1.0
  H  H425  1  0.273100  0.579300  0.854000  1.0
  H  H426  1  0.726900  0.420700  0.354000  1.0
  H  H427  1  0.726900  0.420700  0.146000  1.0
  H  H428  1  0.273100  0.579300  0.646000  1.0
  H  H429  1  0.429800  0.651000  0.878400  1.0
  H  H430  1  0.570200  0.349000  0.378400  1.0
  H  H431  1  0.570200  0.349000  0.121600  1.0
  H  H432  1  0.429800  0.651000  0.621600  1.0
  H  H433  1  0.330300  0.696700  0.877800  1.0
  H  H434  1  0.669700  0.303300  0.377800  1.0
  H  H435  1  0.669700  0.303300  0.122200  1.0
  H  H436  1  0.330300  0.696700  0.622200  1.0
  H  H437  1  0.384500  0.674600  0.844600  1.0
  H  H438  1  0.615500  0.325400  0.344600  1.0
  H  H439  1  0.615500  0.325400  0.155400  1.0
  H  H440  1  0.384500  0.674600  0.655400  1.0
  H  H441  1  0.142000  0.731600  0.864500  1.0
  H  H442  1  0.858000  0.268400  0.364500  1.0
  H  H443  1  0.858000  0.268400  0.135500  1.0
  H  H444  1  0.142000  0.731600  0.635500  1.0
  H  H445  1  0.992100  0.714200  0.855400  1.0
  H  H446  1  0.007900  0.285800  0.355400  1.0
  H  H447  1  0.007900  0.285800  0.144600  1.0
  H  H448  1  0.992100  0.714200  0.644600  1.0
  H  H449  1  0.009700  0.724300  0.911800  1.0
  H  H450  1  0.990300  0.275700  0.411800  1.0
  H  H451  1  0.990300  0.275700  0.088200  1.0
  H  H452  1  0.009700  0.724300  0.588200  1.0
  H  H453  1  0.108100  0.678100  0.913100  1.0
  H  H454  1  0.891900  0.321900  0.413100  1.0
  H  H455  1  0.891900  0.321900  0.086900  1.0
  H  H456  1  0.108100  0.678100  0.586900  1.0
  H  H457  1  0.959900  0.656500  0.903800  1.0
  H  H458  1  0.040100  0.343500  0.403800  1.0
  H  H459  1  0.040100  0.343500  0.096200  1.0
  H  H460  1  0.959900  0.656500  0.596200  1.0
  Pt  Pt461  1  0.762090  0.070480  0.886102  1.0
  Pt  Pt462  1  0.237910  0.929520  0.386102  1.0
  Pt  Pt463  1  0.237910  0.929520  0.113898  1.0
  Pt  Pt464  1  0.762090  0.070480  0.613898  1.0
  Pt  Pt465  1  0.490380  0.283760  0.001617  1.0
  Pt  Pt466  1  0.509620  0.716240  0.501617  1.0
  Pt  Pt467  1  0.509620  0.716240  0.998383  1.0
  Pt  Pt468  1  0.490380  0.283760  0.498383  1.0
  Pt  Pt469  1  0.929580  0.555380  0.845778  1.0
  Pt  Pt470  1  0.070420  0.444620  0.345778  1.0
  Pt  Pt471  1  0.070420  0.444620  0.154222  1.0
  Pt  Pt472  1  0.929580  0.555380  0.654222  1.0
  C  C473  1  0.795800  0.069800  0.935400  1.0
  C  C474  1  0.204200  0.930200  0.435400  1.0
  C  C475  1  0.204200  0.930200  0.064600  1.0
  C  C476  1  0.795800  0.069800  0.564600  1.0
  C  C477  1  0.837000  0.014500  0.949700  1.0
  C  C478  1  0.163000  0.985500  0.449700  1.0
  C  C479  1  0.163000  0.985500  0.050300  1.0
  C  C480  1  0.837000  0.014500  0.550300  1.0
  C  C481  1  0.866000  0.020900  0.981000  1.0
  C  C482  1  0.134000  0.979100  0.481000  1.0
  C  C483  1  0.134000  0.979100  0.019000  1.0
  C  C484  1  0.866000  0.020900  0.519000  1.0
  C  C485  1  0.810000  0.058800  0.001900  1.0
  C  C486  1  0.190000  0.941200  0.501900  1.0
  C  C487  1  0.190000  0.941200  0.998100  1.0
  C  C488  1  0.810000  0.058800  0.498100  1.0
  C  C489  1  0.847800  0.059400  0.035700  1.0
  C  C490  1  0.152200  0.940600  0.535700  1.0
  C  C491  1  0.152200  0.940600  0.964300  1.0
  C  C492  1  0.847800  0.059400  0.464300  1.0
  C  C493  1  0.830000  0.105200  0.055200  1.0
  C  C494  1  0.170000  0.894800  0.555200  1.0
  C  C495  1  0.170000  0.894800  0.944800  1.0
  C  C496  1  0.830000  0.105200  0.444800  1.0
  C  C497  1  0.744800  0.146400  0.044200  1.0
  C  C498  1  0.255200  0.853600  0.544200  1.0
  C  C499  1  0.255200  0.853600  0.955800  1.0
  C  C500  1  0.744800  0.146400  0.455800  1.0
  C  C501  1  0.703500  0.183700  0.066900  1.0
  C  C502  1  0.296500  0.816300  0.566900  1.0
  C  C503  1  0.296500  0.816300  0.933100  1.0
  C  C504  1  0.703500  0.183700  0.433100  1.0
  C  C505  1  0.627000  0.221900  0.054600  1.0
  C  C506  1  0.373000  0.778100  0.554600  1.0
  C  C507  1  0.373000  0.778100  0.945400  1.0
  C  C508  1  0.627000  0.221900  0.445400  1.0
  C  C509  1  0.593100  0.226900  0.021900  1.0
  C  C510  1  0.406900  0.773100  0.521900  1.0
  C  C511  1  0.406900  0.773100  0.978100  1.0
  C  C512  1  0.593100  0.226900  0.478100  1.0
  C  C513  1  0.640500  0.190600  0.001000  1.0
  C  C514  1  0.359500  0.809400  0.501000  1.0
  C  C515  1  0.359500  0.809400  0.999000  1.0
  C  C516  1  0.640500  0.190600  0.499000  1.0
  C  C517  1  0.720300  0.145400  0.011800  1.0
  C  C518  1  0.279700  0.854600  0.511800  1.0
  C  C519  1  0.279700  0.854600  0.988200  1.0
  C  C520  1  0.720300  0.145400  0.488200  1.0
  C  C521  1  0.759000  0.102100  0.988600  1.0
  C  C522  1  0.241000  0.897900  0.488600  1.0
  C  C523  1  0.241000  0.897900  0.011400  1.0
  C  C524  1  0.759000  0.102100  0.511400  1.0
  C  C525  1  0.738000  0.104400  0.956600  1.0
  C  C526  1  0.262000  0.895600  0.456600  1.0
  C  C527  1  0.262000  0.895600  0.043400  1.0
  C  C528  1  0.738000  0.104400  0.543400  1.0
  C  C529  1  0.329400  0.378800  0.986900  1.0
  C  C530  1  0.670600  0.621200  0.486900  1.0
  C  C531  1  0.670600  0.621200  0.013100  1.0
  C  C532  1  0.329400  0.378800  0.513100  1.0
  C  C533  1  0.265100  0.413300  0.968400  1.0
  C  C534  1  0.734900  0.586700  0.468400  1.0
  C  C535  1  0.734900  0.586700  0.031600  1.0
  C  C536  1  0.265100  0.413300  0.531600  1.0
  C  C537  1  0.244100  0.402300  0.935700  1.0
  C  C538  1  0.755900  0.597700  0.435700  1.0
  C  C539  1  0.755900  0.597700  0.064300  1.0
  C  C540  1  0.244100  0.402300  0.564300  1.0
  C  C541  1  0.306000  0.357000  0.923900  1.0
  C  C542  1  0.694000  0.643000  0.423900  1.0
  C  C543  1  0.694000  0.643000  0.076100  1.0
  C  C544  1  0.306000  0.357000  0.576100  1.0
  C  C545  1  0.369100  0.327600  0.943900  1.0
  C  C546  1  0.630900  0.672400  0.443900  1.0
  C  C547  1  0.630900  0.672400  0.056100  1.0
  C  C548  1  0.369100  0.327600  0.556100  1.0
  C  C549  1  0.170000  0.440400  0.913600  1.0
  C  C550  1  0.830000  0.559600  0.413600  1.0
  C  C551  1  0.830000  0.559600  0.086400  1.0
  C  C552  1  0.170000  0.440400  0.586400  1.0
  C  C553  1  0.084900  0.470900  0.927200  1.0
  C  C554  1  0.915100  0.529100  0.427200  1.0
  C  C555  1  0.915100  0.529100  0.072800  1.0
  C  C556  1  0.084900  0.470900  0.572800  1.0
  C  C557  1  0.021800  0.504300  0.907000  1.0
  C  C558  1  0.978200  0.495700  0.407000  1.0
  C  C559  1  0.978200  0.495700  0.093000  1.0
  C  C560  1  0.021800  0.504300  0.593000  1.0
  C  C561  1  0.106000  0.474100  0.860300  1.0
  C  C562  1  0.894000  0.525900  0.360300  1.0
  C  C563  1  0.894000  0.525900  0.139700  1.0
  C  C564  1  0.106000  0.474100  0.639700  1.0
  C  C565  1  0.177000  0.429500  0.882500  1.0
  C  C566  1  0.823000  0.570500  0.382500  1.0
  C  C567  1  0.823000  0.570500  0.117500  1.0
  C  C568  1  0.177000  0.429500  0.617500  1.0
  C  C569  1  0.823900  0.604300  0.820700  1.0
  C  C570  1  0.176100  0.395700  0.320700  1.0
  C  C571  1  0.176100  0.395700  0.179300  1.0
  C  C572  1  0.823900  0.604300  0.679300  1.0
  C  C573  1  0.753000  0.641500  0.835000  1.0
  C  C574  1  0.247000  0.358500  0.335000  1.0
  C  C575  1  0.247000  0.358500  0.165000  1.0
  C  C576  1  0.753000  0.641500  0.665000  1.0
  C  C577  1  0.692000  0.679100  0.819000  1.0
  C  C578  1  0.308000  0.320900  0.319000  1.0
  C  C579  1  0.308000  0.320900  0.181000  1.0
  C  C580  1  0.692000  0.679100  0.681000  1.0
  C  C581  1  0.677600  0.671300  0.783000  1.0
  C  C582  1  0.322400  0.328700  0.283000  1.0
  C  C583  1  0.322400  0.328700  0.217000  1.0
  C  C584  1  0.677600  0.671300  0.717000  1.0
  C  C585  1  0.752800  0.638800  0.767400  1.0
  C  C586  1  0.247200  0.361200  0.267400  1.0
  C  C587  1  0.247200  0.361200  0.232600  1.0
  C  C588  1  0.752800  0.638800  0.732600  1.0
  C  C589  1  0.601000  0.705800  0.765800  1.0
  C  C590  1  0.399000  0.294200  0.265800  1.0
  C  C591  1  0.399000  0.294200  0.234200  1.0
  C  C592  1  0.601000  0.705800  0.734200  1.0
  C  C593  1  0.822400  0.605900  0.786000  1.0
  C  C594  1  0.177600  0.394100  0.286000  1.0
  C  C595  1  0.177600  0.394100  0.214000  1.0
  C  C596  1  0.822400  0.605900  0.714000  1.0
  C  C597  1  0.804000  0.035100  0.817000  1.0
  C  C598  1  0.196000  0.964900  0.317000  1.0
  C  C599  1  0.196000  0.964900  0.183000  1.0
  C  C600  1  0.804000  0.035100  0.683000  1.0
  C  C601  1  0.807000  0.035300  0.784900  1.0
  C  C602  1  0.193000  0.964700  0.284900  1.0
  C  C603  1  0.193000  0.964700  0.215100  1.0
  C  C604  1  0.807000  0.035300  0.715100  1.0
  C  C605  1  0.731000  0.069600  0.768800  1.0
  C  C606  1  0.269000  0.930400  0.268800  1.0
  C  C607  1  0.269000  0.930400  0.231200  1.0
  C  C608  1  0.731000  0.069600  0.731200  1.0
  C  C609  1  0.660000  0.103400  0.786700  1.0
  C  C610  1  0.340000  0.896600  0.286700  1.0
  C  C611  1  0.340000  0.896600  0.213300  1.0
  C  C612  1  0.660000  0.103400  0.713300  1.0
  C  C613  1  0.677500  0.103300  0.818100  1.0
  C  C614  1  0.322500  0.896700  0.318100  1.0
  C  C615  1  0.322500  0.896700  0.181900  1.0
  C  C616  1  0.677500  0.103300  0.681900  1.0
  C  C617  1  0.459000  0.991300  0.856200  1.0
  C  C618  1  0.541000  0.008700  0.356200  1.0
  C  C619  1  0.541000  0.008700  0.143800  1.0
  C  C620  1  0.459000  0.991300  0.643800  1.0
  C  C621  1  0.320000  0.959000  0.850500  1.0
  C  C622  1  0.680000  0.041000  0.350500  1.0
  C  C623  1  0.680000  0.041000  0.149500  1.0
  C  C624  1  0.320000  0.959000  0.649500  1.0
  C  C625  1  0.471000  0.035400  0.925500  1.0
  C  C626  1  0.529000  0.964600  0.425500  1.0
  C  C627  1  0.529000  0.964600  0.074500  1.0
  C  C628  1  0.471000  0.035400  0.574500  1.0
  C  C629  1  0.504000  0.001800  0.954900  1.0
  C  C630  1  0.496000  0.998200  0.454900  1.0
  C  C631  1  0.496000  0.998200  0.045100  1.0
  C  C632  1  0.504000  0.001800  0.545100  1.0
  C  C633  1  0.584000  0.925700  0.898200  1.0
  C  C634  1  0.416000  0.074300  0.398200  1.0
  C  C635  1  0.416000  0.074300  0.101800  1.0
  C  C636  1  0.584000  0.925700  0.601800  1.0
  C  C637  1  0.676000  0.921000  0.870100  1.0
  C  C638  1  0.324000  0.079000  0.370100  1.0
  C  C639  1  0.324000  0.079000  0.129900  1.0
  C  C640  1  0.676000  0.921000  0.629900  1.0
  C  C641  1  0.088000  0.126000  0.856000  1.0
  C  C642  1  0.912000  0.874000  0.356000  1.0
  C  C643  1  0.912000  0.874000  0.144000  1.0
  C  C644  1  0.088000  0.126000  0.644000  1.0
  C  C645  1  0.132000  0.078000  0.876600  1.0
  C  C646  1  0.868000  0.922000  0.376600  1.0
  C  C647  1  0.868000  0.922000  0.123400  1.0
  C  C648  1  0.132000  0.078000  0.623400  1.0
  C  C649  1  0.952000  0.207500  0.905600  1.0
  C  C650  1  0.048000  0.792500  0.405600  1.0
  C  C651  1  0.048000  0.792500  0.094400  1.0
  C  C652  1  0.952000  0.207500  0.594400  1.0
  C  C653  1  0.054000  0.258000  0.897900  1.0
  C  C654  1  0.946000  0.742000  0.397900  1.0
  C  C655  1  0.946000  0.742000  0.102100  1.0
  C  C656  1  0.054000  0.258000  0.602100  1.0
  C  C657  1  0.943000  0.187800  0.844800  1.0
  C  C658  1  0.057000  0.812200  0.344800  1.0
  C  C659  1  0.057000  0.812200  0.155200  1.0
  C  C660  1  0.943000  0.187800  0.655200  1.0
  C  C661  1  0.851000  0.233000  0.849300  1.0
  C  C662  1  0.149000  0.767000  0.349300  1.0
  C  C663  1  0.149000  0.767000  0.150700  1.0
  C  C664  1  0.851000  0.233000  0.650700  1.0
  C  C665  1  0.713000  0.371000  0.952400  1.0
  C  C666  1  0.287000  0.629000  0.452400  1.0
  C  C667  1  0.287000  0.629000  0.047600  1.0
  C  C668  1  0.713000  0.371000  0.547600  1.0
  C  C669  1  0.798000  0.327000  0.940900  1.0
  C  C670  1  0.202000  0.673000  0.440900  1.0
  C  C671  1  0.202000  0.673000  0.059100  1.0
  C  C672  1  0.798000  0.327000  0.559100  1.0
  C  C673  1  0.838000  0.345000  0.010700  1.0
  C  C674  1  0.162000  0.655000  0.510700  1.0
  C  C675  1  0.162000  0.655000  0.989300  1.0
  C  C676  1  0.838000  0.345000  0.489300  1.0
  C  C677  1  0.968000  0.384000  0.006400  1.0
  C  C678  1  0.032000  0.616000  0.506400  1.0
  C  C679  1  0.032000  0.616000  0.993600  1.0
  C  C680  1  0.968000  0.384000  0.493600  1.0
  C  C681  1  0.670000  0.423700  0.014600  1.0
  C  C682  1  0.330000  0.576300  0.514600  1.0
  C  C683  1  0.330000  0.576300  0.985400  1.0
  C  C684  1  0.670000  0.423700  0.485400  1.0
  C  C685  1  0.632000  0.415900  0.049900  1.0
  C  C686  1  0.368000  0.584100  0.549900  1.0
  C  C687  1  0.368000  0.584100  0.950100  1.0
  C  C688  1  0.632000  0.415900  0.450100  1.0
  C  C689  1  0.301000  0.140100  0.008600  1.0
  C  C690  1  0.699000  0.859900  0.508600  1.0
  C  C691  1  0.699000  0.859900  0.991400  1.0
  C  C692  1  0.301000  0.140100  0.491400  1.0
  C  C693  1  0.301000  0.138400  0.972000  1.0
  C  C694  1  0.699000  0.861600  0.472000  1.0
  C  C695  1  0.699000  0.861600  0.028000  1.0
  C  C696  1  0.301000  0.138400  0.528000  1.0
  C  C697  1  0.149000  0.238300  0.005200  1.0
  C  C698  1  0.851000  0.761700  0.505200  1.0
  C  C699  1  0.851000  0.761700  0.994800  1.0
  C  C700  1  0.149000  0.238300  0.494800  1.0
  C  C701  1  0.038000  0.202400  0.024400  1.0
  C  C702  1  0.962000  0.797600  0.524400  1.0
  C  C703  1  0.962000  0.797600  0.975600  1.0
  C  C704  1  0.038000  0.202400  0.475600  1.0
  C  C705  1  0.293000  0.217700  0.063100  1.0
  C  C706  1  0.707000  0.782300  0.563100  1.0
  C  C707  1  0.707000  0.782300  0.936900  1.0
  C  C708  1  0.293000  0.217700  0.436900  1.0
  C  C709  1  0.294000  0.277300  0.079200  1.0
  C  C710  1  0.706000  0.722700  0.579200  1.0
  C  C711  1  0.706000  0.722700  0.920800  1.0
  C  C712  1  0.294000  0.277300  0.420800  1.0
  C  C713  1  0.589000  0.497700  0.840200  1.0
  C  C714  1  0.411000  0.502300  0.340200  1.0
  C  C715  1  0.411000  0.502300  0.159800  1.0
  C  C716  1  0.589000  0.497700  0.659800  1.0
  C  C717  1  0.597000  0.524000  0.873700  1.0
  C  C718  1  0.403000  0.476000  0.373700  1.0
  C  C719  1  0.403000  0.476000  0.126300  1.0
  C  C720  1  0.597000  0.524000  0.626300  1.0
  C  C721  1  0.733000  0.417100  0.868700  1.0
  C  C722  1  0.267000  0.582900  0.368700  1.0
  C  C723  1  0.267000  0.582900  0.131300  1.0
  C  C724  1  0.733000  0.417100  0.631300  1.0
  C  C725  1  0.616000  0.370900  0.867500  1.0
  C  C726  1  0.384000  0.629100  0.367500  1.0
  C  C727  1  0.384000  0.629100  0.132500  1.0
  C  C728  1  0.616000  0.370900  0.632500  1.0
  C  C729  1  0.736000  0.449200  0.799700  1.0
  C  C730  1  0.264000  0.550800  0.299700  1.0
  C  C731  1  0.264000  0.550800  0.200300  1.0
  C  C732  1  0.736000  0.449200  0.700300  1.0
  C  C733  1  0.858000  0.423000  0.793700  1.0
  C  C734  1  0.142000  0.577000  0.293700  1.0
  C  C735  1  0.142000  0.577000  0.206300  1.0
  C  C736  1  0.858000  0.423000  0.706300  1.0
  C  C737  1  0.176000  0.619000  0.805400  1.0
  C  C738  1  0.824000  0.381000  0.305400  1.0
  C  C739  1  0.824000  0.381000  0.194600  1.0
  C  C740  1  0.176000  0.619000  0.694600  1.0
  C  C741  1  0.150000  0.678000  0.795600  1.0
  C  C742  1  0.850000  0.322000  0.295600  1.0
  C  C743  1  0.850000  0.322000  0.204400  1.0
  C  C744  1  0.150000  0.678000  0.704400  1.0
  C  C745  1  0.245200  0.612600  0.865600  1.0
  C  C746  1  0.754800  0.387400  0.365600  1.0
  C  C747  1  0.754800  0.387400  0.134400  1.0
  C  C748  1  0.245200  0.612600  0.634400  1.0
  C  C749  1  0.357000  0.663200  0.866700  1.0
  C  C750  1  0.643000  0.336800  0.366700  1.0
  C  C751  1  0.643000  0.336800  0.133300  1.0
  C  C752  1  0.357000  0.663200  0.633300  1.0
  C  C753  1  0.065000  0.700400  0.866400  1.0
  C  C754  1  0.935000  0.299600  0.366400  1.0
  C  C755  1  0.935000  0.299600  0.133600  1.0
  C  C756  1  0.065000  0.700400  0.633600  1.0
  C  C757  1  0.033000  0.688800  0.902000  1.0
  C  C758  1  0.967000  0.311200  0.402000  1.0
  C  C759  1  0.967000  0.311200  0.098000  1.0
  C  C760  1  0.033000  0.688800  0.598000  1.0
  N  N761  1  0.508000  0.808700  0.102100  1
  N  N762  1  0.492000  0.191300  0.602100  1
  N  N763  1  0.492000  0.191300  0.897900  1
  N  N764  1  0.508000  0.808700  0.397900  1
  N  N765  1  0.238000  0.456800  0.045700  1
  N  N766  1  0.762000  0.543200  0.545700  1
  N  N767  1  0.762000  0.543200  0.954300  1
  N  N768  1  0.238000  0.456800  0.454300  1
  N  N769  1  0.341000  0.853000  0.655800  1
  N  N770  1  0.659000  0.147000  0.155800  1
  N  N771  1  0.659000  0.147000  0.344200  1
  N  N772  1  0.341000  0.853000  0.844200  1
  N  N773  1  0.742400  0.070300  0.833900  1.0
  N  N774  1  0.257600  0.929700  0.333900  1.0
  N  N775  1  0.257600  0.929700  0.166100  1.0
  N  N776  1  0.742400  0.070300  0.666100  1.0
  N  N777  1  0.378800  0.336900  0.974400  1.0
  N  N778  1  0.621200  0.663100  0.474400  1.0
  N  N779  1  0.621200  0.663100  0.025600  1.0
  N  N780  1  0.378800  0.336900  0.525600  1.0
  N  N781  1  0.026400  0.503500  0.875500  1.0
  N  N782  1  0.973600  0.496500  0.375500  1.0
  N  N783  1  0.973600  0.496500  0.124500  1.0
  N  N784  1  0.026400  0.503500  0.624500  1.0
  O  O785  1  0.447000  0.795300  0.077700  1
  O  O786  1  0.553000  0.204700  0.577700  1
  O  O787  1  0.553000  0.204700  0.922300  1
  O  O788  1  0.447000  0.795300  0.422300  1
  O  O789  1  0.591000  0.778500  0.109900  1
  O  O790  1  0.409000  0.221500  0.609900  1
  O  O791  1  0.409000  0.221500  0.890100  1
  O  O792  1  0.591000  0.778500  0.390100  1
  O  O793  1  0.525000  0.838900  0.126400  1
  O  O794  1  0.475000  0.161100  0.626400  1
  O  O795  1  0.475000  0.161100  0.873600  1
  O  O796  1  0.525000  0.838900  0.373600  1
  O  O797  1  0.202000  0.411300  0.061800  1
  O  O798  1  0.798000  0.588700  0.561800  1
  O  O799  1  0.798000  0.588700  0.938200  1
  O  O800  1  0.202000  0.411300  0.438200  1
  O  O801  1  0.153000  0.480200  0.033100  1
  O  O802  1  0.847000  0.519800  0.533100  1
  O  O803  1  0.847000  0.519800  0.966900  1
  O  O804  1  0.153000  0.480200  0.466900  1
  O  O805  1  0.353000  0.473000  0.041200  1
  O  O806  1  0.647000  0.527000  0.541200  1
  O  O807  1  0.647000  0.527000  0.958800  1
  O  O808  1  0.353000  0.473000  0.458800  1
  O  O809  1  0.381000  0.807000  0.664600  1
  O  O810  1  0.619000  0.193000  0.164600  1
  O  O811  1  0.619000  0.193000  0.335400  1
  O  O812  1  0.381000  0.807000  0.835400  1
  O  O813  1  0.229000  0.851000  0.644300  1
  O  O814  1  0.771000  0.149000  0.144300  1
  O  O815  1  0.771000  0.149000  0.355700  1
  O  O816  1  0.229000  0.851000  0.855700  1
  O  O817  1  0.390000  0.907000  0.654300  1
  O  O818  1  0.610000  0.093000  0.154300  1
  O  O819  1  0.610000  0.093000  0.345700  1
  O  O820  1  0.390000  0.907000  0.845700  1
