# generated using pymatgen
data_Si2P2H56PdC30N4(OF2)6
_symmetry_space_group_name_H-M   'P 1'
_cell_length_a   12.53580000
_cell_length_b   15.24700000
_cell_length_c   23.85560000
_cell_angle_alpha   96.87500000
_cell_angle_beta   90.00000000
_cell_angle_gamma   90.00000000
_symmetry_Int_Tables_number   1
_chemical_formula_structural   Si2P2H56PdC30N4(OF2)6
_chemical_formula_sum   'Si8 P8 H224 Pd4 C120 N16 O24 F48'
_cell_volume   4526.81552134
_cell_formula_units_Z   4
loop_
 _symmetry_equiv_pos_site_id
 _symmetry_equiv_pos_as_xyz
  1  'x, y, z'
loop_
 _atom_site_type_symbol
 _atom_site_label
 _atom_site_symmetry_multiplicity
 _atom_site_fract_x
 _atom_site_fract_y
 _atom_site_fract_z
 _atom_site_occupancy
  Si  Si1  1  0.149930  0.142470  0.342730  1.0
  Si  Si2  1  0.649930  0.857530  0.157270  1.0
  Si  Si3  1  0.850070  0.857530  0.657270  1.0
  Si  Si4  1  0.350070  0.142470  0.842730  1.0
  Si  Si5  1  0.151440  0.930800  0.313750  1.0
  Si  Si6  1  0.651440  0.069200  0.186250  1.0
  Si  Si7  1  0.848560  0.069200  0.686250  1.0
  Si  Si8  1  0.348560  0.930800  0.813750  1.0
  P  P9  1  0.810910  0.522980  0.577540  1
  P  P10  1  0.310910  0.477020  0.922460  1
  P  P11  1  0.189090  0.477020  0.422460  1
  P  P12  1  0.689090  0.522980  0.077540  1
  P  P13  1  0.438330  0.016830  0.618990  1
  P  P14  1  0.938330  0.983170  0.881010  1
  P  P15  1  0.561670  0.983170  0.381010  1
  P  P16  1  0.061670  0.016830  0.118990  1
  H  H17  1  0.723300  0.800800  0.911400  1
  H  H18  1  0.223300  0.199200  0.588600  1
  H  H19  1  0.276700  0.199200  0.088600  1
  H  H20  1  0.776700  0.800800  0.411400  1
  H  H21  1  0.700400  0.811500  0.846400  1
  H  H22  1  0.200400  0.188500  0.653600  1
  H  H23  1  0.299600  0.188500  0.153600  1
  H  H24  1  0.799600  0.811500  0.346400  1
  H  H25  1  0.753600  0.665700  0.820500  1
  H  H26  1  0.253600  0.334300  0.679500  1
  H  H27  1  0.246400  0.334300  0.179500  1
  H  H28  1  0.746400  0.665700  0.320500  1
  H  H29  1  0.847800  0.722100  0.852900  1
  H  H30  1  0.347800  0.277900  0.647100  1
  H  H31  1  0.152200  0.277900  0.147100  1
  H  H32  1  0.652200  0.722100  0.352900  1
  H  H33  1  0.676900  0.559600  0.932600  1
  H  H34  1  0.176900  0.440400  0.567400  1
  H  H35  1  0.323100  0.440400  0.067400  1
  H  H36  1  0.823100  0.559600  0.432600  1
  H  H37  1  0.654100  0.568400  0.867400  1
  H  H38  1  0.154100  0.431600  0.632600  1
  H  H39  1  0.345900  0.431600  0.132600  1
  H  H40  1  0.845900  0.568400  0.367400  1
  H  H41  1  0.525900  0.646700  0.923500  1
  H  H42  1  0.025900  0.353300  0.576500  1
  H  H43  1  0.474100  0.353300  0.076500  1
  H  H44  1  0.974100  0.646700  0.423500  1
  H  H45  1  0.617200  0.703300  0.958100  1
  H  H46  1  0.117200  0.296700  0.541900  1
  H  H47  1  0.382800  0.296700  0.041900  1
  H  H48  1  0.882800  0.703300  0.458100  1
  H  H49  1  0.713400  0.389800  0.701100  1
  H  H50  1  0.213400  0.610200  0.798900  1
  H  H51  1  0.286600  0.610200  0.298900  1
  H  H52  1  0.786600  0.389800  0.201100  1
  H  H53  1  0.763800  0.460100  0.749300  1
  H  H54  1  0.263800  0.539900  0.750700  1
  H  H55  1  0.236200  0.539900  0.250700  1
  H  H56  1  0.736200  0.460100  0.249300  1
  H  H57  1  0.697600  0.324800  0.775400  1
  H  H58  1  0.197600  0.675200  0.724600  1
  H  H59  1  0.302400  0.675200  0.224600  1
  H  H60  1  0.802400  0.324800  0.275400  1
  H  H61  1  0.672400  0.414300  0.814800  1
  H  H62  1  0.172400  0.585700  0.685200  1
  H  H63  1  0.327600  0.585700  0.185200  1
  H  H64  1  0.827600  0.414300  0.314800  1
  H  H65  1  0.417800  0.403200  0.752700  1
  H  H66  1  0.917800  0.596800  0.747300  1
  H  H67  1  0.582200  0.596800  0.247300  1
  H  H68  1  0.082200  0.403200  0.252700  1
  H  H69  1  0.479800  0.474900  0.795000  1
  H  H70  1  0.979800  0.525100  0.705000  1
  H  H71  1  0.520200  0.525100  0.205000  1
  H  H72  1  0.020200  0.474900  0.295000  1
  H  H73  1  0.511100  0.435700  0.679400  1
  H  H74  1  0.011100  0.564300  0.820600  1
  H  H75  1  0.488900  0.564300  0.320600  1
  H  H76  1  0.988900  0.435700  0.179400  1
  H  H77  1  0.479000  0.529000  0.714200  1
  H  H78  1  0.979000  0.471000  0.785800  1
  H  H79  1  0.521000  0.471000  0.285800  1
  H  H80  1  0.021000  0.529000  0.214200  1
  H  H81  1  0.766200  0.125300  0.375900  1.0
  H  H82  1  0.266200  0.874700  0.124100  1.0
  H  H83  1  0.233800  0.874700  0.624100  1.0
  H  H84  1  0.733800  0.125300  0.875900  1.0
  H  H85  1  0.926700  0.081700  0.333800  1.0
  H  H86  1  0.426700  0.918300  0.166200  1.0
  H  H87  1  0.073300  0.918300  0.666200  1.0
  H  H88  1  0.573300  0.081700  0.833800  1.0
  H  H89  1  0.065900  0.294000  0.421400  1.0
  H  H90  1  0.565900  0.706000  0.078600  1.0
  H  H91  1  0.934100  0.706000  0.578600  1.0
  H  H92  1  0.434100  0.294000  0.921400  1.0
  H  H93  1  0.901900  0.334800  0.459900  1.0
  H  H94  1  0.401900  0.665200  0.040100  1.0
  H  H95  1  0.098100  0.665200  0.540100  1.0
  H  H96  1  0.598100  0.334800  0.959900  1.0
  H  H97  1  0.240100  0.160100  0.258900  1.0
  H  H98  1  0.740100  0.839900  0.241100  1.0
  H  H99  1  0.759900  0.839900  0.741100  1.0
  H  H100  1  0.259900  0.160100  0.758900  1.0
  H  H101  1  0.182900  0.250700  0.283100  1.0
  H  H102  1  0.682900  0.749300  0.216900  1.0
  H  H103  1  0.817100  0.749300  0.716900  1.0
  H  H104  1  0.317100  0.250700  0.783100  1.0
  H  H105  1  0.114400  0.171900  0.250500  1.0
  H  H106  1  0.614400  0.828100  0.249500  1.0
  H  H107  1  0.885600  0.828100  0.749500  1.0
  H  H108  1  0.385600  0.171900  0.750500  1.0
  H  H109  1  0.238400  0.159400  0.430600  1.0
  H  H110  1  0.738400  0.840600  0.069400  1.0
  H  H111  1  0.761600  0.840600  0.569400  1.0
  H  H112  1  0.261600  0.159400  0.930600  1.0
  H  H113  1  0.263400  0.242200  0.397300  1.0
  H  H114  1  0.763400  0.757800  0.102700  1.0
  H  H115  1  0.736600  0.757800  0.602700  1.0
  H  H116  1  0.236600  0.242200  0.897300  1.0
  H  H117  1  0.324000  0.150500  0.380400  1.0
  H  H118  1  0.824000  0.849500  0.119600  1.0
  H  H119  1  0.676000  0.849500  0.619600  1.0
  H  H120  1  0.176000  0.150500  0.880400  1.0
  H  H121  1  0.966500  0.898700  0.315200  1.0
  H  H122  1  0.466500  0.101300  0.184800  1.0
  H  H123  1  0.033500  0.101300  0.684800  1.0
  H  H124  1  0.533500  0.898700  0.815200  1.0
  H  H125  1  0.027700  0.821500  0.276600  1.0
  H  H126  1  0.527700  0.178500  0.223400  1.0
  H  H127  1  0.972300  0.178500  0.723400  1.0
  H  H128  1  0.472300  0.821500  0.776600  1.0
  H  H129  1  0.002200  0.912700  0.252400  1.0
  H  H130  1  0.502200  0.087300  0.247600  1.0
  H  H131  1  0.997800  0.087300  0.747600  1.0
  H  H132  1  0.497800  0.912700  0.752400  1.0
  H  H133  1  0.244600  0.938900  0.228900  1.0
  H  H134  1  0.744600  0.061100  0.271100  1.0
  H  H135  1  0.755400  0.061100  0.771100  1.0
  H  H136  1  0.255400  0.938900  0.728900  1.0
  H  H137  1  0.267500  0.846000  0.251500  1.0
  H  H138  1  0.767500  0.154000  0.248500  1.0
  H  H139  1  0.732500  0.154000  0.748500  1.0
  H  H140  1  0.232500  0.846000  0.751500  1.0
  H  H141  1  0.327300  0.933200  0.279500  1.0
  H  H142  1  0.827300  0.066800  0.220500  1.0
  H  H143  1  0.672700  0.066800  0.720500  1.0
  H  H144  1  0.172700  0.933200  0.779500  1.0
  H  H145  1  0.114600  0.759900  0.361000  1.0
  H  H146  1  0.614600  0.240100  0.139000  1.0
  H  H147  1  0.885400  0.240100  0.639000  1.0
  H  H148  1  0.385400  0.759900  0.861000  1.0
  H  H149  1  0.824100  0.302700  0.562200  1.0
  H  H150  1  0.324100  0.697300  0.937800  1.0
  H  H151  1  0.175900  0.697300  0.437800  1.0
  H  H152  1  0.675900  0.302700  0.062200  1.0
  H  H153  1  0.668600  0.084500  0.505700  1.0
  H  H154  1  0.168600  0.915500  0.994300  1.0
  H  H155  1  0.331400  0.915500  0.494300  1.0
  H  H156  1  0.831400  0.084500  0.005700  1.0
  H  H157  1  0.273400  0.983400  0.418000  1.0
  H  H158  1  0.773400  0.016600  0.082000  1.0
  H  H159  1  0.726600  0.016600  0.582000  1.0
  H  H160  1  0.226600  0.983400  0.918000  1.0
  H  H161  1  0.586200  0.314800  0.316900  1.0
  H  H162  1  0.086200  0.685200  0.183100  1.0
  H  H163  1  0.413800  0.685200  0.683100  1.0
  H  H164  1  0.913800  0.314800  0.816900  1.0
  H  H165  1  0.592500  0.222500  0.342300  1.0
  H  H166  1  0.092500  0.777500  0.157700  1.0
  H  H167  1  0.407500  0.777500  0.657700  1.0
  H  H168  1  0.907500  0.222500  0.842300  1.0
  H  H169  1  0.699500  0.275700  0.332300  1.0
  H  H170  1  0.199500  0.724300  0.167700  1.0
  H  H171  1  0.300500  0.724300  0.667700  1.0
  H  H172  1  0.800500  0.275700  0.832300  1.0
  H  H173  1  0.745900  0.406500  0.393500  1.0
  H  H174  1  0.245900  0.593500  0.106500  1.0
  H  H175  1  0.254100  0.593500  0.606500  1.0
  H  H176  1  0.754100  0.406500  0.893500  1.0
  H  H177  1  0.660800  0.450200  0.438500  1.0
  H  H178  1  0.160800  0.549800  0.061500  1.0
  H  H179  1  0.339200  0.549800  0.561500  1.0
  H  H180  1  0.839200  0.450200  0.938500  1.0
  H  H181  1  0.637900  0.447800  0.372300  1.0
  H  H182  1  0.137900  0.552200  0.127700  1.0
  H  H183  1  0.362100  0.552200  0.627700  1.0
  H  H184  1  0.862100  0.447800  0.872300  1.0
  H  H185  1  0.460600  0.287800  0.401900  1.0
  H  H186  1  0.960600  0.712200  0.098100  1.0
  H  H187  1  0.539400  0.712200  0.598100  1.0
  H  H188  1  0.039400  0.287800  0.901900  1.0
  H  H189  1  0.472700  0.391200  0.396700  1.0
  H  H190  1  0.972700  0.608800  0.103300  1.0
  H  H191  1  0.527300  0.608800  0.603300  1.0
  H  H192  1  0.027300  0.391200  0.896700  1.0
  H  H193  1  0.411100  0.366700  0.487300  1.0
  H  H194  1  0.911100  0.633300  0.012700  1.0
  H  H195  1  0.588900  0.633300  0.512700  1.0
  H  H196  1  0.088900  0.366700  0.987300  1.0
  H  H197  1  0.522100  0.419300  0.491000  1.0
  H  H198  1  0.022100  0.580700  0.009000  1.0
  H  H199  1  0.477900  0.580700  0.509000  1.0
  H  H200  1  0.977900  0.419300  0.991000  1.0
  H  H201  1  0.397500  0.227800  0.518400  1.0
  H  H202  1  0.897500  0.772200  0.981600  1.0
  H  H203  1  0.602500  0.772200  0.481600  1.0
  H  H204  1  0.102500  0.227800  0.018400  1.0
  H  H205  1  0.499800  0.166000  0.522100  1.0
  H  H206  1  0.999800  0.834000  0.977900  1.0
  H  H207  1  0.500200  0.834000  0.477900  1.0
  H  H208  1  0.000200  0.166000  0.022100  1.0
  H  H209  1  0.458700  0.188900  0.462000  1.0
  H  H210  1  0.958700  0.811100  0.038000  1.0
  H  H211  1  0.541300  0.811100  0.538000  1.0
  H  H212  1  0.041300  0.188900  0.962000  1.0
  H  H213  1  0.603600  0.369500  0.572000  1.0
  H  H214  1  0.103600  0.630500  0.928000  1.0
  H  H215  1  0.396400  0.630500  0.428000  1.0
  H  H216  1  0.896400  0.369500  0.072000  1.0
  H  H217  1  0.572100  0.273600  0.587700  1.0
  H  H218  1  0.072100  0.726400  0.912300  1.0
  H  H219  1  0.427900  0.726400  0.412300  1.0
  H  H220  1  0.927900  0.273600  0.087700  1.0
  H  H221  1  0.481300  0.346000  0.582500  1.0
  H  H222  1  0.981300  0.654000  0.917500  1.0
  H  H223  1  0.518700  0.654000  0.417500  1.0
  H  H224  1  0.018700  0.346000  0.082500  1.0
  H  H225  1  0.143400  0.023900  0.559000  1.0
  H  H226  1  0.643400  0.976100  0.941000  1.0
  H  H227  1  0.856600  0.976100  0.441000  1.0
  H  H228  1  0.356600  0.023900  0.059000  1.0
  H  H229  1  0.020300  0.021700  0.577000  1.0
  H  H230  1  0.520300  0.978300  0.923000  1.0
  H  H231  1  0.979700  0.978300  0.423000  1.0
  H  H232  1  0.479700  0.021700  0.077000  1.0
  H  H233  1  0.904500  0.922000  0.526400  1.0
  H  H234  1  0.404500  0.078000  0.973600  1.0
  H  H235  1  0.095500  0.078000  0.473600  1.0
  H  H236  1  0.595500  0.922000  0.026400  1.0
  H  H237  1  0.947800  0.856700  0.473600  1.0
  H  H238  1  0.447800  0.143300  0.026400  1.0
  H  H239  1  0.052200  0.143300  0.526400  1.0
  H  H240  1  0.552200  0.856700  0.973600  1.0
  Pd  Pd241  1  0.679650  0.261826  0.463957  1.0
  Pd  Pd242  1  0.179650  0.738174  0.036043  1.0
  Pd  Pd243  1  0.320350  0.738174  0.536043  1.0
  Pd  Pd244  1  0.820350  0.261826  0.963957  1.0
  C  C245  1  0.700500  0.769000  0.874700  1
  C  C246  1  0.200500  0.231000  0.625300  1
  C  C247  1  0.299500  0.231000  0.125300  1
  C  C248  1  0.799500  0.769000  0.374700  1
  C  C249  1  0.775800  0.697400  0.857300  1
  C  C250  1  0.275800  0.302600  0.642700  1
  C  C251  1  0.224200  0.302600  0.142700  1
  C  C252  1  0.724200  0.697400  0.357300  1
  C  C253  1  0.675700  0.601400  0.903900  1
  C  C254  1  0.175700  0.398600  0.596100  1
  C  C255  1  0.324300  0.398600  0.096100  1
  C  C256  1  0.824300  0.601400  0.403900  1
  C  C257  1  0.597800  0.672600  0.920600  1
  C  C258  1  0.097800  0.327400  0.579400  1
  C  C259  1  0.402200  0.327400  0.079400  1
  C  C260  1  0.902200  0.672600  0.420600  1
  C  C261  1  0.697200  0.429600  0.735900  1
  C  C262  1  0.197200  0.570400  0.764100  1
  C  C263  1  0.302800  0.570400  0.264100  1
  C  C264  1  0.802800  0.429600  0.235900  1
  C  C265  1  0.657000  0.380800  0.777500  1
  C  C266  1  0.157000  0.619200  0.722500  1
  C  C267  1  0.343000  0.619200  0.222500  1
  C  C268  1  0.843000  0.380800  0.277500  1
  C  C269  1  0.488500  0.430300  0.761500  1
  C  C270  1  0.988500  0.569700  0.738500  1
  C  C271  1  0.511500  0.569700  0.238500  1
  C  C272  1  0.011500  0.430300  0.261500  1
  C  C273  1  0.520600  0.474200  0.715500  1
  C  C274  1  0.020600  0.525800  0.784500  1
  C  C275  1  0.479400  0.525800  0.284500  1
  C  C276  1  0.979400  0.474200  0.215500  1
  C  C277  1  0.828000  0.160100  0.385090  1.0
  C  C278  1  0.328000  0.839900  0.114910  1.0
  C  C279  1  0.172000  0.839900  0.614910  1.0
  C  C280  1  0.672000  0.160100  0.885090  1.0
  C  C281  1  0.923900  0.133500  0.360120  1.0
  C  C282  1  0.423900  0.866500  0.139880  1.0
  C  C283  1  0.076100  0.866500  0.639880  1.0
  C  C284  1  0.576100  0.133500  0.860120  1.0
  C  C285  1  0.016700  0.182100  0.373210  1.0
  C  C286  1  0.516700  0.817900  0.126790  1.0
  C  C287  1  0.983300  0.817900  0.626790  1.0
  C  C288  1  0.483300  0.182100  0.873210  1.0
  C  C289  1  0.005300  0.258200  0.411300  1.0
  C  C290  1  0.505300  0.741800  0.088700  1.0
  C  C291  1  0.994700  0.741800  0.588700  1.0
  C  C292  1  0.494700  0.258200  0.911300  1.0
  C  C293  1  0.907300  0.282200  0.434400  1.0
  C  C294  1  0.407300  0.717800  0.065600  1.0
  C  C295  1  0.092700  0.717800  0.565600  1.0
  C  C296  1  0.592700  0.282200  0.934400  1.0
  C  C297  1  0.174700  0.186400  0.276100  1.0
  C  C298  1  0.674700  0.813600  0.223900  1.0
  C  C299  1  0.825300  0.813600  0.723900  1.0
  C  C300  1  0.325300  0.186400  0.776100  1.0
  C  C301  1  0.256400  0.177800  0.393700  1.0
  C  C302  1  0.756400  0.822200  0.106300  1.0
  C  C303  1  0.743600  0.822200  0.606300  1.0
  C  C304  1  0.243600  0.177800  0.893700  1.0
  C  C305  1  0.021600  0.885600  0.286200  1.0
  C  C306  1  0.521600  0.114400  0.213800  1.0
  C  C307  1  0.978400  0.114400  0.713800  1.0
  C  C308  1  0.478400  0.885600  0.786200  1.0
  C  C309  1  0.260400  0.909800  0.262400  1.0
  C  C310  1  0.760400  0.090200  0.237600  1.0
  C  C311  1  0.739600  0.090200  0.737600  1.0
  C  C312  1  0.239600  0.909800  0.762400  1.0
  C  C313  1  0.190200  0.878600  0.378820  1.0
  C  C314  1  0.690200  0.121400  0.121180  1.0
  C  C315  1  0.809800  0.121400  0.621180  1.0
  C  C316  1  0.309800  0.878600  0.878820  1.0
  C  C317  1  0.160500  0.792800  0.387400  1.0
  C  C318  1  0.660500  0.207200  0.112600  1.0
  C  C319  1  0.839500  0.207200  0.612600  1.0
  C  C320  1  0.339500  0.792800  0.887400  1.0
  C  C321  1  0.803300  0.244100  0.566800  1.0
  C  C322  1  0.303300  0.755900  0.933200  1.0
  C  C323  1  0.196700  0.755900  0.433200  1.0
  C  C324  1  0.696700  0.244100  0.066800  1.0
  C  C325  1  0.712200  0.116600  0.533560  1.0
  C  C326  1  0.212200  0.883400  0.966440  1.0
  C  C327  1  0.287800  0.883400  0.466440  1.0
  C  C328  1  0.787800  0.116600  0.033560  1.0
  C  C329  1  0.253600  0.923900  0.420780  1.0
  C  C330  1  0.753600  0.076100  0.079220  1.0
  C  C331  1  0.746400  0.076100  0.579220  1.0
  C  C332  1  0.246400  0.923900  0.920780  1.0
  C  C333  1  0.624200  0.281400  0.343300  1.0
  C  C334  1  0.124200  0.718600  0.156700  1.0
  C  C335  1  0.375800  0.718600  0.656700  1.0
  C  C336  1  0.875800  0.281400  0.843300  1.0
  C  C337  1  0.669700  0.415700  0.401400  1.0
  C  C338  1  0.169700  0.584300  0.098600  1.0
  C  C339  1  0.330300  0.584300  0.598600  1.0
  C  C340  1  0.830300  0.415700  0.901400  1.0
  C  C341  1  0.501300  0.341800  0.415600  1.0
  C  C342  1  0.001300  0.658200  0.084400  1.0
  C  C343  1  0.498700  0.658200  0.584400  1.0
  C  C344  1  0.998700  0.341800  0.915600  1.0
  C  C345  1  0.488000  0.362000  0.477800  1.0
  C  C346  1  0.988000  0.638000  0.022200  1.0
  C  C347  1  0.512000  0.638000  0.522200  1.0
  C  C348  1  0.012000  0.362000  0.977800  1.0
  C  C349  1  0.467400  0.211600  0.501900  1.0
  C  C350  1  0.967400  0.788400  0.998100  1.0
  C  C351  1  0.532600  0.788400  0.498100  1.0
  C  C352  1  0.032600  0.211600  0.001900  1.0
  C  C353  1  0.549700  0.322600  0.567300  1.0
  C  C354  1  0.049700  0.677400  0.932700  1.0
  C  C355  1  0.450300  0.677400  0.432700  1.0
  C  C356  1  0.950300  0.322600  0.067300  1.0
  C  C357  1  0.069800  0.014800  0.544400  1.0
  C  C358  1  0.569800  0.985200  0.955600  1.0
  C  C359  1  0.930200  0.985200  0.455600  1.0
  C  C360  1  0.430200  0.014800  0.044400  1.0
  C  C361  1  0.955500  0.916500  0.494400  1.0
  C  C362  1  0.455500  0.083500  0.005600  1.0
  C  C363  1  0.044500  0.083500  0.505600  1.0
  C  C364  1  0.544500  0.916500  0.994400  1.0
  N  N365  1  0.819200  0.233400  0.421980  1.0
  N  N366  1  0.319200  0.766600  0.078020  1.0
  N  N367  1  0.180800  0.766600  0.578020  1.0
  N  N368  1  0.680800  0.233400  0.921980  1.0
  N  N369  1  0.738600  0.199600  0.527700  1.0
  N  N370  1  0.238600  0.800400  0.972300  1.0
  N  N371  1  0.261400  0.800400  0.472300  1.0
  N  N372  1  0.761400  0.199600  0.027700  1.0
  N  N373  1  0.615800  0.328500  0.401150  1.0
  N  N374  1  0.115800  0.671500  0.098850  1.0
  N  N375  1  0.384200  0.671500  0.598850  1.0
  N  N376  1  0.884200  0.328500  0.901150  1.0
  N  N377  1  0.537600  0.290900  0.506960  1.0
  N  N378  1  0.037600  0.709100  0.993040  1.0
  N  N379  1  0.462400  0.709100  0.493040  1.0
  N  N380  1  0.962400  0.290900  0.006960  1.0
  O  O381  1  0.595700  0.735100  0.879900  1
  O  O382  1  0.095700  0.264900  0.620100  1
  O  O383  1  0.404300  0.264900  0.120100  1
  O  O384  1  0.904300  0.735100  0.379900  1
  O  O385  1  0.778400  0.637600  0.898800  1
  O  O386  1  0.278400  0.362400  0.601200  1
  O  O387  1  0.221600  0.362400  0.101200  1
  O  O388  1  0.721600  0.637600  0.398800  1
  O  O389  1  0.620000  0.491700  0.724800  1
  O  O390  1  0.120000  0.508300  0.775200  1
  O  O391  1  0.380000  0.508300  0.275200  1
  O  O392  1  0.880000  0.491700  0.224800  1
  O  O393  1  0.561000  0.362200  0.776200  1
  O  O394  1  0.061000  0.637800  0.723800  1
  O  O395  1  0.439000  0.637800  0.223800  1
  O  O396  1  0.939000  0.362200  0.276200  1
  O  O397  1  0.139300  0.035600  0.333860  1.0
  O  O398  1  0.639300  0.964400  0.166140  1.0
  O  O399  1  0.860700  0.964400  0.666140  1.0
  O  O400  1  0.360700  0.035600  0.833860  1.0
  O  O401  1  0.060000  0.927900  0.515230  1.0
  O  O402  1  0.560000  0.072100  0.984770  1.0
  O  O403  1  0.940000  0.072100  0.484770  1.0
  O  O404  1  0.440000  0.927900  0.015230  1.0
  F  F405  1  0.811300  0.595000  0.630980  1
  F  F406  1  0.311300  0.405000  0.869020  1
  F  F407  1  0.188700  0.405000  0.369020  1
  F  F408  1  0.688700  0.595000  0.130980  1
  F  F409  1  0.686700  0.511300  0.582600  1
  F  F410  1  0.186700  0.488700  0.917400  1
  F  F411  1  0.313300  0.488700  0.417400  1
  F  F412  1  0.813300  0.511300  0.082600  1
  F  F413  1  0.793800  0.599100  0.538560  1
  F  F414  1  0.293800  0.400900  0.961440  1
  F  F415  1  0.206200  0.400900  0.461440  1
  F  F416  1  0.706200  0.599100  0.038560  1
  F  F417  1  0.934700  0.534100  0.572400  1
  F  F418  1  0.434700  0.465900  0.927600  1
  F  F419  1  0.065300  0.465900  0.427600  1
  F  F420  1  0.565300  0.534100  0.072400  1
  F  F421  1  0.827500  0.447000  0.616370  1
  F  F422  1  0.327500  0.553000  0.883630  1
  F  F423  1  0.172500  0.553000  0.383630  1
  F  F424  1  0.672500  0.447000  0.116370  1
  F  F425  1  0.810400  0.449900  0.524150  1
  F  F426  1  0.310400  0.550100  0.975850  1
  F  F427  1  0.189600  0.550100  0.475850  1
  F  F428  1  0.689600  0.449900  0.024150  1
  F  F429  1  0.537200  0.989000  0.652800  1
  F  F430  1  0.037200  0.011000  0.847200  1
  F  F431  1  0.462800  0.011000  0.347200  1
  F  F432  1  0.962800  0.989000  0.152800  1
  F  F433  1  0.408000  0.916000  0.604800  1
  F  F434  1  0.908000  0.084000  0.895200  1
  F  F435  1  0.592000  0.084000  0.395200  1
  F  F436  1  0.092000  0.916000  0.104800  1
  F  F437  1  0.514300  0.006300  0.566000  1
  F  F438  1  0.014300  0.993700  0.934000  1
  F  F439  1  0.485700  0.993700  0.434000  1
  F  F440  1  0.985700  0.006300  0.066000  1
  F  F441  1  0.467500  0.117900  0.631350  1
  F  F442  1  0.967500  0.882100  0.868650  1
  F  F443  1  0.532500  0.882100  0.368650  1
  F  F444  1  0.032500  0.117900  0.131350  1
  F  F445  1  0.361800  0.024000  0.668400  1
  F  F446  1  0.861800  0.976000  0.831600  1
  F  F447  1  0.638200  0.976000  0.331600  1
  F  F448  1  0.138200  0.024000  0.168400  1
  F  F449  1  0.348700  0.040000  0.577500  1
  F  F450  1  0.848700  0.960000  0.922500  1
  F  F451  1  0.651300  0.960000  0.422500  1
  F  F452  1  0.151300  0.040000  0.077500  1
