# generated using pymatgen
data_H71Pd2C40N14Cl3O16
_symmetry_space_group_name_H-M   'P 1'
_cell_length_a   13.27500000
_cell_length_b   15.21600000
_cell_length_c   15.51300000
_cell_angle_alpha   110.66000000
_cell_angle_beta   104.68000000
_cell_angle_gamma   101.53000000
_symmetry_Int_Tables_number   1
_chemical_formula_structural   H71Pd2C40N14Cl3O16
_chemical_formula_sum   'H142 Pd4 C80 N28 Cl6 O32'
_cell_volume   2687.51804674
_cell_formula_units_Z   2
loop_
 _symmetry_equiv_pos_site_id
 _symmetry_equiv_pos_as_xyz
  1  'x, y, z'
loop_
 _atom_site_type_symbol
 _atom_site_label
 _atom_site_symmetry_multiplicity
 _atom_site_fract_x
 _atom_site_fract_y
 _atom_site_fract_z
 _atom_site_occupancy
  H  H1  1  0.426800  0.367500  0.911400  1
  H  H2  1  0.573200  0.632500  0.088600  1
  H  H3  1  0.551900  0.429200  0.938500  1
  H  H4  1  0.448100  0.570800  0.061500  1
  H  H5  1  0.508700  0.420800  0.023600  1
  H  H6  1  0.491300  0.579200  0.976400  1
  H  H7  1  0.582900  0.204900  0.835600  1
  H  H8  1  0.417100  0.795100  0.164400  1
  H  H9  1  0.548000  0.290400  0.810600  1
  H  H10  1  0.452000  0.709600  0.189400  1
  H  H11  1  0.455700  0.195000  0.795200  1
  H  H12  1  0.544300  0.805000  0.204800  1
  H  H13  1  0.387300  0.196400  0.905000  1
  H  H14  1  0.612700  0.803600  0.095000  1
  H  H15  1  0.438400  0.272700  0.019000  1
  H  H16  1  0.561600  0.727300  0.981000  1
  H  H17  1  0.451100  0.122600  0.014200  1
  H  H18  1  0.548900  0.877400  0.985800  1
  H  H19  1  0.501600  0.104500  0.928200  1
  H  H20  1  0.498400  0.895500  0.071800  1
  H  H21  1  0.742700  0.153300  0.078100  1
  H  H22  1  0.257300  0.846700  0.921900  1
  H  H23  1  0.640000  0.080700  0.979800  1
  H  H24  1  0.360000  0.919300  0.020200  1
  H  H25  1  0.638300  0.085300  0.084100  1
  H  H26  1  0.361700  0.914700  0.915900  1
  H  H27  1  0.566900  0.289500  0.171600  1
  H  H28  1  0.433100  0.710500  0.828400  1
  H  H29  1  0.684100  0.276800  0.211700  1
  H  H30  1  0.315900  0.723200  0.788300  1
  H  H31  1  0.574000  0.187300  0.176100  1
  H  H32  1  0.426000  0.812700  0.823900  1
  H  H33  1  0.884900  0.248400  0.039800  1
  H  H34  1  0.115100  0.751600  0.960200  1
  H  H35  1  0.067800  0.290600  0.147200  1
  H  H36  1  0.932200  0.709400  0.852800  1
  H  H37  1  0.133100  0.416600  0.307700  1
  H  H38  1  0.866900  0.583400  0.692300  1
  H  H39  1  0.830000  0.455800  0.249500  1
  H  H40  1  0.170000  0.544200  0.750500  1
  H  H41  1  0.153600  0.790200  0.699800  1
  H  H42  1  0.846400  0.209800  0.300200  1
  H  H43  1  0.099800  0.904500  0.810800  1
  H  H44  1  0.900200  0.095500  0.189200  1
  H  H45  1  0.924500  0.917900  0.755700  1
  H  H46  1  0.075500  0.082100  0.244300  1
  H  H47  1  0.847400  0.693700  0.495500  1
  H  H48  1  0.152600  0.306300  0.504500  1
  H  H49  1  0.701500  0.620600  0.601900  1
  H  H50  1  0.298500  0.379400  0.398100  1
  H  H51  1  0.608400  0.613300  0.508600  1
  H  H52  1  0.391600  0.386700  0.491400  1
  H  H53  1  0.575400  0.591800  0.593200  1
  H  H54  1  0.424600  0.408200  0.406800  1
  H  H55  1  0.652400  0.759400  0.766200  1
  H  H56  1  0.347600  0.240600  0.233800  1
  H  H57  1  0.743700  0.841800  0.760900  1
  H  H58  1  0.256300  0.158200  0.239100  1
  H  H59  1  0.755700  0.734400  0.740500  1
  H  H60  1  0.244300  0.265600  0.259500  1
  H  H61  1  0.550600  0.817500  0.687200  1
  H  H62  1  0.449400  0.182500  0.312800  1
  H  H63  1  0.488600  0.700100  0.634000  1
  H  H64  1  0.511400  0.299900  0.366000  1
  H  H65  1  0.458500  0.697500  0.471600  1
  H  H66  1  0.541500  0.302500  0.528400  1
  H  H67  1  0.418400  0.785700  0.529600  1
  H  H68  1  0.581600  0.214300  0.470400  1
  H  H69  1  0.496200  0.945300  0.563000  1
  H  H70  1  0.503800  0.054700  0.437000  1
  H  H71  1  0.614500  0.986800  0.558500  1
  H  H72  1  0.385500  0.013200  0.441500  1
  H  H73  1  0.604700  0.955900  0.645300  1
  H  H74  1  0.395300  0.044100  0.354700  1
  H  H75  1  0.517300  0.746300  0.367400  1
  H  H76  1  0.482700  0.253700  0.632600  1
  H  H77  1  0.578500  0.859900  0.396000  1
  H  H78  1  0.421500  0.140100  0.604000  1
  H  H79  1  0.453900  0.826100  0.390200  1
  H  H80  1  0.546100  0.173900  0.609800  1
  H  H81  1  0.828900  0.032400  0.607700  1
  H  H82  1  0.171100  0.967600  0.392300  1
  H  H83  1  0.902800  0.119600  0.531500  1
  H  H84  1  0.097200  0.880400  0.468500  1
  H  H85  1  0.917500  0.033600  0.381800  1
  H  H86  1  0.082500  0.966400  0.618200  1
  H  H87  1  0.757200  0.774800  0.381200  1
  H  H88  1  0.242800  0.225200  0.618800  1
  H  H89  1  0.902800  0.655900  0.988900  1
  H  H90  1  0.097200  0.344100  0.011100  1
  H  H91  1  0.884000  0.494000  0.882900  1
  H  H92  1  0.116000  0.506000  0.117100  1
  H  H93  1  0.803500  0.361800  0.911000  1
  H  H94  1  0.196500  0.638200  0.089000  1
  H  H95  1  0.745200  0.543400  0.139800  1
  H  H96  1  0.254800  0.456600  0.860200  1
  H  H97  1  0.103800  0.546800  0.423900  1
  H  H98  1  0.896200  0.453200  0.576100  1
  H  H99  1  0.111600  0.669100  0.540100  1
  H  H100  1  0.888400  0.330900  0.459900  1
  H  H101  1  0.844200  0.873700  0.232600  1
  H  H102  1  0.155800  0.126300  0.767400  1
  H  H103  1  0.847600  0.757400  0.113500  1
  H  H104  1  0.152400  0.242600  0.886500  1
  H  H105  1  0.245000  0.544000  0.542000  1
  H  H106  1  0.755000  0.456000  0.458000  1
  H  H107  1  0.258000  0.644000  0.584000  1
  H  H108  1  0.742000  0.356000  0.416000  1
  H  H109  1  0.289000  0.501000  0.334000  1
  H  H110  1  0.711000  0.499000  0.666000  1
  H  H111  1  0.684200  0.112900  0.852200  1
  H  H112  1  0.315800  0.887100  0.147800  1
  H  H113  1  0.722000  0.223900  0.862400  1
  H  H114  1  0.278000  0.776100  0.137600  1
  H  H115  1  0.795800  0.191900  0.937300  1
  H  H116  1  0.204200  0.808100  0.062700  1
  H  H117  1  0.904100  0.284700  0.837300  1
  H  H118  1  0.095900  0.715300  0.162700  1
  H  H119  1  0.927900  0.198400  0.753700  1
  H  H120  1  0.072100  0.801600  0.246300  1
  H  H121  1  0.816500  0.028100  0.837000  1
  H  H122  1  0.183500  0.971900  0.163000  1
  H  H123  1  0.868300  0.034000  0.755800  1
  H  H124  1  0.131700  0.966000  0.244200  1
  H  H125  1  0.737700  0.996700  0.726900  1
  H  H126  1  0.262300  0.003300  0.273100  1
  H  H127  1  0.740400  0.234300  0.562900  1
  H  H128  1  0.259600  0.765700  0.437100  1
  H  H129  1  0.853000  0.209600  0.568900  1
  H  H130  1  0.147000  0.790400  0.431100  1
  H  H131  1  0.852400  0.321300  0.597500  1
  H  H132  1  0.147600  0.678700  0.402500  1
  H  H133  1  0.737600  0.124300  0.664000  1
  H  H134  1  0.262400  0.875700  0.336000  1
  H  H135  1  0.713000  0.212000  0.746000  1
  H  H136  1  0.287000  0.788000  0.254000  1
  H  H137  1  0.909500  0.418100  0.777600  1
  H  H138  1  0.090500  0.581900  0.222400  1
  H  H139  1  0.976400  0.366900  0.713600  1
  H  H140  1  0.023600  0.633100  0.286400  1
  H  H141  1  0.977900  0.353100  0.811500  1
  H  H142  1  0.022100  0.646900  0.188500  1
  Pd  Pd143  1  0.689350  0.321540  0.042000  1
  Pd  Pd144  1  0.310650  0.678460  0.958000  1
  Pd  Pd145  1  0.718190  0.819660  0.567700  1
  Pd  Pd146  1  0.281810  0.180340  0.432300  1
  C  C147  1  0.502700  0.385800  0.955000  1
  C  C148  1  0.497300  0.614200  0.045000  1
  C  C149  1  0.529800  0.241400  0.836400  1
  C  C150  1  0.470200  0.758600  0.163600  1
  C  C151  1  0.456100  0.231200  0.963200  1
  C  C152  1  0.543900  0.768800  0.036800  1
  C  C153  1  0.499900  0.155700  0.988300  1
  C  C154  1  0.500100  0.844300  0.011700  1
  C  C155  1  0.662500  0.124100  0.050000  1
  C  C156  1  0.337500  0.875900  0.950000  1
  C  C157  1  0.608900  0.242800  0.164200  1
  C  C158  1  0.391100  0.757200  0.835800  1
  C  C159  1  0.910300  0.298700  0.105100  1
  C  C160  1  0.089700  0.701300  0.894900  1
  C  C161  1  0.020500  0.325000  0.169700  1
  C  C162  1  0.979500  0.675000  0.830300  1
  C  C163  1  0.060000  0.400200  0.264900  1
  C  C164  1  0.940000  0.599800  0.735100  1
  C  C165  1  0.989200  0.451100  0.296300  1
  C  C166  1  0.010800  0.548900  0.703700  1
  C  C167  1  0.878500  0.421700  0.229400  1
  C  C168  1  0.121500  0.578300  0.770600  1
  C  C169  1  0.973000  0.577900  0.438600  1
  C  C170  1  0.027000  0.422100  0.561400  1
  C  C171  1  0.005600  0.728000  0.587500  1
  C  C172  1  0.994400  0.272000  0.412500  1
  C  C173  1  0.080900  0.793100  0.680700  1
  C  C174  1  0.919100  0.206900  0.319300  1
  C  C175  1  0.050300  0.862300  0.745600  1
  C  C176  1  0.949700  0.137700  0.254400  1
  C  C177  1  0.945200  0.868400  0.713100  1
  C  C178  1  0.054800  0.131600  0.286900  1
  C  C179  1  0.898800  0.737200  0.559500  1
  C  C180  1  0.101200  0.262800  0.440500  1
  C  C181  1  0.631300  0.631900  0.579500  1
  C  C182  1  0.368700  0.368100  0.420500  1
  C  C183  1  0.703500  0.770800  0.732500  1
  C  C184  1  0.296500  0.229200  0.267500  1
  C  C185  1  0.538400  0.755400  0.630200  1
  C  C186  1  0.461600  0.244600  0.369800  1
  C  C187  1  0.483400  0.763500  0.527600  1
  C  C188  1  0.516600  0.236500  0.472400  1
  C  C189  1  0.570400  0.940100  0.575500  1
  C  C190  1  0.429600  0.059900  0.424500  1
  C  C191  1  0.525200  0.815100  0.407800  1
  C  C192  1  0.474800  0.184900  0.592200  1
  C  C193  1  0.830200  0.996700  0.544200  1
  C  C194  1  0.169800  0.003300  0.455800  1
  C  C195  1  0.876100  0.049200  0.500400  1
  C  C196  1  0.123900  0.950800  0.499600  1
  C  C197  1  0.882800  0.998700  0.412000  1
  C  C198  1  0.117200  0.001300  0.588000  1
  C  C199  1  0.838400  0.894500  0.364200  1
  C  C200  1  0.161600  0.105500  0.635800  1
  C  C201  1  0.788900  0.844900  0.412200  1
  C  C202  1  0.211100  0.155100  0.587800  1
  C  C203  1  0.830300  0.744900  0.226400  1
  C  C204  1  0.169700  0.255100  0.773600  1
  C  C205  1  0.825900  0.615500  0.076500  1
  C  C206  1  0.174100  0.384500  0.923500  1
  C  C207  1  0.867900  0.600800  0.998300  1
  C  C208  1  0.132100  0.399200  0.001700  1
  C  C209  1  0.857200  0.505100  0.935900  1
  C  C210  1  0.142800  0.494900  0.064100  1
  C  C211  1  0.807700  0.426900  0.951700  1
  C  C212  1  0.192300  0.573100  0.048300  1
  C  C213  1  0.774000  0.534700  0.088300  1
  C  C214  1  0.226000  0.465300  0.911700  1
  C  C215  1  0.747600  0.169700  0.869200  1
  C  C216  1  0.252400  0.830300  0.130800  1
  C  C217  1  0.876000  0.236000  0.768000  1
  C  C218  1  0.124000  0.764000  0.232000  1
  C  C219  1  0.807000  0.042400  0.779000  1
  C  C220  1  0.193000  0.957600  0.221000  1
  C  C221  1  0.820000  0.259000  0.599300  1
  C  C222  1  0.180000  0.741000  0.400700  1
  C  C223  1  0.765000  0.175000  0.733000  1
  C  C224  1  0.235000  0.825000  0.267000  1
  C  C225  1  0.933000  0.359600  0.755000  1
  C  C226  1  0.067000  0.640400  0.245000  1
  N  N227  1  0.534300  0.294500  0.942400  1
  N  N228  1  0.465700  0.705500  0.057600  1
  N  N229  1  0.611400  0.204900  0.062500  1
  N  N230  1  0.388600  0.795100  0.937500  1
  N  N231  1  0.842600  0.346700  0.138700  1
  N  N232  1  0.157400  0.653300  0.861300  1
  N  N233  1  0.032700  0.528700  0.391900  1
  N  N234  1  0.967300  0.471300  0.608100  1
  N  N235  1  0.040400  0.659200  0.523800  1
  N  N236  1  0.959600  0.340800  0.476200  1
  N  N237  1  0.869100  0.803100  0.618800  1
  N  N238  1  0.130900  0.196900  0.381200  1
  N  N239  1  0.644500  0.737500  0.632000  1
  N  N240  1  0.355500  0.262500  0.368000  1
  N  N241  1  0.564000  0.834900  0.512800  1
  N  N242  1  0.436000  0.165100  0.487200  1
  N  N243  1  0.786800  0.897400  0.502300  1
  N  N244  1  0.213200  0.102600  0.497700  1
  N  N245  1  0.838300  0.840400  0.268300  1
  N  N246  1  0.161700  0.159600  0.731700  1
  N  N247  1  0.836200  0.713100  0.137200  1
  N  N248  1  0.163800  0.286900  0.862800  1
  N  N249  1  0.764600  0.440200  0.023600  1
  N  N250  1  0.235400  0.559800  0.976400  1
  N  N251  1  0.806400  0.141500  0.805000  1
  N  N252  1  0.193600  0.858500  0.195000  1
  N  N253  1  0.839200  0.273700  0.698500  1
  N  N254  1  0.160800  0.726300  0.301500  1
  Cl  Cl255  1  0.566200  0.512100  0.279800  1
  Cl  Cl256  1  0.433800  0.487900  0.720200  1
  Cl  Cl257  1  0.839900  0.880100  0.009700  1
  Cl  Cl258  1  0.160100  0.119900  0.990300  1
  Cl  Cl259  1  0.632400  0.049100  0.286900  1
  Cl  Cl260  1  0.367600  0.950900  0.713100  1
  O  O261  1  0.815000  0.690200  0.264700  1
  O  O262  1  0.185000  0.309800  0.735300  1
  O  O263  1  0.871200  0.550900  0.409200  1
  O  O264  1  0.128800  0.449100  0.590800  1
  O  O265  1  0.573800  0.452500  0.334600  1
  O  O266  1  0.426200  0.547500  0.665400  1
  O  O267  1  0.617800  0.478800  0.206800  1
  O  O268  1  0.382200  0.521200  0.793200  1
  O  O269  1  0.625000  0.615300  0.350000  1
  O  O270  1  0.375000  0.384700  0.650000  1
  O  O271  1  0.460900  0.501000  0.238000  1
  O  O272  1  0.539100  0.499000  0.762000  1
  O  O273  1  0.891400  0.900400  0.111700  1
  O  O274  1  0.108600  0.099600  0.888300  1
  O  O275  1  0.908500  0.874200  0.957000  1
  O  O276  1  0.091500  0.125800  0.043000  1
  O  O277  1  0.791000  0.949500  0.000500  1
  O  O278  1  0.209000  0.050500  0.999500  1
  O  O279  1  0.769000  0.785000  0.962700  1
  O  O280  1  0.231000  0.215000  0.037300  1
  O  O281  1  0.619000  0.992400  0.341600  1
  O  O282  1  0.381000  0.007600  0.658400  1
  O  O283  1  0.695300  0.012700  0.229000  1
  O  O284  1  0.304700  0.987300  0.771000  1
  O  O285  1  0.524600  0.042100  0.226000  1
  O  O286  1  0.475400  0.957900  0.774000  1
  O  O287  1  0.689700  0.149900  0.355300  1
  O  O288  1  0.310300  0.850100  0.644700  1
  O  O289  1  0.252000  0.595000  0.532000  1
  O  O290  1  0.748000  0.405000  0.468000  1
  O  O291  1  0.314900  0.561300  0.351000  1
  O  O292  1  0.685100  0.438700  0.649000  1
