# generated using pymatgen
data_H18PdC21N6Cl2O9
_symmetry_space_group_name_H-M   'P 1'
_cell_length_a   13.77210000
_cell_length_b   14.32830000
_cell_length_c   15.20610000
_cell_angle_alpha   72.72300000
_cell_angle_beta   78.25500000
_cell_angle_gamma   76.97900000
_symmetry_Int_Tables_number   1
_chemical_formula_structural   H18PdC21N6Cl2O9
_chemical_formula_sum   'H72 Pd4 C84 N24 Cl8 O36'
_cell_volume   2761.29662401
_cell_formula_units_Z   4
loop_
 _symmetry_equiv_pos_site_id
 _symmetry_equiv_pos_as_xyz
  1  'x, y, z'
loop_
 _atom_site_type_symbol
 _atom_site_label
 _atom_site_symmetry_multiplicity
 _atom_site_fract_x
 _atom_site_fract_y
 _atom_site_fract_z
 _atom_site_occupancy
  H  H1  1  0.070600  0.149600  0.884000  1
  H  H2  1  0.929400  0.850400  0.116000  1
  H  H3  1  0.947100  0.272000  0.919400  1
  H  H4  1  0.052900  0.728000  0.080600  1
  H  H5  1  0.983600  0.402900  0.953500  1
  H  H6  1  0.016400  0.597100  0.046500  1
  H  H7  1  0.149500  0.405900  0.957900  1
  H  H8  1  0.850500  0.594100  0.042100  1
  H  H9  1  0.316300  0.403900  0.947000  1
  H  H10  1  0.683700  0.596100  0.053000  1
  H  H11  1  0.486300  0.390700  0.932900  1
  H  H12  1  0.513700  0.609300  0.067100  1
  H  H13  1  0.591000  0.253000  0.891900  1
  H  H14  1  0.409000  0.747000  0.108100  1
  H  H15  1  0.522200  0.138200  0.861400  1
  H  H16  1  0.477800  0.861800  0.138600  1
  H  H17  1  0.455400  0.924900  0.938500  1
  H  H18  1  0.544600  0.075100  0.061500  1
  H  H19  1  0.603700  0.834900  0.886800  1
  H  H20  1  0.396300  0.165100  0.113200  1
  H  H21  1  0.668400  0.871300  0.730300  1
  H  H22  1  0.331600  0.128700  0.269700  1
  H  H23  1  0.433400  0.091900  0.685300  1
  H  H24  1  0.566600  0.908100  0.314700  1
  H  H25  1  0.687800  0.123200  0.271400  1
  H  H26  1  0.312200  0.876800  0.728600  1
  H  H27  1  0.642700  0.246400  0.141800  1
  H  H28  1  0.357300  0.753600  0.858200  1
  H  H29  1  0.498600  0.364200  0.157300  1
  H  H30  1  0.501400  0.635800  0.842700  1
  H  H31  1  0.439300  0.234600  0.422500  1
  H  H32  1  0.560700  0.765400  0.577500  1
  H  H33  1  0.550900  0.429500  0.328900  1
  H  H34  1  0.449100  0.570500  0.671100  1
  H  H35  1  0.625700  0.534700  0.367900  1
  H  H36  1  0.374300  0.465300  0.632100  1
  H  H37  1  0.529200  0.680400  0.395900  1
  H  H38  1  0.470800  0.319600  0.604100  1
  H  H39  1  0.360800  0.718200  0.375500  1
  H  H40  1  0.639200  0.281800  0.624500  1
  H  H41  1  0.202300  0.748500  0.343100  1
  H  H42  1  0.797700  0.251500  0.656900  1
  H  H43  1  0.034800  0.749800  0.337300  1
  H  H44  1  0.965200  0.250200  0.662700  1
  H  H45  1  0.989100  0.615700  0.320100  1
  H  H46  1  0.010900  0.384300  0.679900  1
  H  H47  1  0.106900  0.477700  0.309300  1
  H  H48  1  0.893100  0.522300  0.690700  1
  H  H49  1  0.245000  0.364300  0.166500  1
  H  H50  1  0.755000  0.635700  0.833500  1
  H  H51  1  0.127600  0.273500  0.166500  1
  H  H52  1  0.872400  0.726500  0.833500  1
  H  H53  1  0.065300  0.170100  0.304400  1
  H  H54  1  0.934700  0.829900  0.695600  1
  H  H55  1  0.232600  0.261400  0.436900  1
  H  H56  1  0.767400  0.738600  0.563100  1
  H  H57  1  0.042900  0.911600  0.759700  1
  H  H58  1  0.957100  0.088400  0.240300  1
  H  H59  1  0.099100  0.850000  0.903800  1
  H  H60  1  0.900900  0.150000  0.096200  1
  H  H61  1  0.210200  0.921900  0.941500  1
  H  H62  1  0.789800  0.078100  0.058500  1
  H  H63  1  0.220000  0.114000  0.697400  1
  H  H64  1  0.780000  0.886000  0.302600  1
  H  H65  1  0.644500  0.965600  0.574200  1
  H  H66  1  0.355500  0.034400  0.425800  1
  H  H67  1  0.637800  0.037000  0.430100  1
  H  H68  1  0.362200  0.963000  0.569900  1
  H  H69  1  0.040600  0.139300  0.477900  1
  H  H70  1  0.959400  0.860700  0.522100  1
  H  H71  1  0.031700  0.063900  0.623400  1
  H  H72  1  0.968300  0.936100  0.376600  1
  Pd  Pd73  1  0.306170  0.107340  0.857650  1
  Pd  Pd74  1  0.693830  0.892660  0.142350  1
  Pd  Pd75  1  0.336450  0.415220  0.308880  1
  Pd  Pd76  1  0.663550  0.584780  0.691120  1
  C  C77  1  0.087700  0.202700  0.897100  1
  C  C78  1  0.912300  0.797300  0.102900  1
  C  C79  1  0.013800  0.275400  0.918900  1
  C  C80  1  0.986200  0.724600  0.081100  1
  C  C81  1  0.034800  0.352300  0.939900  1
  C  C82  1  0.965200  0.647700  0.060100  1
  C  C83  1  0.133200  0.354800  0.940700  1
  C  C84  1  0.866800  0.645200  0.059300  1
  C  C85  1  0.210000  0.280000  0.915700  1
  C  C86  1  0.790000  0.720000  0.084300  1
  C  C87  1  0.317200  0.279200  0.910800  1
  C  C88  1  0.682800  0.720800  0.089200  1
  C  C89  1  0.358700  0.350100  0.929100  1
  C  C90  1  0.641300  0.649900  0.070900  1
  C  C91  1  0.459100  0.342300  0.921600  1
  C  C92  1  0.540900  0.657700  0.078400  1
  C  C93  1  0.521500  0.260600  0.896400  1
  C  C94  1  0.478500  0.739400  0.103600  1
  C  C95  1  0.480100  0.192400  0.878600  1
  C  C96  1  0.519900  0.807600  0.121400  1
  C  C97  1  0.481800  0.941100  0.875600  1
  C  C98  1  0.518200  0.058900  0.124400  1
  C  C99  1  0.569700  0.886900  0.844700  1
  C  C100  1  0.430300  0.113100  0.155300  1
  C  C101  1  0.608500  0.908800  0.751400  1
  C  C102  1  0.391500  0.091200  0.248600  1
  C  C103  1  0.558000  0.986600  0.689400  1
  C  C104  1  0.442000  0.013400  0.310600  1
  C  C105  1  0.469100  0.039500  0.725600  1
  C  C106  1  0.530900  0.960500  0.274400  1
  C  C107  1  0.557200  0.088300  0.529600  1
  C  C108  1  0.442800  0.911700  0.470400  1
  C  C109  1  0.568400  0.164400  0.361600  1
  C  C110  1  0.431600  0.835600  0.638400  1
  C  C111  1  0.629200  0.169700  0.276500  1
  C  C112  1  0.370800  0.830300  0.723500  1
  C  C113  1  0.603100  0.243400  0.199500  1
  C  C114  1  0.396900  0.756600  0.800500  1
  C  C115  1  0.516300  0.313700  0.209200  1
  C  C116  1  0.483700  0.686300  0.790800  1
  C  C117  1  0.481500  0.237400  0.365900  1
  C  C118  1  0.518500  0.762600  0.634100  1
  C  C119  1  0.512300  0.488400  0.339400  1
  C  C120  1  0.487700  0.511600  0.660600  1
  C  C121  1  0.557500  0.550500  0.362700  1
  C  C122  1  0.442500  0.449500  0.637300  1
  C  C123  1  0.500700  0.637000  0.378300  1
  C  C124  1  0.499300  0.363000  0.621700  1
  C  C125  1  0.400200  0.658600  0.367400  1
  C  C126  1  0.599800  0.341400  0.632600  1
  C  C127  1  0.359200  0.592600  0.345100  1
  C  C128  1  0.640800  0.407400  0.654900  1
  C  C129  1  0.250900  0.606100  0.336200  1
  C  C130  1  0.749100  0.393900  0.663800  1
  C  C131  1  0.182200  0.692600  0.338400  1
  C  C132  1  0.817800  0.307400  0.661600  1
  C  C133  1  0.083000  0.693500  0.333500  1
  C  C134  1  0.917000  0.306500  0.666500  1
  C  C135  1  0.056100  0.614700  0.323400  1
  C  C136  1  0.943900  0.385300  0.676600  1
  C  C137  1  0.126400  0.532000  0.317900  1
  C  C138  1  0.873600  0.468000  0.682100  1
  C  C139  1  0.218000  0.324600  0.222500  1
  C  C140  1  0.782000  0.675400  0.777500  1
  C  C141  1  0.148900  0.269600  0.221900  1
  C  C142  1  0.851100  0.730400  0.778100  1
  C  C143  1  0.111500  0.208500  0.304200  1
  C  C144  1  0.888500  0.791500  0.695800  1
  C  C145  1  0.142100  0.203800  0.386800  1
  C  C146  1  0.857900  0.796200  0.613200  1
  C  C147  1  0.211000  0.263100  0.382200  1
  C  C148  1  0.789000  0.736900  0.617800  1
  C  C149  1  0.154700  0.096400  0.544300  1
  C  C150  1  0.845300  0.903600  0.455700  1
  C  C151  1  0.128300  0.019400  0.710900  1
  C  C152  1  0.871700  0.980600  0.289100  1
  C  C153  1  0.089600  0.940200  0.774400  1
  C  C154  1  0.910400  0.059800  0.225600  1
  C  C155  1  0.122600  0.904500  0.860900  1
  C  C156  1  0.877400  0.095500  0.139100  1
  C  C157  1  0.188500  0.947800  0.883600  1
  C  C158  1  0.811500  0.052200  0.116400  1
  C  C159  1  0.194100  0.060400  0.739400  1
  C  C160  1  0.805900  0.939600  0.260600  1
  N  N161  1  0.185800  0.205000  0.893800  1
  N  N162  1  0.814200  0.795000  0.106200  1
  N  N163  1  0.379800  0.200400  0.885000  1
  N  N164  1  0.620200  0.799600  0.115000  1
  N  N165  1  0.433100  0.017300  0.816800  1
  N  N166  1  0.566900  0.982700  0.183200  1
  N  N167  1  0.595100  0.007100  0.593200  1
  N  N168  1  0.404900  0.992900  0.406800  1
  N  N169  1  0.594700  0.088000  0.439700  1
  N  N170  1  0.405300  0.912000  0.560300  1
  N  N171  1  0.457700  0.310200  0.292000  1
  N  N172  1  0.542300  0.689800  0.708000  1
  N  N173  1  0.414300  0.508300  0.330900  1
  N  N174  1  0.585700  0.491700  0.669100  1
  N  N175  1  0.221900  0.527200  0.324400  1
  N  N176  1  0.778100  0.472800  0.675600  1
  N  N177  1  0.247500  0.322700  0.301800  1
  N  N178  1  0.752500  0.677300  0.698200  1
  N  N179  1  0.102700  0.145400  0.471100  1
  N  N180  1  0.897300  0.854600  0.528900  1
  N  N181  1  0.094300  0.060600  0.625500  1
  N  N182  1  0.905700  0.939400  0.374500  1
  N  N183  1  0.223100  0.027200  0.824400  1
  N  N184  1  0.776900  0.972800  0.175600  1
  Cl  Cl185  1  0.237690  0.334510  0.609240  1
  Cl  Cl186  1  0.762310  0.665490  0.390760  1
  Cl  Cl187  1  0.286000  0.581360  0.039030  1
  Cl  Cl188  1  0.714000  0.418640  0.960970  1
  Cl  Cl189  1  0.768700  0.025900  0.872000  1
  Cl  Cl190  1  0.231300  0.974100  0.128000  1
  Cl  Cl191  1  0.805700  0.209500  0.438300  1
  Cl  Cl192  1  0.194300  0.790500  0.561700  1
  O  O193  1  0.495900  0.155100  0.550500  1
  O  O194  1  0.504100  0.844900  0.449500  1
  O  O195  1  0.246200  0.086900  0.536900  1
  O  O196  1  0.753800  0.913100  0.463100  1
  O  O197  1  0.200900  0.417400  0.641400  1
  O  O198  1  0.799100  0.582600  0.358600  1
  O  O199  1  0.300300  0.261700  0.674000  1
  O  O200  1  0.699700  0.738300  0.326000  1
  O  O201  1  0.301200  0.358500  0.524100  1
  O  O202  1  0.698800  0.641500  0.475900  1
  O  O203  1  0.159400  0.289600  0.598200  1
  O  O204  1  0.840600  0.710400  0.401800  1
  O  O205  1  0.353500  0.522000  0.098100  1
  O  O206  1  0.646500  0.478000  0.901900  1
  O  O207  1  0.350100  0.567700  0.965400  1
  O  O208  1  0.649900  0.432300  0.034600  1
  O  O209  1  0.264300  0.681200  0.028700  1
  O  O210  1  0.735700  0.318800  0.971300  1
  O  O211  1  0.206100  0.533200  0.055700  1
  O  O212  1  0.793900  0.466800  0.944300  1
  O  O213  1  0.691800  0.031700  0.945700  1
  O  O214  1  0.308200  0.968300  0.054300  1
  O  O215  1  0.804700  0.931100  0.871200  1
  O  O216  1  0.195300  0.068900  0.128800  1
  O  O217  1  0.849100  0.061300  0.886000  1
  O  O218  1  0.150900  0.938700  0.114000  1
  O  O219  1  0.731800  0.071700  0.787200  1
  O  O220  1  0.268200  0.928300  0.212800  1
  O  O221  1  0.756500  0.148000  0.518900  1
  O  O222  1  0.243500  0.852000  0.481100  1
  O  O223  1  0.883700  0.244100  0.455800  1
  O  O224  1  0.116300  0.755900  0.544200  1
  O  O225  1  0.813700  0.181800  0.361600  1
  O  O226  1  0.186300  0.818200  0.638400  1
  O  O227  1  0.727400  0.298000  0.423300  1
  O  O228  1  0.272600  0.702000  0.576700  1
