# generated using pymatgen
data_H76Pd4C96N30O19
_symmetry_space_group_name_H-M   'P 1'
_cell_length_a   12.17450000
_cell_length_b   15.98540000
_cell_length_c   16.97630000
_cell_angle_alpha   66.88600000
_cell_angle_beta   74.16500000
_cell_angle_gamma   69.91900000
_symmetry_Int_Tables_number   1
_chemical_formula_structural   H76Pd4C96N30O19
_chemical_formula_sum   'H76 Pd4 C96 N30 O19'
_cell_volume   2817.19552400
_cell_formula_units_Z   1
loop_
 _symmetry_equiv_pos_site_id
 _symmetry_equiv_pos_as_xyz
  1  'x, y, z'
loop_
 _atom_site_type_symbol
 _atom_site_label
 _atom_site_symmetry_multiplicity
 _atom_site_fract_x
 _atom_site_fract_y
 _atom_site_fract_z
 _atom_site_occupancy
  H  H1  1  0.208400  0.984300  0.055800  1
  H  H2  1  0.791600  0.015700  0.944200  1
  H  H3  1  0.234700  0.973400  0.918000  1
  H  H4  1  0.765300  0.026600  0.082000  1
  H  H5  1  0.421700  0.912700  0.851500  1
  H  H6  1  0.578300  0.087300  0.148500  1
  H  H7  1  0.639000  0.835000  0.864100  1
  H  H8  1  0.361000  0.165000  0.135900  1
  H  H9  1  0.788200  0.778800  0.942600  1
  H  H10  1  0.211800  0.221200  0.057400  1
  H  H11  1  0.861500  0.757500  0.083400  1
  H  H12  1  0.138500  0.242500  0.916600  1
  H  H13  1  0.810600  0.783000  0.213700  1
  H  H14  1  0.189400  0.217000  0.786300  1
  H  H15  1  0.615400  0.850800  0.263800  1
  H  H16  1  0.384600  0.149200  0.736200  1
  H  H17  1  0.386800  0.774800  0.359400  1
  H  H18  1  0.613200  0.225200  0.640600  1
  H  H19  1  0.399700  0.748900  0.504700  1
  H  H20  1  0.600300  0.251100  0.495300  1
  H  H21  1  0.392700  0.875600  0.541600  1
  H  H22  1  0.607300  0.124400  0.458400  1
  H  H23  1  0.375900  0.041400  0.292600  1
  H  H24  1  0.624100  0.958600  0.707400  1
  H  H25  1  0.340600  0.296900  0.530100  1
  H  H26  1  0.659400  0.703100  0.469900  1
  H  H27  1  0.335400  0.458700  0.473900  1
  H  H28  1  0.664600  0.541300  0.526100  1
  H  H29  1  0.320900  0.547000  0.332100  1
  H  H30  1  0.679100  0.453000  0.667900  1
  H  H31  1  0.319000  0.322500  0.285500  1
  H  H32  1  0.681000  0.677500  0.714500  1
  H  H33  1  0.536800  0.466000  0.221200  1
  H  H34  1  0.463200  0.534000  0.778800  1
  H  H35  1  0.720000  0.497100  0.149300  1
  H  H36  1  0.280000  0.502900  0.850700  1
  H  H37  1  0.739500  0.587600  0.005800  1
  H  H38  1  0.260500  0.412400  0.994200  1
  H  H39  1  0.636600  0.685000  0.869000  1
  H  H40  1  0.363400  0.315000  0.131000  1
  H  H41  1  0.472600  0.742400  0.806900  1
  H  H42  1  0.527400  0.257600  0.193100  1
  H  H43  1  0.243500  0.763400  0.826500  1
  H  H44  1  0.756500  0.236600  0.173500  1
  H  H45  1  0.080200  0.713900  0.915900  1
  H  H46  1  0.919800  0.286100  0.084100  1
  H  H47  1  0.090200  0.618900  0.059000  1
  H  H48  1  0.909800  0.381100  0.941000  1
  H  H49  1  0.050500  0.626300  0.248700  1
  H  H50  1  0.949500  0.373700  0.751300  1
  H  H51  1  0.855800  0.604500  0.306000  1
  H  H52  1  0.144200  0.395500  0.694000  1
  H  H53  1  0.822500  0.471100  0.312400  1
  H  H54  1  0.177500  0.528900  0.687600  1
  H  H55  1  0.156600  0.387500  0.196900  1
  H  H56  1  0.843400  0.612500  0.803100  1
  H  H57  1  0.872100  0.072900  0.267800  1
  H  H58  1  0.127900  0.927100  0.732200  1
  H  H59  1  0.949600  0.922100  0.262300  1
  H  H60  1  0.050400  0.077900  0.737700  1
  H  H61  1  0.155700  0.864300  0.224500  1
  H  H62  1  0.844300  0.135700  0.775500  1
  H  H63  1  0.203700  0.096200  0.221600  1
  H  H64  1  0.796300  0.903800  0.778400  1
  H  H65  1  0.372700  0.034400  0.501300  1
  H  H66  1  0.627300  0.965600  0.498700  1
  H  H67  1  0.334700  0.167800  0.500800  1
  H  H68  1  0.665300  0.832200  0.499200  1
  H  H69  1  0.885900  0.328800  0.285800  1
  H  H70  1  0.114100  0.671200  0.714200  1
  H  H71  1  0.903700  0.201200  0.280700  1
  H  H72  1  0.096300  0.798800  0.719300  1
  H  H73  1  0.038000  0.433000  0.045000  1
  H  H74  1  0.962000  0.567000  0.955000  1
  H  H75  1  0.970000  0.530000  0.051000  1.0
  H  H76  1  0.030000  0.470000  0.949000  1.0
  Pd  Pd77  1  0.372770  0.921600  0.194630  1
  Pd  Pd78  1  0.627230  0.078400  0.805370  1
  Pd  Pd79  1  0.285200  0.521430  0.176170  1
  Pd  Pd80  1  0.714800  0.478570  0.823830  1
  C  C81  1  0.286000  0.957400  0.030400  1
  C  C82  1  0.714000  0.042600  0.969600  1
  C  C83  1  0.301000  0.952000  0.947000  1
  C  C84  1  0.699000  0.048000  0.053000  1
  C  C85  1  0.411000  0.915000  0.908300  1
  C  C86  1  0.589000  0.085000  0.091700  1
  C  C87  1  0.508000  0.880500  0.952700  1
  C  C88  1  0.492000  0.119500  0.047300  1
  C  C89  1  0.623000  0.840000  0.920000  1
  C  C90  1  0.377000  0.160000  0.080000  1
  C  C91  1  0.711000  0.808000  0.965900  1
  C  C92  1  0.289000  0.192000  0.034100  1
  C  C93  1  0.690000  0.818000  0.050000  1
  C  C94  1  0.310000  0.182000  0.950000  1
  C  C95  1  0.782000  0.787000  0.103000  1
  C  C96  1  0.218000  0.213000  0.897000  1
  C  C97  1  0.751000  0.801000  0.179000  1
  C  C98  1  0.249000  0.199000  0.821000  1
  C  C99  1  0.634000  0.841000  0.209000  1
  C  C100  1  0.366000  0.159000  0.791000  1
  C  C101  1  0.577000  0.854300  0.085200  1
  C  C102  1  0.423000  0.145700  0.914800  1
  C  C103  1  0.483000  0.889200  0.036000  1
  C  C104  1  0.517000  0.110800  0.964000  1
  C  C105  1  0.388000  0.825000  0.375000  1
  C  C106  1  0.612000  0.175000  0.625000  1
  C  C107  1  0.394000  0.810000  0.462000  1
  C  C108  1  0.606000  0.190000  0.538000  1
  C  C109  1  0.390000  0.884000  0.483500  1
  C  C110  1  0.610000  0.116000  0.516500  1
  C  C111  1  0.381000  0.972000  0.420800  1
  C  C112  1  0.619000  0.028000  0.579200  1
  C  C113  1  0.380000  0.981500  0.336500  1
  C  C114  1  0.620000  0.018500  0.663500  1
  C  C115  1  0.364000  0.140700  0.391000  1
  C  C116  1  0.636000  0.859300  0.609000  1
  C  C117  1  0.334000  0.293900  0.409900  1
  C  C118  1  0.666000  0.706100  0.590100  1
  C  C119  1  0.336000  0.333000  0.471000  1
  C  C120  1  0.664000  0.667000  0.529000  1
  C  C121  1  0.331000  0.429000  0.436000  1
  C  C122  1  0.669000  0.571000  0.564000  1
  C  C123  1  0.322000  0.482000  0.353000  1
  C  C124  1  0.678000  0.518000  0.647000  1
  C  C125  1  0.321000  0.350000  0.325400  1
  C  C126  1  0.679000  0.650000  0.674600  1
  C  C127  1  0.543000  0.504400  0.162000  1
  C  C128  1  0.457000  0.495600  0.838000  1
  C  C129  1  0.655000  0.522000  0.119000  1
  C  C130  1  0.345000  0.478000  0.881000  1
  C  C131  1  0.666000  0.574000  0.036000  1
  C  C132  1  0.334000  0.426000  0.964000  1
  C  C133  1  0.562000  0.612000  0.992000  1
  C  C134  1  0.438000  0.388000  0.008000  1
  C  C135  1  0.565000  0.670000  0.902000  1
  C  C136  1  0.435000  0.330000  0.098000  1
  C  C137  1  0.469000  0.704000  0.866000  1
  C  C138  1  0.531000  0.296000  0.134000  1
  C  C139  1  0.354000  0.685000  0.916000  1
  C  C140  1  0.646000  0.315000  0.084000  1
  C  C141  1  0.249000  0.721000  0.884000  1
  C  C142  1  0.751000  0.279000  0.116000  1
  C  C143  1  0.153000  0.693000  0.937000  1
  C  C144  1  0.847000  0.307000  0.063000  1
  C  C145  1  0.160000  0.635000  0.023000  1
  C  C146  1  0.840000  0.365000  0.977000  1
  C  C147  1  0.357000  0.626700  0.005000  1
  C  C148  1  0.643000  0.373300  0.995000  1
  C  C149  1  0.461000  0.591400  0.040000  1
  C  C150  1  0.539000  0.408600  0.960000  1
  C  C151  1  0.034000  0.572000  0.250000  1
  C  C152  1  0.966000  0.428000  0.750000  1
  C  C153  1  0.918000  0.559000  0.286000  1
  C  C154  1  0.082000  0.441000  0.714000  1
  C  C155  1  0.899000  0.481000  0.289000  1
  C  C156  1  0.101000  0.519000  0.711000  1
  C  C157  1  0.988000  0.412000  0.259000  1
  C  C158  1  0.012000  0.588000  0.741000  1
  C  C159  1  0.096000  0.430400  0.221800  1
  C  C160  1  0.904000  0.569600  0.778200  1
  C  C161  1  0.039000  0.254100  0.244000  1
  C  C162  1  0.961000  0.745900  0.756000  1
  C  C163  1  0.031000  0.099900  0.247700  1
  C  C164  1  0.969000  0.900100  0.752300  1
  C  C165  1  0.955000  0.047300  0.257400  1
  C  C166  1  0.045000  0.952700  0.742600  1
  C  C167  1  0.001000  0.960000  0.252000  1
  C  C168  1  0.999000  0.040000  0.748000  1
  C  C169  1  0.124000  0.925000  0.231000  1
  C  C170  1  0.876000  0.075000  0.769000  1
  C  C171  1  0.151000  0.060900  0.229000  1
  C  C172  1  0.849000  0.939100  0.771000  1
  C  C173  1  0.462000  0.690000  0.203000  1
  C  C174  1  0.538000  0.310000  0.797000  1
  C  C175  1  0.362000  0.710000  0.214000  1
  C  C176  1  0.638000  0.290000  0.786000  1
  N  N177  1  0.373000  0.927100  0.074400  1
  N  N178  1  0.627000  0.072900  0.925600  1
  N  N179  1  0.547000  0.866500  0.163300  1
  N  N180  1  0.453000  0.133500  0.836700  1
  N  N181  1  0.386000  0.907900  0.315900  1
  N  N182  1  0.614000  0.092100  0.684100  1
  N  N183  1  0.194900  0.976000  0.220900  1
  N  N184  1  0.805100  0.024000  0.779100  1
  N  N185  1  0.373000  0.046700  0.446100  1
  N  N186  1  0.627000  0.953300  0.553900  1
  N  N187  1  0.343000  0.195500  0.444200  1
  N  N188  1  0.657000  0.804500  0.555800  1
  N  N189  1  0.313000  0.441200  0.298700  1
  N  N190  1  0.687000  0.558800  0.701300  1
  N  N191  1  0.451000  0.536500  0.125800  1
  N  N192  1  0.549000  0.463500  0.874200  1
  N  N193  1  0.258000  0.601700  0.054700  1
  N  N194  1  0.742000  0.398300  0.945300  1
  N  N195  1  0.118000  0.507800  0.220100  1
  N  N196  1  0.882000  0.492200  0.779900  1
  N  N197  1  0.960000  0.330900  0.265900  1
  N  N198  1  0.040000  0.669100  0.734100  1
  N  N199  1  0.980000  0.187500  0.260400  1
  N  N200  1  0.020000  0.812500  0.739600  1
  N  N201  1  0.681000  0.292400  0.322100  1
  N  N202  1  0.319000  0.707600  0.677900  1
  N  N203  1  0.694000  0.955000  0.333200  1
  N  N204  1  0.306000  0.045000  0.666800  1
  N  N205  1  0.303000  0.737000  0.140000  1
  N  N206  1  0.697000  0.263000  0.860000  1
  O  O207  1  0.376000  0.166700  0.315100  1
  O  O208  1  0.624000  0.833300  0.684900  1
  O  O209  1  0.141800  0.246400  0.214700  1
  O  O210  1  0.858200  0.753600  0.785300  1
  O  O211  1  0.745000  0.212000  0.332000  1
  O  O212  1  0.255000  0.788000  0.668000  1
  O  O213  1  0.716000  0.358000  0.311000  1
  O  O214  1  0.284000  0.642000  0.689000  1
  O  O215  1  0.569000  0.303200  0.328600  1
  O  O216  1  0.431000  0.696800  0.671400  1
  O  O217  1  0.679000  0.873400  0.374900  1
  O  O218  1  0.321000  0.126600  0.625100  1
  O  O219  1  0.686000  0.005000  0.373400  1
  O  O220  1  0.314000  0.995000  0.626600  1
  O  O221  1  0.718000  0.980800  0.252700  1
  O  O222  1  0.282000  0.019200  0.747300  1
  O  O223  1  0.000000  0.500000  0.000000  1
  O  O224  1  0.004000  0.092000  0.003000  1
  O  O225  1  0.996000  0.908000  0.997000  1
