# generated using pymatgen
data_H26PdC17N8O9
_symmetry_space_group_name_H-M   'P 1'
_cell_length_a   11.95580000
_cell_length_b   13.95930000
_cell_length_c   14.97420000
_cell_angle_alpha   75.25800000
_cell_angle_beta   82.85500000
_cell_angle_gamma   88.53200000
_symmetry_Int_Tables_number   1
_chemical_formula_structural   H26PdC17N8O9
_chemical_formula_sum   'H104 Pd4 C68 N32 O36'
_cell_volume   2398.03072796
_cell_formula_units_Z   4
loop_
 _symmetry_equiv_pos_site_id
 _symmetry_equiv_pos_as_xyz
  1  'x, y, z'
loop_
 _atom_site_type_symbol
 _atom_site_label
 _atom_site_symmetry_multiplicity
 _atom_site_fract_x
 _atom_site_fract_y
 _atom_site_fract_z
 _atom_site_occupancy
  H  H1  1  0.285400  0.323600  0.214600  1
  H  H2  1  0.714600  0.676400  0.785400  1
  H  H3  1  0.291800  0.399600  0.117200  1
  H  H4  1  0.708200  0.600400  0.882800  1
  H  H5  1  0.422500  0.333500  0.067000  1
  H  H6  1  0.577500  0.666500  0.933000  1
  H  H7  1  0.398700  0.246800  0.156300  1
  H  H8  1  0.601300  0.753200  0.843700  1
  H  H9  1  0.718900  0.339300  0.308300  1
  H  H10  1  0.281100  0.660700  0.691700  1
  H  H11  1  0.909900  0.342300  0.307800  1
  H  H12  1  0.090100  0.657700  0.692200  1
  H  H13  1  0.018500  0.459400  0.197700  1
  H  H14  1  0.981500  0.540600  0.802300  1
  H  H15  1  0.740000  0.558400  0.082100  1
  H  H16  1  0.260000  0.441600  0.917900  1
  H  H17  1  0.174300  0.821500  0.839900  1
  H  H18  1  0.825700  0.178500  0.160100  1
  H  H19  1  0.175800  0.951400  0.710600  1
  H  H20  1  0.824200  0.048600  0.289400  1
  H  H21  1  0.008600  0.007500  0.654100  1
  H  H22  1  0.991400  0.992500  0.345900  1
  H  H23  1  0.841100  0.798200  0.843300  1
  H  H24  1  0.158900  0.201800  0.156700  1
  H  H25  1  0.755300  0.925800  0.445500  1
  H  H26  1  0.244700  0.074200  0.554500  1
  H  H27  1  0.813500  0.017300  0.464700  1
  H  H28  1  0.186500  0.982700  0.535300  1
  H  H29  1  0.622700  0.051500  0.470700  1
  H  H30  1  0.377300  0.948500  0.529300  1
  H  H31  1  0.592500  0.947200  0.539000  1
  H  H32  1  0.407500  0.052800  0.461000  1
  H  H33  1  0.774600  0.173400  0.707200  1
  H  H34  1  0.225400  0.826600  0.292800  1
  H  H35  1  0.726600  0.253900  0.823100  1
  H  H36  1  0.273400  0.746100  0.176900  1
  H  H37  1  0.666900  0.162300  0.971800  1
  H  H38  1  0.333100  0.837700  0.028200  1
  H  H39  1  0.683200  0.917700  0.879100  1
  H  H40  1  0.316800  0.082300  0.120900  1
  H  H41  1  0.548300  0.798600  0.333800  1
  H  H42  1  0.451700  0.201400  0.666200  1
  H  H43  1  0.516900  0.641100  0.433900  1
  H  H44  1  0.483100  0.358900  0.566100  1
  H  H45  1  0.514500  0.506700  0.373800  1
  H  H46  1  0.485500  0.493300  0.626200  1
  H  H47  1  0.565500  0.674700  0.119700  1
  H  H48  1  0.434500  0.325300  0.880300  1
  H  H49  1  0.583300  0.329800  0.105500  1
  H  H50  1  0.416700  0.670200  0.894500  1
  H  H51  1  0.549700  0.273800  0.201200  1
  H  H52  1  0.450300  0.726200  0.798800  1
  H  H53  1  0.029900  0.587000  0.062700  1
  H  H54  1  0.970100  0.413000  0.937300  1
  H  H55  1  0.076800  0.704300  0.951700  1
  H  H56  1  0.923200  0.295700  0.048300  1
  H  H57  1  0.875200  0.884300  0.565100  1
  H  H58  1  0.124800  0.115700  0.434900  1
  H  H59  1  0.763300  0.839100  0.592700  1
  H  H60  1  0.236700  0.160900  0.407300  1
  H  H61  1  0.590000  0.037800  0.636700  1
  H  H62  1  0.410000  0.962200  0.363300  1
  H  H63  1  0.676800  0.106400  0.580800  1
  H  H64  1  0.323200  0.893600  0.419200  1
  H  H65  1  0.619300  0.009400  0.074600  1
  H  H66  1  0.380700  0.990600  0.925400  1
  H  H67  1  0.573500  0.894700  0.187200  1
  H  H68  1  0.426500  0.105300  0.812800  1
  H  H69  1  0.341900  0.434300  0.267800  1
  H  H70  1  0.658100  0.565700  0.732200  1
  H  H71  1  0.346500  0.505400  0.177400  1
  H  H72  1  0.653500  0.494600  0.822600  1
  H  H73  1  0.770400  0.411800  0.467100  1
  H  H74  1  0.229600  0.588200  0.532900  1
  H  H75  1  0.693300  0.492400  0.499700  1
  H  H76  1  0.306700  0.507600  0.500300  1
  H  H77  1  0.735100  0.370700  0.626100  1
  H  H78  1  0.264900  0.629300  0.373900  1
  H  H79  1  0.864300  0.390200  0.594900  1
  H  H80  1  0.135700  0.609800  0.405100  1
  H  H81  1  0.946500  0.531600  0.598900  1
  H  H82  1  0.053500  0.468400  0.401100  1
  H  H83  1  0.872800  0.612900  0.633800  1
  H  H84  1  0.127200  0.387100  0.366200  1
  H  H85  1  0.773300  0.634800  0.509000  1
  H  H86  1  0.226700  0.365200  0.491000  1
  H  H87  1  0.901800  0.657300  0.476300  1
  H  H88  1  0.098200  0.342700  0.523700  1
  H  H89  1  0.871900  0.966600  0.114700  1
  H  H90  1  0.128100  0.033400  0.885300  1
  H  H91  1  0.831300  0.874200  0.084600  1
  H  H92  1  0.168700  0.125800  0.915400  1
  H  H93  1  0.016300  0.881400  0.044300  1
  H  H94  1  0.983700  0.118600  0.955700  1
  H  H95  1  0.038700  0.902500  0.138200  1
  H  H96  1  0.961300  0.097500  0.861800  1
  H  H97  1  0.817000  0.718200  0.204100  1
  H  H98  1  0.183000  0.281800  0.795900  1
  H  H99  1  0.818100  0.724900  0.307500  1
  H  H100  1  0.181900  0.275100  0.692500  1
  H  H101  1  0.008300  0.765800  0.274600  1
  H  H102  1  0.991700  0.234200  0.725400  1
  H  H103  1  0.987000  0.661500  0.257300  1
  H  H104  1  0.013000  0.338500  0.742700  1
  Pd  Pd105  1  0.541990  0.451240  0.199540  1
  Pd  Pd106  1  0.458010  0.548760  0.800460  1
  Pd  Pd107  1  0.774360  0.967520  0.679400  1
  Pd  Pd108  1  0.225640  0.032480  0.320600  1
  C  C109  1  0.335100  0.369000  0.167500  1
  C  C110  1  0.664900  0.631000  0.832500  1
  C  C111  1  0.419500  0.316300  0.134200  1
  C  C112  1  0.580500  0.683700  0.865800  1
  C  C113  1  0.762400  0.385100  0.261700  1
  C  C114  1  0.237600  0.614900  0.738300  1
  C  C115  1  0.876300  0.387500  0.262000  1
  C  C116  1  0.123700  0.612500  0.738000  1
  C  C117  1  0.941400  0.455800  0.195700  1
  C  C118  1  0.058600  0.544200  0.804300  1
  C  C119  1  0.891100  0.519600  0.125200  1
  C  C120  1  0.108900  0.480400  0.874800  1
  C  C121  1  0.775200  0.514600  0.127900  1
  C  C122  1  0.224800  0.485400  0.872100  1
  C  C123  1  0.924100  0.659200  0.985800  1
  C  C124  1  0.075900  0.340800  0.014200  1
  C  C125  1  0.006400  0.795400  0.856500  1
  C  C126  1  0.993600  0.204600  0.143500  1
  C  C127  1  0.107600  0.842700  0.815400  1
  C  C128  1  0.892400  0.157300  0.184600  1
  C  C129  1  0.108200  0.920100  0.739300  1
  C  C130  1  0.891800  0.079900  0.260700  1
  C  C131  1  0.008200  0.952300  0.704400  1
  C  C132  1  0.991800  0.047700  0.295600  1
  C  C133  1  0.909500  0.829400  0.816800  1
  C  C134  1  0.090500  0.170600  0.183200  1
  C  C135  1  0.761300  0.962600  0.491600  1
  C  C136  1  0.238700  0.037400  0.508400  1
  C  C137  1  0.647400  0.000700  0.521500  1
  C  C138  1  0.352600  0.999300  0.478500  1
  C  C139  1  0.746600  0.137000  0.766500  1
  C  C140  1  0.253400  0.863000  0.233500  1
  C  C141  1  0.719600  0.185400  0.835900  1
  C  C142  1  0.280400  0.814600  0.164100  1
  C  C143  1  0.682400  0.131100  0.923800  1
  C  C144  1  0.317600  0.868900  0.076200  1
  C  C145  1  0.667600  0.029300  0.941400  1
  C  C146  1  0.332400  0.970700  0.058600  1
  C  C147  1  0.693600  0.985700  0.868200  1
  C  C148  1  0.306400  0.014300  0.131800  1
  C  C149  1  0.608700  0.875900  0.064400  1
  C  C150  1  0.391300  0.124100  0.935600  1
  C  C151  1  0.561200  0.752100  0.214300  1
  C  C152  1  0.438800  0.247900  0.785700  1
  C  C153  1  0.546100  0.743100  0.310400  1
  C  C154  1  0.453900  0.256900  0.689600  1
  C  C155  1  0.527700  0.649200  0.369900  1
  C  C156  1  0.472300  0.350800  0.630100  1
  C  C157  1  0.525800  0.569500  0.333700  1
  C  C158  1  0.474200  0.430500  0.666300  1
  C  C159  1  0.556600  0.669000  0.183400  1
  C  C160  1  0.443400  0.331000  0.816600  1
  C  C161  1  0.768000  0.463600  0.499900  1
  C  C162  1  0.232000  0.536400  0.500100  1
  C  C163  1  0.790900  0.421600  0.595700  1
  C  C164  1  0.209100  0.578400  0.404300  1
  C  C165  1  0.872600  0.561900  0.600300  1
  C  C166  1  0.127400  0.438100  0.399700  1
  C  C167  1  0.847500  0.605000  0.506500  1
  C  C168  1  0.152500  0.395000  0.493500  1
  C  C169  1  0.876400  0.895100  0.125800  1
  C  C170  1  0.123600  0.104900  0.874200  1
  C  C171  1  0.992500  0.864300  0.110800  1
  C  C172  1  0.007500  0.135700  0.889200  1
  C  C173  1  0.852400  0.750300  0.243800  1
  C  C174  1  0.147600  0.249700  0.756200  1
  C  C175  1  0.972600  0.731900  0.236400  1
  C  C176  1  0.027400  0.268100  0.763600  1
  N  N177  1  0.533100  0.326700  0.156200  1
  N  N178  1  0.466900  0.673300  0.843800  1
  N  N179  1  0.712100  0.448200  0.194600  1
  N  N180  1  0.287900  0.551800  0.805400  1
  N  N181  1  0.958900  0.588900  0.058100  1
  N  N182  1  0.041100  0.411100  0.941900  1
  N  N183  1  0.011300  0.717700  0.933800  1
  N  N184  1  0.988700  0.282300  0.066200  1
  N  N185  1  0.911100  0.905500  0.741700  1
  N  N186  1  0.088900  0.094500  0.258300  1
  N  N187  1  0.801300  0.897000  0.576300  1
  N  N188  1  0.198700  0.103000  0.423700  1
  N  N189  1  0.657200  0.042000  0.601400  1
  N  N190  1  0.342800  0.958000  0.398600  1
  N  N191  1  0.733200  0.037400  0.782400  1
  N  N192  1  0.266800  0.962600  0.217600  1
  N  N193  1  0.630000  0.975700  0.033500  1
  N  N194  1  0.370000  0.024300  0.966500  1
  N  N195  1  0.580300  0.847900  0.159100  1
  N  N196  1  0.419700  0.152100  0.840900  1
  N  N197  1  0.539600  0.578800  0.241900  1
  N  N198  1  0.460400  0.421200  0.758100  1
  N  N199  1  0.371800  0.446300  0.207800  1
  N  N200  1  0.628200  0.553700  0.792200  1
  N  N201  1  0.914400  0.187100  0.494600  1
  N  N202  1  0.085600  0.812900  0.505400  1
  N  N203  1  0.440200  0.267000  0.430800  1
  N  N204  1  0.559800  0.733000  0.569200  1
  N  N205  1  0.579600  0.073100  0.240500  1
  N  N206  1  0.420400  0.926900  0.759500  1
  N  N207  1  0.263900  0.628000  0.038800  1
  N  N208  1  0.736100  0.372000  0.961200  1
  O  O209  1  0.827800  0.669400  0.968200  1
  O  O210  1  0.172200  0.330600  0.031800  1
  O  O211  1  0.614100  0.820300  0.014700  1
  O  O212  1  0.385900  0.179700  0.985300  1
  O  O213  1  0.978200  0.215400  0.427100  1
  O  O214  1  0.021800  0.784600  0.572900  1
  O  O215  1  0.948600  0.136300  0.550500  1
  O  O216  1  0.051400  0.863700  0.449500  1
  O  O217  1  0.813500  0.213500  0.496600  1
  O  O218  1  0.186500  0.786500  0.503400  1
  O  O219  1  0.442600  0.202400  0.501400  1
  O  O220  1  0.557400  0.797600  0.498600  1
  O  O221  1  0.362500  0.267400  0.379000  1
  O  O222  1  0.637500  0.732600  0.621000  1
  O  O223  1  0.511500  0.331100  0.403600  1
  O  O224  1  0.488500  0.668900  0.596400  1
  O  O225  1  0.566900  0.128300  0.291400  1
  O  O226  1  0.433100  0.871700  0.708600  1
  O  O227  1  0.560100  0.984600  0.274100  1
  O  O228  1  0.439900  0.015400  0.725900  1
  O  O229  1  0.615900  0.104700  0.158900  1
  O  O230  1  0.384100  0.895300  0.841100  1
  O  O231  1  0.192300  0.581300  0.097800  1
  O  O232  1  0.807700  0.418700  0.902200  1
  O  O233  1  0.237600  0.681900  0.965600  1
  O  O234  1  0.762400  0.318100  0.034400  1
  O  O235  1  0.363700  0.621900  0.052000  1
  O  O236  1  0.636300  0.378100  0.948000  1
  O  O237  1  0.789300  0.489600  0.645500  1
  O  O238  1  0.210700  0.510400  0.354500  1
  O  O239  1  0.850100  0.537500  0.454500  1
  O  O240  1  0.149900  0.462500  0.545500  1
  O  O241  1  0.014100  0.766600  0.145300  1
  O  O242  1  0.985900  0.233400  0.854700  1
  O  O243  1  0.839600  0.850400  0.216300  1
  O  O244  1  0.160400  0.149600  0.783700  1
