# generated using pymatgen
data_Fe2H74C91N19
_symmetry_space_group_name_H-M   'P 1'
_cell_length_a   18.00610000
_cell_length_b   23.58000000
_cell_length_c   24.90710000
_cell_angle_alpha   102.96500000
_cell_angle_beta   90.00000000
_cell_angle_gamma   90.00000000
_symmetry_Int_Tables_number   1
_chemical_formula_structural   Fe2H74C91N19
_chemical_formula_sum   'Fe8 H296 C364 N76'
_cell_volume   10305.56290753
_cell_formula_units_Z   4
loop_
 _symmetry_equiv_pos_site_id
 _symmetry_equiv_pos_as_xyz
  1  'x, y, z'
loop_
 _atom_site_type_symbol
 _atom_site_label
 _atom_site_symmetry_multiplicity
 _atom_site_fract_x
 _atom_site_fract_y
 _atom_site_fract_z
 _atom_site_occupancy
  Fe  Fe1  1  0.769340  0.452690  0.858150  1
  Fe  Fe2  1  0.269340  0.047310  0.641850  1
  Fe  Fe3  1  0.230660  0.547310  0.141850  1
  Fe  Fe4  1  0.730660  0.952690  0.358150  1
  Fe  Fe5  1  0.750600  0.924300  0.831070  1
  Fe  Fe6  1  0.250600  0.575700  0.668930  1
  Fe  Fe7  1  0.249400  0.075700  0.168930  1
  Fe  Fe8  1  0.749400  0.424300  0.331070  1
  H  H9  1  0.814400  0.369800  0.937300  1
  H  H10  1  0.314400  0.130200  0.562700  1
  H  H11  1  0.185600  0.630200  0.062700  1
  H  H12  1  0.685600  0.869800  0.437300  1
  H  H13  1  0.924700  0.339300  0.963700  1
  H  H14  1  0.424700  0.160700  0.536300  1
  H  H15  1  0.075300  0.660700  0.036300  1
  H  H16  1  0.575300  0.839300  0.463700  1
  H  H17  1  0.038800  0.368100  0.935000  1
  H  H18  1  0.538800  0.131900  0.565000  1
  H  H19  1  0.961200  0.631900  0.065000  1
  H  H20  1  0.461200  0.868100  0.435000  1
  H  H21  1  0.033000  0.423800  0.865000  1
  H  H22  1  0.533000  0.076200  0.635000  1
  H  H23  1  0.967000  0.576200  0.135000  1
  H  H24  1  0.467000  0.923800  0.365000  1
  H  H25  1  0.953600  0.488800  0.816100  1
  H  H26  1  0.453600  0.011200  0.683900  1
  H  H27  1  0.046400  0.511200  0.183900  1
  H  H28  1  0.546400  0.988800  0.316100  1
  H  H29  1  0.807400  0.468000  0.717000  1
  H  H30  1  0.307400  0.032000  0.783000  1
  H  H31  1  0.192600  0.532000  0.283000  1
  H  H32  1  0.692600  0.968000  0.217000  1
  H  H33  1  0.790000  0.532400  0.663200  1
  H  H34  1  0.290000  0.967600  0.836800  1
  H  H35  1  0.210000  0.467600  0.336800  1
  H  H36  1  0.710000  0.032400  0.163200  1
  H  H37  1  0.868400  0.664000  0.781000  1
  H  H38  1  0.368400  0.836000  0.719000  1
  H  H39  1  0.131600  0.336000  0.219000  1
  H  H40  1  0.631600  0.164000  0.281000  1
  H  H41  1  0.876500  0.600100  0.841400  1
  H  H42  1  0.376500  0.899900  0.658600  1
  H  H43  1  0.123500  0.399900  0.158600  1
  H  H44  1  0.623500  0.100100  0.341400  1
  H  H45  1  0.917700  0.567000  0.631300  1
  H  H46  1  0.417700  0.933000  0.868700  1
  H  H47  1  0.082300  0.433000  0.368700  1
  H  H48  1  0.582300  0.067000  0.131300  1
  H  H49  1  0.958500  0.551300  0.540100  1
  H  H50  1  0.458500  0.948700  0.959900  1
  H  H51  1  0.041500  0.448700  0.459900  1
  H  H52  1  0.541500  0.051300  0.040100  1
  H  H53  1  0.792700  0.663100  0.511300  1
  H  H54  1  0.292700  0.836900  0.988700  1
  H  H55  1  0.207300  0.336900  0.488700  1
  H  H56  1  0.707300  0.163100  0.011300  1
  H  H57  1  0.762900  0.681300  0.600400  1
  H  H58  1  0.262900  0.818700  0.899600  1
  H  H59  1  0.237100  0.318700  0.399600  1
  H  H60  1  0.737100  0.181300  0.100400  1
  H  H61  1  0.868000  0.745900  0.674400  1
  H  H62  1  0.368000  0.754100  0.825600  1
  H  H63  1  0.132000  0.254100  0.325600  1
  H  H64  1  0.632000  0.245900  0.174400  1
  H  H65  1  0.817600  0.836200  0.712400  1
  H  H66  1  0.317600  0.663800  0.787600  1
  H  H67  1  0.182400  0.163800  0.287600  1
  H  H68  1  0.682400  0.336200  0.212400  1
  H  H69  1  0.652500  0.758900  0.779800  1
  H  H70  1  0.152500  0.741100  0.720200  1
  H  H71  1  0.347500  0.241100  0.220200  1
  H  H72  1  0.847500  0.258900  0.279800  1
  H  H73  1  0.702700  0.666300  0.739000  1
  H  H74  1  0.202700  0.833700  0.761000  1
  H  H75  1  0.297300  0.333700  0.261000  1
  H  H76  1  0.797300  0.166300  0.239000  1
  H  H77  1  0.609000  0.846600  0.735100  1
  H  H78  1  0.109000  0.653400  0.764900  1
  H  H79  1  0.391000  0.153400  0.264900  1
  H  H80  1  0.891000  0.346600  0.235100  1
  H  H81  1  0.675000  0.046900  0.854600  1
  H  H82  1  0.175000  0.453100  0.645400  1
  H  H83  1  0.325000  0.953100  0.145400  1
  H  H84  1  0.825000  0.546900  0.354600  1
  H  H85  1  0.556100  0.078300  0.850100  1
  H  H86  1  0.056100  0.421700  0.649900  1
  H  H87  1  0.443900  0.921700  0.149900  1
  H  H88  1  0.943900  0.578300  0.350100  1
  H  H89  1  0.474500  0.025300  0.785100  1
  H  H90  1  0.974500  0.474700  0.714900  1
  H  H91  1  0.525500  0.974700  0.214900  1
  H  H92  1  0.025500  0.525300  0.285100  1
  H  H93  1  0.511300  0.924200  0.747300  1
  H  H94  1  0.011300  0.575800  0.752700  1
  H  H95  1  0.488700  0.075800  0.252700  1
  H  H96  1  0.988700  0.424200  0.247300  1
  H  H97  1  0.653000  0.365500  0.685500  1
  H  H98  1  0.153000  0.134500  0.814500  1
  H  H99  1  0.347000  0.634500  0.314500  1
  H  H100  1  0.847000  0.865500  0.185500  1
  H  H101  1  0.728800  0.284900  0.656900  1
  H  H102  1  0.228800  0.215100  0.843100  1
  H  H103  1  0.271200  0.715100  0.343100  1
  H  H104  1  0.771200  0.784900  0.156900  1
  H  H105  1  0.826600  0.269900  0.717600  1
  H  H106  1  0.326600  0.230100  0.782400  1
  H  H107  1  0.173400  0.730100  0.282400  1
  H  H108  1  0.673400  0.769900  0.217600  1
  H  H109  1  0.843000  0.334600  0.803100  1
  H  H110  1  0.343000  0.165400  0.696900  1
  H  H111  1  0.157000  0.665400  0.196900  1
  H  H112  1  0.657000  0.834600  0.303100  1
  H  H113  1  0.621000  0.461100  0.760400  1
  H  H114  1  0.121000  0.038900  0.739600  1
  H  H115  1  0.379000  0.538900  0.239600  1
  H  H116  1  0.879000  0.961100  0.260400  1
  H  H117  1  0.583800  0.514400  0.901800  1
  H  H118  1  0.083800  0.985600  0.598200  1
  H  H119  1  0.416200  0.485600  0.098200  1
  H  H120  1  0.916200  0.014400  0.401800  1
  H  H121  1  0.524000  0.601700  0.930700  1
  H  H122  1  0.024000  0.898300  0.569300  1
  H  H123  1  0.476000  0.398300  0.069300  1
  H  H124  1  0.976000  0.101700  0.430700  1
  H  H125  1  0.629100  0.664700  0.813600  1
  H  H126  1  0.129100  0.835300  0.686400  1
  H  H127  1  0.370900  0.335300  0.186400  1
  H  H128  1  0.870900  0.164700  0.313600  1
  H  H129  1  0.687300  0.577200  0.781700  1
  H  H130  1  0.187300  0.922800  0.718300  1
  H  H131  1  0.312700  0.422800  0.218300  1
  H  H132  1  0.812700  0.077200  0.281700  1
  H  H133  1  0.489100  0.762500  0.984600  1
  H  H134  1  0.989100  0.737500  0.515400  1
  H  H135  1  0.510900  0.237500  0.015400  1
  H  H136  1  0.010900  0.262500  0.484600  1
  H  H137  1  0.380500  0.762600  0.029400  1
  H  H138  1  0.880500  0.737400  0.470600  1
  H  H139  1  0.619500  0.237400  0.970600  1
  H  H140  1  0.119500  0.262600  0.529400  1
  H  H141  1  0.292700  0.653100  0.897200  1
  H  H142  1  0.792700  0.846900  0.602800  1
  H  H143  1  0.707300  0.346900  0.102800  1
  H  H144  1  0.207300  0.153100  0.397200  1
  H  H145  1  0.411700  0.641300  0.855900  1
  H  H146  1  0.911700  0.858700  0.644100  1
  H  H147  1  0.588300  0.358700  0.144100  1
  H  H148  1  0.088300  0.141300  0.355900  1
  H  H149  1  0.495200  0.793200  0.865500  1
  H  H150  1  0.995200  0.706800  0.634500  1
  H  H151  1  0.504800  0.206800  0.134500  1
  H  H152  1  0.004800  0.293200  0.365500  1
  H  H153  1  0.559200  0.878700  0.872800  1
  H  H154  1  0.059200  0.621300  0.627200  1
  H  H155  1  0.440800  0.121300  0.127200  1
  H  H156  1  0.940800  0.378700  0.372800  1
  H  H157  1  0.740200  0.805200  0.922400  1
  H  H158  1  0.240200  0.694800  0.577600  1
  H  H159  1  0.259800  0.194800  0.077600  1
  H  H160  1  0.759800  0.305200  0.422400  1
  H  H161  1  0.669800  0.725200  0.922800  1
  H  H162  1  0.169800  0.774800  0.577200  1
  H  H163  1  0.330200  0.274800  0.077200  1
  H  H164  1  0.830200  0.225200  0.422800  1
  H  H165  1  0.689400  0.930600  0.971800  1
  H  H166  1  0.189400  0.569400  0.528200  1
  H  H167  1  0.310600  0.069400  0.028200  1
  H  H168  1  0.810600  0.430600  0.471800  1
  H  H169  1  0.848300  0.035500  0.856500  1
  H  H170  1  0.348300  0.464500  0.643500  1
  H  H171  1  0.151700  0.964500  0.143500  1
  H  H172  1  0.651700  0.535500  0.356500  1
  H  H173  1  0.888500  0.100600  0.932500  1
  H  H174  1  0.388500  0.399400  0.567500  1
  H  H175  1  0.111500  0.899400  0.067500  1
  H  H176  1  0.611500  0.600600  0.432500  1
  H  H177  1  0.845400  0.090900  0.021700  1
  H  H178  1  0.345400  0.409100  0.478300  1
  H  H179  1  0.154600  0.909100  0.978300  1
  H  H180  1  0.654600  0.590900  0.521700  1
  H  H181  1  0.763600  0.017700  0.024800  1
  H  H182  1  0.263600  0.482300  0.475200  1
  H  H183  1  0.236400  0.982300  0.975200  1
  H  H184  1  0.736400  0.517700  0.524800  1
  H  H185  1  0.670400  0.342800  0.846700  1
  H  H186  1  0.170400  0.157200  0.653300  1
  H  H187  1  0.329600  0.657200  0.153300  1
  H  H188  1  0.829600  0.842800  0.346700  1
  H  H189  1  0.581600  0.311400  0.903400  1
  H  H190  1  0.081600  0.188600  0.596600  1
  H  H191  1  0.418400  0.688600  0.096600  1
  H  H192  1  0.918400  0.811400  0.403400  1
  H  H193  1  0.558000  0.366500  0.991100  1
  H  H194  1  0.058000  0.133500  0.508900  1
  H  H195  1  0.442000  0.633500  0.008900  1
  H  H196  1  0.942000  0.866500  0.491100  1
  H  H197  1  0.623900  0.456700  0.021900  1
  H  H198  1  0.123900  0.043300  0.478100  1
  H  H199  1  0.376100  0.543300  0.978100  1
  H  H200  1  0.876100  0.956700  0.521900  1
  H  H201  1  0.715600  0.529900  0.999100  1
  H  H202  1  0.215600  0.970100  0.500900  1
  H  H203  1  0.284400  0.470100  0.000900  1
  H  H204  1  0.784400  0.029900  0.499100  1
  H  H205  1  0.905700  0.536400  0.937100  1
  H  H206  1  0.405700  0.963600  0.562900  1
  H  H207  1  0.094300  0.463600  0.062900  1
  H  H208  1  0.594300  0.036400  0.437100  1
  H  H209  1  0.967200  0.632000  0.963900  1
  H  H210  1  0.467200  0.868000  0.536100  1
  H  H211  1  0.032800  0.368000  0.036100  1
  H  H212  1  0.532800  0.132000  0.463900  1
  H  H213  1  0.764700  0.705300  0.962800  1
  H  H214  1  0.264700  0.794700  0.537200  1
  H  H215  1  0.235300  0.294700  0.037200  1
  H  H216  1  0.735300  0.205300  0.462800  1
  H  H217  1  0.708400  0.618600  0.944800  1
  H  H218  1  0.208400  0.881400  0.555200  1
  H  H219  1  0.291600  0.381400  0.055200  1
  H  H220  1  0.791600  0.118600  0.444800  1
  H  H221  1  0.859800  0.731500  0.070400  1
  H  H222  1  0.359800  0.768500  0.429600  1
  H  H223  1  0.140200  0.268500  0.929600  1
  H  H224  1  0.640200  0.231500  0.570400  1
  H  H225  1  0.922700  0.761900  0.163400  1
  H  H226  1  0.422700  0.738100  0.336600  1
  H  H227  1  0.077300  0.238100  0.836600  1
  H  H228  1  0.577300  0.261900  0.663400  1
  H  H229  1  0.100000  0.805800  0.084100  1
  H  H230  1  0.600000  0.694200  0.415900  1
  H  H231  1  0.900000  0.194200  0.915900  1
  H  H232  1  0.400000  0.305800  0.584100  1
  H  H233  1  0.038800  0.775600  0.999100  1
  H  H234  1  0.538800  0.724400  0.500900  1
  H  H235  1  0.961200  0.224400  0.000900  1
  H  H236  1  0.461200  0.275600  0.499100  1
  H  H237  1  0.905300  0.845100  0.000800  1
  H  H238  1  0.405300  0.654900  0.499200  1
  H  H239  1  0.094700  0.154900  0.999200  1
  H  H240  1  0.594700  0.345100  0.500800  1
  H  H241  1  0.886700  0.909300  0.943200  1
  H  H242  1  0.386700  0.590700  0.556800  1
  H  H243  1  0.113300  0.090700  0.056800  1
  H  H244  1  0.613300  0.409300  0.443200  1
  H  H245  1  0.850700  0.771600  0.815200  1
  H  H246  1  0.350700  0.728400  0.684800  1
  H  H247  1  0.149300  0.228400  0.184800  1
  H  H248  1  0.649300  0.271600  0.315200  1
  H  H249  1  0.872700  0.709000  0.875600  1
  H  H250  1  0.372700  0.791000  0.624400  1
  H  H251  1  0.127300  0.291000  0.124400  1
  H  H252  1  0.627300  0.209000  0.375600  1
  H  H253  1  0.944300  0.886400  0.812600  1
  H  H254  1  0.444300  0.613600  0.687400  1
  H  H255  1  0.055700  0.113600  0.187400  1
  H  H256  1  0.555700  0.386400  0.312600  1
  H  H257  1  0.736700  0.996800  0.738300  1
  H  H258  1  0.236700  0.503200  0.761700  1
  H  H259  1  0.263300  0.003200  0.261700  1
  H  H260  1  0.763300  0.496800  0.238300  1
  H  H261  1  0.814700  0.023600  0.678400  1
  H  H262  1  0.314700  0.476400  0.821600  1
  H  H263  1  0.185300  0.976400  0.321600  1
  H  H264  1  0.685300  0.523600  0.178400  1
  H  H265  1  0.937700  0.004700  0.678000  1
  H  H266  1  0.437700  0.495300  0.822000  1
  H  H267  1  0.062300  0.995300  0.322000  1
  H  H268  1  0.562300  0.504700  0.178000  1
  H  H269  1  0.987500  0.944600  0.737700  1
  H  H270  1  0.487500  0.555400  0.762300  1
  H  H271  1  0.012500  0.055400  0.262300  1
  H  H272  1  0.512500  0.444600  0.237700  1
  H  H273  1  0.937500  0.574400  0.449100  1
  H  H274  1  0.437500  0.925600  0.050900  1
  H  H275  1  0.062500  0.425600  0.550900  1
  H  H276  1  0.562500  0.074400  0.949100  1
  H  H277  1  0.879000  0.618500  0.441300  1
  H  H278  1  0.379000  0.881500  0.058700  1
  H  H279  1  0.121000  0.381500  0.558700  1
  H  H280  1  0.621000  0.118500  0.941300  1
  H  H281  1  0.212300  0.696100  0.975400  1
  H  H282  1  0.712300  0.803900  0.524600  1
  H  H283  1  0.787700  0.303900  0.024600  1
  H  H284  1  0.287700  0.196100  0.475400  1
  H  H285  1  0.244500  0.738800  0.025100  1
  H  H286  1  0.744500  0.761200  0.474900  1
  H  H287  1  0.755500  0.261200  0.974900  1
  H  H288  1  0.255500  0.238800  0.525100  1
  H  H289  1  0.030300  0.816000  0.211300  1
  H  H290  1  0.530300  0.684000  0.288700  1
  H  H291  1  0.969700  0.184000  0.788700  1
  H  H292  1  0.469700  0.316000  0.711300  1
  H  H293  1  0.099100  0.824700  0.178400  1
  H  H294  1  0.599100  0.675300  0.321600  1
  H  H295  1  0.900900  0.175300  0.821600  1
  H  H296  1  0.400900  0.324700  0.678400  1
  H  H297  1  0.055300  0.782100  0.208900  1
  H  H298  1  0.555300  0.717900  0.291100  1
  H  H299  1  0.944700  0.217900  0.791100  1
  H  H300  1  0.444700  0.282100  0.708900  1
  H  H301  1  0.117500  0.803300  0.176800  1
  H  H302  1  0.617500  0.696700  0.323200  1
  H  H303  1  0.882500  0.196700  0.823200  1
  H  H304  1  0.382500  0.303300  0.676800  1
  C  C305  1  0.924700  0.435900  0.868900  1
  C  C306  1  0.424700  0.064100  0.631100  1
  C  C307  1  0.075300  0.564100  0.131100  1
  C  C308  1  0.575300  0.935900  0.368900  1
  C  C309  1  0.859000  0.381800  0.922800  1
  C  C310  1  0.359000  0.118200  0.577200  1
  C  C311  1  0.141000  0.618200  0.077200  1
  C  C312  1  0.641000  0.881800  0.422800  1
  C  C313  1  0.925300  0.364400  0.938700  1
  C  C314  1  0.425300  0.135600  0.561300  1
  C  C315  1  0.074700  0.635600  0.061300  1
  C  C316  1  0.574700  0.864400  0.438700  1
  C  C317  1  0.993200  0.379800  0.921800  1
  C  C318  1  0.493200  0.120200  0.578200  1
  C  C319  1  0.006800  0.620200  0.078200  1
  C  C320  1  0.506800  0.879800  0.421800  1
  C  C321  1  0.988800  0.415000  0.882200  1
  C  C322  1  0.488800  0.085000  0.617800  1
  C  C323  1  0.011200  0.585000  0.117800  1
  C  C324  1  0.511200  0.915000  0.382200  1
  C  C325  1  0.912300  0.474100  0.832500  1
  C  C326  1  0.412300  0.025900  0.667500  1
  C  C327  1  0.087700  0.525900  0.167500  1
  C  C328  1  0.587700  0.974100  0.332500  1
  C  C329  1  0.842700  0.527500  0.785900  1
  C  C330  1  0.342700  0.972500  0.714100  1
  C  C331  1  0.157300  0.472500  0.214100  1
  C  C332  1  0.657300  0.027500  0.285900  1
  C  C333  1  0.818100  0.508000  0.731100  1
  C  C334  1  0.318100  0.992000  0.768900  1
  C  C335  1  0.181900  0.492000  0.268900  1
  C  C336  1  0.681900  0.008000  0.231100  1
  C  C337  1  0.810000  0.545900  0.699100  1
  C  C338  1  0.310000  0.954100  0.800900  1
  C  C339  1  0.190000  0.454100  0.300900  1
  C  C340  1  0.690000  0.045900  0.199100  1
  C  C341  1  0.827900  0.600000  0.714700  1
  C  C342  1  0.327900  0.900000  0.785300  1
  C  C343  1  0.172100  0.400000  0.285300  1
  C  C344  1  0.672100  0.100000  0.214700  1
  C  C345  1  0.855000  0.624200  0.769500  1
  C  C346  1  0.355000  0.875800  0.730500  1
  C  C347  1  0.145000  0.375800  0.230500  1
  C  C348  1  0.645000  0.124200  0.269500  1
  C  C349  1  0.860500  0.586100  0.804500  1
  C  C350  1  0.360500  0.913900  0.695500  1
  C  C351  1  0.139500  0.413900  0.195500  1
  C  C352  1  0.639500  0.086100  0.304500  1
  C  C353  1  0.840000  0.628100  0.625400  1
  C  C354  1  0.340000  0.871900  0.874600  1
  C  C355  1  0.160000  0.371900  0.374600  1
  C  C356  1  0.660000  0.128100  0.125400  1
  C  C357  1  0.895700  0.587700  0.606800  1
  C  C358  1  0.395700  0.912300  0.893200  1
  C  C359  1  0.104300  0.412300  0.393200  1
  C  C360  1  0.604300  0.087700  0.106800  1
  C  C361  1  0.919200  0.577700  0.552800  1
  C  C362  1  0.419200  0.922300  0.947200  1
  C  C363  1  0.080800  0.422300  0.447200  1
  C  C364  1  0.580800  0.077700  0.052800  1
  C  C365  1  0.883500  0.607800  0.516400  1
  C  C366  1  0.383500  0.892200  0.983600  1
  C  C367  1  0.116500  0.392200  0.483600  1
  C  C368  1  0.616500  0.107800  0.016400  1
  C  C369  1  0.820200  0.645800  0.536000  1
  C  C370  1  0.320200  0.854200  0.964000  1
  C  C371  1  0.179800  0.354200  0.464000  1
  C  C372  1  0.679800  0.145800  0.036000  1
  C  C373  1  0.802500  0.655200  0.587300  1
  C  C374  1  0.302500  0.844800  0.912700  1
  C  C375  1  0.197500  0.344800  0.412700  1
  C  C376  1  0.697500  0.155200  0.087300  1
  C  C377  1  0.789000  0.697900  0.703600  1
  C  C378  1  0.289000  0.802100  0.796400  1
  C  C379  1  0.211000  0.302100  0.296400  1
  C  C380  1  0.711000  0.197900  0.203600  1
  C  C381  1  0.824000  0.748800  0.696000  1
  C  C382  1  0.324000  0.751200  0.804000  1
  C  C383  1  0.176000  0.251200  0.304000  1
  C  C384  1  0.676000  0.248800  0.196000  1
  C  C385  1  0.795600  0.801800  0.718900  1
  C  C386  1  0.295600  0.698200  0.781100  1
  C  C387  1  0.204400  0.198200  0.281100  1
  C  C388  1  0.704400  0.301800  0.218900  1
  C  C389  1  0.735000  0.804200  0.751400  1
  C  C390  1  0.235000  0.695800  0.748600  1
  C  C391  1  0.265000  0.195800  0.248600  1
  C  C392  1  0.765000  0.304200  0.251400  1
  C  C393  1  0.697000  0.755400  0.758800  1
  C  C394  1  0.197000  0.744600  0.741200  1
  C  C395  1  0.303000  0.244600  0.241200  1
  C  C396  1  0.803000  0.255400  0.258800  1
  C  C397  1  0.726400  0.700900  0.734200  1
  C  C398  1  0.226400  0.799100  0.765800  1
  C  C399  1  0.273600  0.299100  0.265800  1
  C  C400  1  0.773600  0.200900  0.234200  1
  C  C401  1  0.637700  0.874300  0.760400  1
  C  C402  1  0.137700  0.625700  0.739600  1
  C  C403  1  0.362300  0.125700  0.239600  1
  C  C404  1  0.862300  0.374300  0.260400  1
  C  C405  1  0.610700  0.931000  0.784200  1
  C  C406  1  0.110700  0.569000  0.715800  1
  C  C407  1  0.389300  0.069000  0.215800  1
  C  C408  1  0.889300  0.431000  0.284200  1
  C  C409  1  0.639000  0.020500  0.835500  1
  C  C410  1  0.139000  0.479500  0.664500  1
  C  C411  1  0.361000  0.979500  0.164500  1
  C  C412  1  0.861000  0.520500  0.335500  1
  C  C413  1  0.569900  0.041000  0.829200  1
  C  C414  1  0.069900  0.459000  0.670800  1
  C  C415  1  0.430100  0.959000  0.170800  1
  C  C416  1  0.930100  0.541000  0.329200  1
  C  C417  1  0.520400  0.009800  0.794200  1
  C  C418  1  0.020400  0.490200  0.705800  1
  C  C419  1  0.479600  0.990200  0.205800  1
  C  C420  1  0.979600  0.509800  0.294200  1
  C  C421  1  0.543500  0.950000  0.771400  1
  C  C422  1  0.043500  0.550000  0.728600  1
  C  C423  1  0.456500  0.050000  0.228600  1
  C  C424  1  0.956500  0.450000  0.271400  1
  C  C425  1  0.708000  0.397000  0.756900  1
  C  C426  1  0.208000  0.103000  0.743100  1
  C  C427  1  0.292000  0.603000  0.243100  1
  C  C428  1  0.792000  0.897000  0.256900  1
  C  C429  1  0.693400  0.358700  0.707800  1
  C  C430  1  0.193400  0.141300  0.792200  1
  C  C431  1  0.306600  0.641300  0.292200  1
  C  C432  1  0.806600  0.858700  0.207800  1
  C  C433  1  0.736600  0.311400  0.691300  1
  C  C434  1  0.236600  0.188600  0.808700  1
  C  C435  1  0.263400  0.688600  0.308700  1
  C  C436  1  0.763400  0.811400  0.191300  1
  C  C437  1  0.794900  0.302800  0.727900  1
  C  C438  1  0.294900  0.197200  0.772100  1
  C  C439  1  0.205100  0.697200  0.272100  1
  C  C440  1  0.705100  0.802800  0.227900  1
  C  C441  1  0.806000  0.341600  0.778200  1
  C  C442  1  0.306000  0.158400  0.721800  1
  C  C443  1  0.194000  0.658400  0.221800  1
  C  C444  1  0.694000  0.841600  0.278200  1
  C  C445  1  0.663700  0.452000  0.779300  1
  C  C446  1  0.163700  0.048000  0.720700  1
  C  C447  1  0.336300  0.548000  0.220700  1
  C  C448  1  0.836300  0.952000  0.279300  1
  C  C449  1  0.641300  0.535500  0.837800  1
  C  C450  1  0.141300  0.964500  0.662200  1
  C  C451  1  0.358700  0.464500  0.162200  1
  C  C452  1  0.858700  0.035500  0.337800  1
  C  C453  1  0.592200  0.544800  0.883100  1
  C  C454  1  0.092200  0.955200  0.616900  1
  C  C455  1  0.407800  0.455200  0.116900  1
  C  C456  1  0.907800  0.044800  0.383100  1
  C  C457  1  0.556900  0.596100  0.900100  1
  C  C458  1  0.056900  0.903900  0.599900  1
  C  C459  1  0.443100  0.403900  0.099900  1
  C  C460  1  0.943100  0.096100  0.400100  1
  C  C461  1  0.568700  0.641200  0.872700  1
  C  C462  1  0.068700  0.858800  0.627300  1
  C  C463  1  0.431300  0.358800  0.127300  1
  C  C464  1  0.931300  0.141200  0.372700  1
  C  C465  1  0.618700  0.633200  0.830500  1
  C  C466  1  0.118700  0.866800  0.669500  1
  C  C467  1  0.381300  0.366800  0.169500  1
  C  C468  1  0.881300  0.133200  0.330500  1
  C  C469  1  0.654100  0.581900  0.812000  1
  C  C470  1  0.154100  0.918100  0.688000  1
  C  C471  1  0.345900  0.418100  0.188000  1
  C  C472  1  0.845900  0.081900  0.312000  1
  C  C473  1  0.464400  0.700300  0.915200  1
  C  C474  1  0.964400  0.799700  0.584800  1
  C  C475  1  0.535600  0.299700  0.084800  1
  C  C476  1  0.035600  0.200300  0.415200  1
  C  C477  1  0.450200  0.737900  0.967300  1
  C  C478  1  0.950200  0.762100  0.532700  1
  C  C479  1  0.549800  0.262100  0.032700  1
  C  C480  1  0.049800  0.237900  0.467300  1
  C  C481  1  0.385500  0.740200  0.992800  1
  C  C482  1  0.885500  0.759800  0.507200  1
  C  C483  1  0.614500  0.259800  0.007200  1
  C  C484  1  0.114500  0.240200  0.492800  1
  C  C485  1  0.324200  0.709500  0.965900  1
  C  C486  1  0.824200  0.790500  0.534100  1
  C  C487  1  0.675800  0.290500  0.034100  1
  C  C488  1  0.175800  0.209500  0.465900  1
  C  C489  1  0.333800  0.674100  0.915700  1
  C  C490  1  0.833800  0.825900  0.584300  1
  C  C491  1  0.666200  0.325900  0.084300  1
  C  C492  1  0.166200  0.174100  0.415700  1
  C  C493  1  0.405000  0.667900  0.890300  1
  C  C494  1  0.905000  0.832100  0.609700  1
  C  C495  1  0.595000  0.332100  0.109700  1
  C  C496  1  0.095000  0.167900  0.390300  1
  C  C497  1  0.575800  0.746800  0.890700  1
  C  C498  1  0.075800  0.753200  0.609300  1
  C  C499  1  0.424200  0.253200  0.109300  1
  C  C500  1  0.924200  0.246800  0.390700  1
  C  C501  1  0.545600  0.794900  0.877200  1
  C  C502  1  0.045600  0.705100  0.622800  1
  C  C503  1  0.454400  0.205100  0.122800  1
  C  C504  1  0.954400  0.294900  0.377200  1
  C  C505  1  0.584300  0.845600  0.879500  1
  C  C506  1  0.084300  0.654400  0.620500  1
  C  C507  1  0.415700  0.154400  0.120500  1
  C  C508  1  0.915700  0.345600  0.379500  1
  C  C509  1  0.657300  0.848900  0.891300  1
  C  C510  1  0.157300  0.651100  0.608700  1
  C  C511  1  0.342700  0.151100  0.108700  1
  C  C512  1  0.842700  0.348900  0.391300  1
  C  C513  1  0.690300  0.803100  0.909900  1
  C  C514  1  0.190300  0.696900  0.590100  1
  C  C515  1  0.309700  0.196900  0.090100  1
  C  C516  1  0.809700  0.303100  0.409900  1
  C  C517  1  0.647600  0.755600  0.909100  1
  C  C518  1  0.147600  0.744400  0.590900  1
  C  C519  1  0.352400  0.244400  0.090900  1
  C  C520  1  0.852400  0.255600  0.409100  1
  C  C521  1  0.713500  0.936800  0.939700  1
  C  C522  1  0.213500  0.563200  0.560300  1
  C  C523  1  0.286500  0.063200  0.060300  1
  C  C524  1  0.786500  0.436800  0.439700  1
  C  C525  1  0.759600  0.983100  0.944100  1
  C  C526  1  0.259600  0.516900  0.555900  1
  C  C527  1  0.240400  0.016900  0.055900  1
  C  C528  1  0.740400  0.483100  0.444100  1
  C  C529  1  0.830400  0.031700  0.891400  1
  C  C530  1  0.330400  0.468300  0.608600  1
  C  C531  1  0.169600  0.968300  0.108600  1
  C  C532  1  0.669600  0.531700  0.391400  1
  C  C533  1  0.855100  0.070500  0.936000  1
  C  C534  1  0.355100  0.429500  0.564000  1
  C  C535  1  0.144900  0.929500  0.064000  1
  C  C536  1  0.644900  0.570500  0.436000  1
  C  C537  1  0.829500  0.064900  0.988900  1
  C  C538  1  0.329500  0.435100  0.511100  1
  C  C539  1  0.170500  0.935100  0.011100  1
  C  C540  1  0.670500  0.564900  0.488900  1
  C  C541  1  0.782200  0.021700  0.990200  1
  C  C542  1  0.282200  0.478300  0.509800  1
  C  C543  1  0.217800  0.978300  0.009800  1
  C  C544  1  0.717800  0.521700  0.490200  1
  C  C545  1  0.681000  0.448500  0.950200  1
  C  C546  1  0.181000  0.051500  0.549800  1
  C  C547  1  0.319000  0.551500  0.049800  1
  C  C548  1  0.819000  0.948500  0.450200  1
  C  C549  1  0.660700  0.365400  0.882700  1
  C  C550  1  0.160700  0.134600  0.617300  1
  C  C551  1  0.339300  0.634600  0.117300  1
  C  C552  1  0.839300  0.865400  0.382700  1
  C  C553  1  0.607600  0.346900  0.916500  1
  C  C554  1  0.107600  0.153100  0.583500  1
  C  C555  1  0.392400  0.653100  0.083500  1
  C  C556  1  0.892400  0.846900  0.416500  1
  C  C557  1  0.593100  0.379300  0.967900  1
  C  C558  1  0.093100  0.120700  0.532100  1
  C  C559  1  0.406900  0.620700  0.032100  1
  C  C560  1  0.906900  0.879300  0.467900  1
  C  C561  1  0.631800  0.432800  0.986200  1
  C  C562  1  0.131800  0.067200  0.513800  1
  C  C563  1  0.368200  0.567200  0.013800  1
  C  C564  1  0.868200  0.932800  0.486200  1
  C  C565  1  0.721200  0.503800  0.964300  1
  C  C566  1  0.221200  0.996200  0.535700  1
  C  C567  1  0.278800  0.496200  0.035700  1
  C  C568  1  0.778800  0.003800  0.464300  1
  C  C569  1  0.802000  0.570800  0.941900  1
  C  C570  1  0.302000  0.929200  0.558100  1
  C  C571  1  0.198000  0.429200  0.058100  1
  C  C572  1  0.698000  0.070800  0.441900  1
  C  C573  1  0.877800  0.571500  0.944400  1
  C  C574  1  0.377800  0.928500  0.555600  1
  C  C575  1  0.122200  0.428500  0.055600  1
  C  C576  1  0.622200  0.071500  0.444400  1
  C  C577  1  0.914900  0.629100  0.959100  1
  C  C578  1  0.414900  0.870900  0.540900  1
  C  C579  1  0.085100  0.370900  0.040900  1
  C  C580  1  0.585100  0.129100  0.459100  1
  C  C581  1  0.871600  0.677900  0.965800  1
  C  C582  1  0.371600  0.822100  0.534200  1
  C  C583  1  0.128400  0.322100  0.034200  1
  C  C584  1  0.628400  0.177900  0.465800  1
  C  C585  1  0.794200  0.671300  0.959200  1
  C  C586  1  0.294200  0.828700  0.540800  1
  C  C587  1  0.205800  0.328700  0.040800  1
  C  C588  1  0.705800  0.171300  0.459200  1
  C  C589  1  0.760900  0.620700  0.948300  1
  C  C590  1  0.260900  0.879300  0.551700  1
  C  C591  1  0.239100  0.379300  0.051700  1
  C  C592  1  0.739100  0.120700  0.448300  1
  C  C593  1  0.946300  0.751800  0.025900  1
  C  C594  1  0.446300  0.748200  0.474100  1
  C  C595  1  0.053700  0.248200  0.974100  1
  C  C596  1  0.553700  0.251800  0.525900  1
  C  C597  1  0.909100  0.746400  0.073100  1
  C  C598  1  0.409100  0.753600  0.426900  1
  C  C599  1  0.090900  0.253600  0.926900  1
  C  C600  1  0.590900  0.246400  0.573100  1
  C  C601  1  0.946500  0.764200  0.129900  1
  C  C602  1  0.446500  0.735800  0.370100  1
  C  C603  1  0.053500  0.235800  0.870100  1
  C  C604  1  0.553500  0.264200  0.629900  1
  C  C605  1  0.013100  0.782700  0.127400  1
  C  C606  1  0.513100  0.717300  0.372600  1
  C  C607  1  0.986900  0.217300  0.872600  1
  C  C608  1  0.486900  0.282700  0.627400  1
  C  C609  1  0.051300  0.790000  0.081900  1
  C  C610  1  0.551300  0.710000  0.418100  1
  C  C611  1  0.948700  0.210000  0.918100  1
  C  C612  1  0.448700  0.290000  0.581900  1
  C  C613  1  0.013200  0.772300  0.031600  1
  C  C614  1  0.513200  0.727700  0.468400  1
  C  C615  1  0.986800  0.227700  0.968400  1
  C  C616  1  0.486800  0.272300  0.531600  1
  C  C617  1  0.890600  0.772000  0.942400  1
  C  C618  1  0.390600  0.728000  0.557600  1
  C  C619  1  0.109400  0.228000  0.057600  1
  C  C620  1  0.609400  0.272000  0.442400  1
  C  C621  1  0.894200  0.830300  0.963000  1
  C  C622  1  0.394200  0.669700  0.537000  1
  C  C623  1  0.105800  0.169700  0.037000  1
  C  C624  1  0.605800  0.330300  0.463000  1
  C  C625  1  0.881800  0.868700  0.928500  1
  C  C626  1  0.381800  0.631300  0.571500  1
  C  C627  1  0.118200  0.131300  0.071500  1
  C  C628  1  0.618200  0.368700  0.428500  1
  C  C629  1  0.862700  0.849700  0.873900  1
  C  C630  1  0.362700  0.650300  0.626100  1
  C  C631  1  0.137300  0.150300  0.126100  1
  C  C632  1  0.637300  0.349700  0.373900  1
  C  C633  1  0.861000  0.787400  0.853000  1
  C  C634  1  0.361000  0.712600  0.647000  1
  C  C635  1  0.139000  0.212600  0.147000  1
  C  C636  1  0.639000  0.287400  0.353000  1
  C  C637  1  0.874700  0.750000  0.889200  1
  C  C638  1  0.374700  0.750000  0.610800  1
  C  C639  1  0.125300  0.250000  0.110800  1
  C  C640  1  0.625300  0.250000  0.389200  1
  C  C641  1  0.895100  0.900300  0.810300  1
  C  C642  1  0.395100  0.599700  0.689700  1
  C  C643  1  0.104900  0.099700  0.189700  1
  C  C644  1  0.604900  0.400300  0.310300  1
  C  C645  1  0.882000  0.938400  0.773900  1
  C  C646  1  0.382000  0.561600  0.726100  1
  C  C647  1  0.118000  0.061600  0.226100  1
  C  C648  1  0.618000  0.438400  0.273900  1
  C  C649  1  0.787400  0.985700  0.738300  1
  C  C650  1  0.287400  0.514300  0.761700  1
  C  C651  1  0.212600  0.014300  0.261700  1
  C  C652  1  0.712600  0.485700  0.238300  1
  C  C653  1  0.833800  0.002300  0.703500  1
  C  C654  1  0.333800  0.497700  0.796500  1
  C  C655  1  0.166200  0.997700  0.296500  1
  C  C656  1  0.666200  0.502300  0.203500  1
  C  C657  1  0.906000  0.990200  0.702400  1
  C  C658  1  0.406000  0.509800  0.797600  1
  C  C659  1  0.094000  0.009800  0.297600  1
  C  C660  1  0.594000  0.490200  0.202400  1
  C  C661  1  0.936600  0.955300  0.738000  1
  C  C662  1  0.436600  0.544700  0.762000  1
  C  C663  1  0.063400  0.044700  0.262000  1
  C  C664  1  0.563400  0.455300  0.238000  1
  C  C665  1  0.020500  0.784000  0.130000  1
  C  C666  1  0.520500  0.716000  0.370000  1
  C  C667  1  0.979500  0.216000  0.870000  1
  C  C668  1  0.479500  0.284000  0.630000  1
  N  N669  1  0.856100  0.418200  0.884100  1
  N  N670  1  0.356100  0.081800  0.615900  1
  N  N671  1  0.143900  0.581800  0.115900  1
  N  N672  1  0.643900  0.918200  0.384100  1
  N  N673  1  0.847400  0.488700  0.821900  1
  N  N674  1  0.347400  0.011300  0.678100  1
  N  N675  1  0.152600  0.511300  0.178100  1
  N  N676  1  0.652600  0.988700  0.321900  1
  N  N677  1  0.821100  0.640700  0.680100  1
  N  N678  1  0.321100  0.859300  0.819900  1
  N  N679  1  0.178900  0.359300  0.319900  1
  N  N680  1  0.678900  0.140700  0.180100  1
  N  N681  1  0.902100  0.599200  0.462700  1
  N  N682  1  0.402100  0.900800  0.037300  1
  N  N683  1  0.097900  0.400800  0.537300  1
  N  N684  1  0.597900  0.099200  0.962700  1
  N  N685  1  0.704900  0.862600  0.775500  1
  N  N686  1  0.204900  0.637400  0.724500  1
  N  N687  1  0.295100  0.137400  0.224500  1
  N  N688  1  0.795100  0.362600  0.275500  1
  N  N689  1  0.659000  0.965100  0.816000  1
  N  N690  1  0.159000  0.534900  0.684000  1
  N  N691  1  0.341000  0.034900  0.184000  1
  N  N692  1  0.841000  0.465100  0.316000  1
  N  N693  1  0.761800  0.390500  0.790800  1
  N  N694  1  0.261800  0.109500  0.709200  1
  N  N695  1  0.238200  0.609500  0.209200  1
  N  N696  1  0.738200  0.890500  0.290800  1
  N  N697  1  0.683800  0.483400  0.821200  1
  N  N698  1  0.183800  0.016600  0.678800  1
  N  N699  1  0.316200  0.516600  0.178800  1
  N  N700  1  0.816200  0.983400  0.321200  1
  N  N701  1  0.533200  0.697300  0.890600  1
  N  N702  1  0.033200  0.802700  0.609400  1
  N  N703  1  0.466800  0.302700  0.109400  1
  N  N704  1  0.966800  0.197300  0.390600  1
  N  N705  1  0.250400  0.715600  0.992400  1
  N  N706  1  0.750400  0.784400  0.507600  1
  N  N707  1  0.749600  0.284400  0.007600  1
  N  N708  1  0.249600  0.215600  0.492400  1
  N  N709  1  0.701600  0.901600  0.894200  1
  N  N710  1  0.201600  0.598400  0.605800  1
  N  N711  1  0.298400  0.098400  0.105800  1
  N  N712  1  0.798400  0.401600  0.394200  1
  N  N713  1  0.783100  0.988700  0.892100  1
  N  N714  1  0.283100  0.511300  0.607900  1
  N  N715  1  0.216900  0.011300  0.107900  1
  N  N716  1  0.716900  0.488700  0.392100  1
  N  N717  1  0.698100  0.415900  0.901800  1
  N  N718  1  0.198100  0.084100  0.598200  1
  N  N719  1  0.301900  0.584100  0.098200  1
  N  N720  1  0.801900  0.915900  0.401800  1
  N  N721  1  0.764700  0.515000  0.926800  1
  N  N722  1  0.264700  0.985000  0.573200  1
  N  N723  1  0.235300  0.485000  0.073200  1
  N  N724  1  0.735300  0.015000  0.426800  1
  N  N725  1  0.908000  0.734400  0.978400  1
  N  N726  1  0.408000  0.765600  0.521600  1
  N  N727  1  0.092000  0.265600  0.021600  1
  N  N728  1  0.592000  0.234400  0.478400  1
  N  N729  1  0.053300  0.811900  0.179500  1
  N  N730  1  0.553300  0.688100  0.320500  1
  N  N731  1  0.946700  0.188100  0.820500  1
  N  N732  1  0.446700  0.311900  0.679500  1
  N  N733  1  0.847900  0.884800  0.838000  1
  N  N734  1  0.347900  0.615200  0.662000  1
  N  N735  1  0.152100  0.115200  0.162000  1
  N  N736  1  0.652100  0.384800  0.338000  1
  N  N737  1  0.810400  0.952600  0.774800  1
  N  N738  1  0.310400  0.547400  0.725200  1
  N  N739  1  0.189600  0.047400  0.225200  1
  N  N740  1  0.689600  0.452600  0.274800  1
  N  N741  1  0.071700  0.790800  0.178500  1
  N  N742  1  0.571700  0.709200  0.321500  1
  N  N743  1  0.928300  0.209200  0.821500  1
  N  N744  1  0.428300  0.290800  0.678500  1
