# generated using pymatgen
data_Fe2P3H56C74N12O2F15
_symmetry_space_group_name_H-M   'P 1'
_cell_length_a   20.33000000
_cell_length_b   23.20526944
_cell_length_c   23.20526944
_cell_angle_alpha   85.50837804
_cell_angle_beta   79.74614775
_cell_angle_gamma   79.74614775
_symmetry_Int_Tables_number   1
_chemical_formula_structural   Fe2P3H56C74N12O2F15
_chemical_formula_sum   'Fe8 P12 H224 C296 N48 O8 F60'
_cell_volume   10588.19934704
_cell_formula_units_Z   4
loop_
 _symmetry_equiv_pos_site_id
 _symmetry_equiv_pos_as_xyz
  1  'x, y, z'
loop_
 _atom_site_type_symbol
 _atom_site_label
 _atom_site_symmetry_multiplicity
 _atom_site_fract_x
 _atom_site_fract_y
 _atom_site_fract_z
 _atom_site_occupancy
  C  C1  1  0.748700  0.168100  0.099300  1
  C  C2  1  0.248700  0.099300  0.168100  1
  C  C3  1  0.764100  0.258600  0.123600  1
  C  C4  1  0.264100  0.123600  0.258600  1
  C  C5  1  0.732400  0.287700  0.082100  1
  C  C6  1  0.232400  0.082100  0.287700  1
  C  C7  1  0.709900  0.254400  0.042400  1
  C  C8  1  0.209900  0.042400  0.254400  1
  C  C9  1  0.715700  0.196500  0.057100  1
  C  C10  1  0.215700  0.057100  0.196500  1
  C  C11  1  0.757600  0.108700  0.115500  1
  C  C12  1  0.257600  0.115500  0.108700  1
  C  C13  1  0.800600  0.028300  0.171700  1
  C  C14  1  0.300600  0.171700  0.028300  1
  C  C15  1  0.864200  0.994900  0.164300  1
  C  C16  1  0.364200  0.164300  0.994900  1
  C  C17  1  0.871900  0.934400  0.177400  1
  C  C18  1  0.371900  0.177400  0.934400  1
  C  C19  1  0.818000  0.907300  0.198100  1
  C  C20  1  0.318000  0.198100  0.907300  1
  C  C21  1  0.752300  0.943100  0.204500  1
  C  C22  1  0.252300  0.204500  0.943100  1
  C  C23  1  0.745100  0.999000  0.194000  1
  C  C24  1  0.245100  0.194000  0.999000  1
  C  C25  1  0.826700  0.839300  0.206900  1
  C  C26  1  0.326700  0.206900  0.839300  1
  C  C27  1  0.764100  0.815800  0.223400  1
  C  C28  1  0.264100  0.223400  0.815800  1
  C  C29  1  0.737800  0.802800  0.171600  1
  C  C30  1  0.237800  0.171600  0.802800  1
  C  C31  1  0.678900  0.779900  0.177100  1
  C  C32  1  0.178900  0.177100  0.779900  1
  C  C33  1  0.649000  0.764800  0.233200  1
  C  C34  1  0.149000  0.233200  0.764800  1
  C  C35  1  0.673100  0.776100  0.281100  1
  C  C36  1  0.173100  0.281100  0.776100  1
  C  C37  1  0.728900  0.799000  0.274400  1
  C  C38  1  0.228900  0.274400  0.799000  1
  C  C39  1  0.597800  0.676300  0.258300  1
  C  C40  1  0.097800  0.258300  0.676300  1
  C  C41  1  0.542200  0.650200  0.259600  1
  C  C42  1  0.042200  0.259600  0.650200  1
  C  C43  1  0.420900  0.666800  0.266200  1
  C  C44  1  0.920900  0.266200  0.666800  1
  C  C45  1  0.420300  0.607600  0.281000  1
  C  C46  1  0.920300  0.281000  0.607600  1
  C  C47  1  0.480700  0.569800  0.285000  1
  C  C48  1  0.980700  0.285000  0.569800  1
  C  C49  1  0.541700  0.591100  0.274300  1
  C  C50  1  0.041700  0.274300  0.591100  1
  C  C51  1  0.862900  0.826600  0.266000  1
  C  C52  1  0.362900  0.266000  0.826600  1
  C  C53  1  0.906400  0.766900  0.266900  1
  C  C54  1  0.406400  0.266900  0.766900  1
  C  C55  1  0.943600  0.753900  0.312100  1
  C  C56  1  0.443600  0.312100  0.753900  1
  C  C57  1  0.941800  0.793200  0.353600  1
  C  C58  1  0.441800  0.353600  0.793200  1
  C  C59  1  0.898400  0.848200  0.353000  1
  C  C60  1  0.398400  0.353000  0.848200  1
  C  C61  1  0.862300  0.862100  0.305900  1
  C  C62  1  0.362300  0.305900  0.862100  1
  C  C63  1  0.035500  0.808800  0.394400  1
  C  C64  1  0.535500  0.394400  0.808800  1
  C  C65  1  0.077000  0.799000  0.431400  1
  C  C66  1  0.577000  0.431400  0.799000  1
  C  C67  1  0.102600  0.742800  0.518800  1
  C  C68  1  0.602600  0.518800  0.742800  1
  C  C69  1  0.156100  0.772600  0.519200  1
  C  C70  1  0.656100  0.519200  0.772600  1
  C  C71  1  0.170000  0.815600  0.475800  1
  C  C72  1  0.670000  0.475800  0.815600  1
  C  C73  1  0.130400  0.828800  0.432000  1
  C  C74  1  0.630400  0.432000  0.828800  1
  C  C75  1  0.796500  0.241300  0.274500  1
  C  C76  1  0.296500  0.274500  0.241300  1
  C  C77  1  0.899500  0.245800  0.211800  1
  C  C78  1  0.399500  0.211800  0.245800  1
  C  C79  1  0.911800  0.291900  0.240300  1
  C  C80  1  0.411800  0.240300  0.291900  1
  C  C81  1  0.860300  0.315500  0.287100  1
  C  C82  1  0.360300  0.287100  0.315500  1
  C  C83  1  0.806200  0.287900  0.302500  1
  C  C84  1  0.306200  0.302500  0.287900  1
  C  C85  1  0.743200  0.211800  0.285000  1
  C  C86  1  0.243200  0.285000  0.211800  1
  C  C87  1  0.683900  0.137700  0.268100  1
  C  C88  1  0.183900  0.268100  0.137700  1
  C  C89  1  0.681400  0.102400  0.322400  1
  C  C90  1  0.181400  0.322400  0.102400  1
  C  C91  1  0.624600  0.076600  0.339000  1
  C  C92  1  0.124600  0.339000  0.076600  1
  C  C93  1  0.571400  0.085400  0.306200  1
  C  C94  1  0.071400  0.306200  0.085400  1
  C  C95  1  0.578900  0.117300  0.255700  1
  C  C96  1  0.078900  0.255700  0.117300  1
  C  C97  1  0.636400  0.143100  0.235100  1
  C  C98  1  0.136400  0.235100  0.143100  1
  C  C99  1  0.505300  0.057200  0.327600  1
  C  C100  1  0.005300  0.327600  0.057200  1
  C  C101  1  0.511000  0.998100  0.296900  1
  C  C102  1  0.011000  0.296900  0.998100  1
  C  C103  1  0.569900  0.964600  0.273400  1
  C  C104  1  0.069900  0.273400  0.964600  1
  C  C105  1  0.571400  0.918200  0.245200  1
  C  C106  1  0.071400  0.245200  0.918200  1
  C  C107  1  0.512900  0.899500  0.236900  1
  C  C108  1  0.012900  0.236900  0.899500  1
  C  C109  1  0.450500  0.932100  0.259700  1
  C  C110  1  0.950500  0.259700  0.932100  1
  C  C111  1  0.451000  0.979900  0.290300  1
  C  C112  1  0.951000  0.290300  0.979900  1
  C  C113  1  0.527700  0.856900  0.150100  1
  C  C114  1  0.027700  0.150100  0.856900  1
  C  C115  1  0.531400  0.806400  0.117000  1
  C  C116  1  0.031400  0.117000  0.806400  1
  C  C117  1  0.516200  0.705400  0.121600  1
  C  C118  1  0.016200  0.121600  0.705400  1
  C  C119  1  0.536200  0.703600  0.061200  1
  C  C120  1  0.036200  0.061200  0.703600  1
  C  C121  1  0.553700  0.753100  0.028700  1
  C  C122  1  0.053700  0.028700  0.753100  1
  C  C123  1  0.551300  0.804500  0.056500  1
  C  C124  1  0.051300  0.056500  0.804500  1
  C  C125  1  0.493800  0.050300  0.393300  1
  C  C126  1  0.993800  0.393300  0.050300  1
  C  C127  1  0.467400  0.099000  0.426600  1
  C  C128  1  0.967400  0.426600  0.099000  1
  C  C129  1  0.451800  0.090000  0.485400  1
  C  C130  1  0.951800  0.485400  0.090000  1
  C  C131  1  0.459400  0.034700  0.514900  1
  C  C132  1  0.959400  0.514900  0.034700  1
  C  C133  1  0.489600  0.985200  0.481400  1
  C  C134  1  0.989600  0.481400  0.985200  1
  C  C135  1  0.505400  0.994700  0.421500  1
  C  C136  1  0.005400  0.421500  0.994700  1
  C  C137  1  0.386200  0.000900  0.594700  1
  C  C138  1  0.886200  0.594700  0.000900  1
  C  C139  1  0.364800  0.991500  0.654100  1
  C  C140  1  0.864800  0.654100  0.991500  1
  C  C141  1  0.386300  0.018700  0.746300  1
  C  C142  1  0.886300  0.746300  0.018700  1
  C  C143  1  0.327800  0.998700  0.774900  1
  C  C144  1  0.827800  0.774900  0.998700  1
  C  C145  1  0.287900  0.975200  0.743200  1
  C  C146  1  0.787900  0.743200  0.975200  1
  C  C147  1  0.306400  0.971600  0.682800  1
  C  C148  1  0.806400  0.682800  0.971600  1
  C  C149  1  0.964500  0.105800  0.158200  1
  C  C150  1  0.464500  0.158200  0.105800  1
  C  C151  1  0.923600  0.160600  0.083000  1
  C  C152  1  0.423600  0.083000  0.160600  1
  C  C153  1  0.985100  0.147800  0.045200  1
  C  C154  1  0.485100  0.045200  0.147800  1
  C  C155  1  0.037000  0.114900  0.067500  1
  C  C156  1  0.537000  0.067500  0.114900  1
  C  C157  1  0.024700  0.094400  0.126800  1
  C  C158  1  0.524700  0.126800  0.094400  1
  C  C159  1  0.942900  0.087900  0.218100  1
  C  C160  1  0.442900  0.218100  0.087900  1
  C  C161  1  0.863300  0.082100  0.305300  1
  C  C162  1  0.363300  0.305300  0.082100  1
  C  C163  1  0.849000  0.027600  0.318000  1
  C  C164  1  0.349000  0.318000  0.027600  1
  C  C165  1  0.836200  0.009400  0.374800  1
  C  C166  1  0.336200  0.374800  0.009400  1
  C  C167  1  0.838500  0.043000  0.420800  1
  C  C168  1  0.338500  0.420800  0.043000  1
  C  C169  1  0.848800  0.103400  0.403600  1
  C  C170  1  0.348800  0.403600  0.103400  1
  C  C171  1  0.862900  0.119800  0.348400  1
  C  C172  1  0.362900  0.348400  0.119800  1
  C  C173  1  0.829900  0.022300  0.482900  1
  C  C174  1  0.329900  0.482900  0.022300  1
  C  C175  1  0.855400  0.958300  0.491100  1
  C  C176  1  0.355400  0.491100  0.958300  1
  C  C177  1  0.918100  0.940200  0.500800  1
  C  C178  1  0.418100  0.500800  0.940200  1
  C  C179  1  0.938600  0.889300  0.514300  1
  C  C180  1  0.438600  0.514300  0.889300  1
  C  C181  1  0.901000  0.843900  0.513100  1
  C  C182  1  0.401000  0.513100  0.843900  1
  C  C183  1  0.836400  0.861400  0.498200  1
  C  C184  1  0.336400  0.498200  0.861400  1
  C  C185  1  0.809600  0.913800  0.490000  1
  C  C186  1  0.309600  0.490000  0.913800  1
  C  C187  1  0.917500  0.762400  0.575600  1
  C  C188  1  0.417500  0.575600  0.762400  1
  C  C189  1  0.932900  0.704500  0.594700  1
  C  C190  1  0.432900  0.594700  0.704500  1
  C  C191  1  0.006000  0.619100  0.553500  1
  C  C192  1  0.506000  0.553500  0.619100  1
  C  C193  1  0.998400  0.589700  0.608300  1
  C  C194  1  0.498400  0.608300  0.589700  1
  C  C195  1  0.958100  0.617800  0.656200  1
  C  C196  1  0.458100  0.656200  0.617800  1
  C  C197  1  0.925300  0.675200  0.649400  1
  C  C198  1  0.425300  0.649400  0.675200  1
  C  C199  1  0.748400  0.040500  0.516300  1
  C  C200  1  0.248400  0.516300  0.040500  1
  C  C201  1  0.697600  0.049700  0.481700  1
  C  C202  1  0.197600  0.481700  0.049700  1
  C  C203  1  0.633400  0.060300  0.505700  1
  C  C204  1  0.133400  0.505700  0.060300  1
  C  C205  1  0.615000  0.073300  0.564100  1
  C  C206  1  0.115000  0.564100  0.073300  1
  C  C207  1  0.667100  0.063400  0.597400  1
  C  C208  1  0.167100  0.597400  0.063400  1
  C  C209  1  0.730000  0.051500  0.570900  1
  C  C210  1  0.230000  0.570900  0.051500  1
  C  C211  1  0.521900  0.147100  0.579900  1
  C  C212  1  0.021900  0.579900  0.147100  1
  C  C213  1  0.455100  0.170400  0.605600  1
  C  C214  1  0.955100  0.605600  0.170400  1
  C  C215  1  0.353900  0.146600  0.666800  1
  C  C216  1  0.853900  0.666800  0.146600  1
  C  C217  1  0.321100  0.203800  0.658400  1
  C  C218  1  0.821100  0.658400  0.203800  1
  C  C219  1  0.355400  0.244200  0.623600  1
  C  C220  1  0.855400  0.623600  0.244200  1
  C  C221  1  0.422300  0.227600  0.597200  1
  C  C222  1  0.922300  0.597200  0.227600  1
  C  C223  1  0.361600  0.818800  0.290400  1
  C  C224  1  0.861600  0.290400  0.818800  1
  C  C225  1  0.360600  0.805700  0.188700  1
  C  C226  1  0.860600  0.188700  0.805700  1
  C  C227  1  0.292900  0.832000  0.195600  1
  C  C228  1  0.792900  0.195600  0.832000  1
  C  C229  1  0.259600  0.851800  0.249800  1
  C  C230  1  0.759600  0.249800  0.851800  1
  C  C231  1  0.293900  0.845200  0.297200  1
  C  C232  1  0.793900  0.297200  0.845200  1
  C  C233  1  0.402100  0.809400  0.333800  1
  C  C234  1  0.902100  0.333800  0.809400  1
  C  C235  1  0.510000  0.785200  0.360600  1
  C  C236  1  0.010000  0.360600  0.785200  1
  C  C237  1  0.527700  0.728500  0.391100  1
  C  C238  1  0.027700  0.391100  0.728500  1
  C  C239  1  0.559800  0.724400  0.436400  1
  C  C240  1  0.059800  0.436400  0.724400  1
  C  C241  1  0.578800  0.776900  0.459300  1
  C  C242  1  0.078800  0.459300  0.776900  1
  C  C243  1  0.560600  0.827700  0.427500  1
  C  C244  1  0.060600  0.427500  0.827700  1
  C  C245  1  0.526500  0.834100  0.382100  1
  C  C246  1  0.026500  0.382100  0.834100  1
  C  C247  1  0.613100  0.770400  0.512000  1
  C  C248  1  0.113100  0.512000  0.770400  1
  C  C249  1  0.691100  0.750100  0.492300  1
  C  C250  1  0.191100  0.492300  0.750100  1
  C  C251  1  0.723200  0.751200  0.434200  1
  C  C252  1  0.223200  0.434200  0.751200  1
  C  C253  1  0.792800  0.732900  0.420500  1
  C  C254  1  0.292800  0.420500  0.732900  1
  C  C255  1  0.830300  0.713400  0.464800  1
  C  C256  1  0.330300  0.464800  0.713400  1
  C  C257  1  0.798200  0.712200  0.523000  1
  C  C258  1  0.298200  0.523000  0.712200  1
  C  C259  1  0.728600  0.730700  0.536700  1
  C  C260  1  0.228600  0.536700  0.730700  1
  C  C261  1  0.920300  0.641700  0.418900  1
  C  C262  1  0.420300  0.418900  0.641700  1
  C  C263  1  0.102900  0.647500  0.398700  1
  C  C264  1  0.602900  0.398700  0.647500  1
  C  C265  1  0.134600  0.598700  0.367300  1
  C  C266  1  0.634600  0.367300  0.598700  1
  C  C267  1  0.096000  0.561400  0.350000  1
  C  C268  1  0.596000  0.350000  0.561400  1
  C  C269  1  0.025700  0.573100  0.363900  1
  C  C270  1  0.525700  0.363900  0.573100  1
  C  C271  1  0.994000  0.622000  0.395400  1
  C  C272  1  0.494000  0.395400  0.622000  1
  C  C273  1  0.598900  0.824300  0.546100  1
  C  C274  1  0.098900  0.546100  0.824300  1
  C  C275  1  0.640800  0.864600  0.538400  1
  C  C276  1  0.140800  0.538400  0.864600  1
  C  C277  1  0.626500  0.908000  0.570400  1
  C  C278  1  0.126500  0.570400  0.908000  1
  C  C279  1  0.561300  0.928800  0.610800  1
  C  C280  1  0.061300  0.610800  0.928800  1
  C  C281  1  0.516200  0.885100  0.612300  1
  C  C282  1  0.016200  0.612300  0.885100  1
  C  C283  1  0.535600  0.835600  0.576400  1
  C  C284  1  0.035600  0.576400  0.835600  1
  C  C285  1  0.580400  0.971300  0.688700  1
  C  C286  1  0.080400  0.688700  0.971300  1
  C  C287  1  0.569600  0.016500  0.725700  1
  C  C288  1  0.069600  0.725700  0.016500  1
  C  C289  1  0.505100  0.113600  0.737400  1
  C  C290  1  0.005100  0.737400  0.113600  1
  C  C291  1  0.536800  0.120400  0.784200  1
  C  C292  1  0.036800  0.784200  0.120400  1
  C  C293  1  0.584900  0.075300  0.801700  1
  C  C294  1  0.084900  0.801700  0.075300  1
  C  C295  1  0.601300  0.023300  0.772500  1
  C  C296  1  0.101300  0.772500  0.023300  1
  F  F297  1  0.128000  0.887200  0.187800  1
  F  F298  1  0.628000  0.187800  0.887200  1
  F  F299  1  0.996600  0.954400  0.260800  1
  F  F300  1  0.496600  0.260800  0.954400  1
  F  F301  1  0.031500  0.943300  0.167100  1
  F  F302  1  0.531500  0.167100  0.943300  1
  F  F303  1  0.092800  0.980400  0.219200  1
  F  F304  1  0.592800  0.219200  0.980400  1
  F  F305  1  0.093500  0.903400  0.282000  1
  F  F306  1  0.593500  0.282000  0.903400  1
  F  F307  1  0.033100  0.860700  0.234100  1
  F  F308  1  0.533100  0.234100  0.860700  1
  F  F309  1  0.877800  0.065800  0.016000  1
  F  F310  1  0.377800  0.016000  0.065800  1
  F  F311  1  0.884300  0.081800  0.879600  1
  F  F312  1  0.384300  0.879600  0.081800  1
  F  F313  1  0.869300  0.009700  0.946500  1
  F  F314  1  0.369300  0.946500  0.009700  1
  F  F315  1  0.803200  0.085600  0.963800  1
  F  F316  1  0.303200  0.963800  0.085600  1
  F  F317  1  0.888100  0.142700  0.950900  1
  F  F318  1  0.388100  0.950900  0.142700  1
  F  F319  1  0.961500  0.056300  0.944100  1
  F  F320  1  0.461500  0.944100  0.056300  1
  F  F321  1  0.295700  0.795400  0.556600  1
  F  F322  1  0.795700  0.556600  0.795400  1
  F  F323  1  0.397600  0.882400  0.510200  1
  F  F324  1  0.897600  0.510200  0.882400  1
  F  F325  1  0.297400  0.898700  0.551700  1
  F  F326  1  0.797400  0.551700  0.898700  1
  F  F327  1  0.406200  0.782200  0.507400  1
  F  F328  1  0.906200  0.507400  0.782200  1
  F  F329  1  0.334800  0.840200  0.465200  1
  F  F330  1  0.834800  0.465200  0.840200  1
  F  F331  1  0.374200  0.826500  0.585500  1
  F  F332  1  0.874200  0.585500  0.826500  1
  F  F333  1  0.478300  0.237200  0.435400  1
  F  F334  1  0.978300  0.435400  0.237200  1
  F  F335  1  0.615900  0.273500  0.390900  1
  F  F336  1  0.115900  0.390900  0.273500  1
  F  F337  1  0.535400  0.287000  0.468200  1
  F  F338  1  0.035400  0.468200  0.287000  1
  F  F339  1  0.552800  0.224200  0.360000  1
  F  F340  1  0.052800  0.360000  0.224200  1
  F  F341  1  0.584200  0.188300  0.438100  1
  F  F342  1  0.084200  0.438100  0.188300  1
  F  F343  1  0.507100  0.304900  0.391100  1
  F  F344  1  0.007100  0.391100  0.304900  1
  F  F345  1  0.128600  0.118600  0.597200  1
  F  F346  1  0.628600  0.597200  0.118600  1
  F  F347  1  0.281900  0.102400  0.572600  1
  F  F348  1  0.781900  0.572600  0.102400  1
  F  F349  1  0.211700  0.051700  0.592100  1
  F  F350  1  0.711700  0.592100  0.051700  1
  F  F351  1  0.194100  0.190500  0.582900  1
  F  F352  1  0.694100  0.582900  0.190500  1
  F  F353  1  0.199700  0.112700  0.516100  1
  F  F354  1  0.699700  0.516100  0.112700  1
  F  F355  1  0.205100  0.124800  0.649800  1
  F  F356  1  0.705100  0.649800  0.124800  1
  Fe  Fe357  1  0.822680  0.153090  0.193050  1
  Fe  Fe358  1  0.322680  0.193050  0.153090  1
  Fe  Fe359  1  0.494380  0.770690  0.234310  1
  Fe  Fe360  1  0.994380  0.234310  0.770690  1
  Fe  Fe361  1  0.980440  0.724230  0.464770  1
  Fe  Fe362  1  0.480440  0.464770  0.724230  1
  Fe  Fe363  1  0.480820  0.050410  0.640770  1
  Fe  Fe364  1  0.980820  0.640770  0.050410  1
  H  H365  1  0.781800  0.281100  0.147700  1
  H  H366  1  0.281800  0.147700  0.281100  1
  H  H367  1  0.725000  0.329300  0.078900  1
  H  H368  1  0.225000  0.078900  0.329300  1
  H  H369  1  0.692400  0.271500  0.008500  1
  H  H370  1  0.192400  0.008500  0.271500  1
  H  H371  1  0.694700  0.173600  0.035800  1
  H  H372  1  0.194700  0.035800  0.173600  1
  H  H373  1  0.739600  0.082700  0.095300  1
  H  H374  1  0.239600  0.095300  0.082700  1
  H  H375  1  0.902900  0.012700  0.150300  1
  H  H376  1  0.402900  0.150300  0.012700  1
  H  H377  1  0.916100  0.911700  0.171700  1
  H  H378  1  0.416100  0.171700  0.911700  1
  H  H379  1  0.713200  0.925200  0.216600  1
  H  H380  1  0.213200  0.216600  0.925200  1
  H  H381  1  0.700900  0.021500  0.201500  1
  H  H382  1  0.200900  0.201500  0.021500  1
  H  H383  1  0.761900  0.810300  0.133500  1
  H  H384  1  0.261900  0.133500  0.810300  1
  H  H385  1  0.659700  0.774600  0.143800  1
  H  H386  1  0.159700  0.143800  0.774600  1
  H  H387  1  0.650000  0.767500  0.319300  1
  H  H388  1  0.150000  0.319300  0.767500  1
  H  H389  1  0.745800  0.804000  0.309000  1
  H  H390  1  0.245800  0.309000  0.804000  1
  H  H391  1  0.638800  0.655300  0.268700  1
  H  H392  1  0.138800  0.268700  0.655300  1
  H  H393  1  0.379600  0.692700  0.263500  1
  H  H394  1  0.879600  0.263500  0.692700  1
  H  H395  1  0.378600  0.593100  0.288300  1
  H  H396  1  0.878600  0.288300  0.593100  1
  H  H397  1  0.480300  0.529400  0.295000  1
  H  H398  1  0.980300  0.295000  0.529400  1
  H  H399  1  0.582900  0.565200  0.277000  1
  H  H400  1  0.082900  0.277000  0.565200  1
  H  H401  1  0.908200  0.739600  0.238000  1
  H  H402  1  0.408200  0.238000  0.739600  1
  H  H403  1  0.971300  0.716500  0.314500  1
  H  H404  1  0.471300  0.314500  0.716500  1
  H  H405  1  0.893800  0.874700  0.383300  1
  H  H406  1  0.393800  0.383300  0.874700  1
  H  H407  1  0.835900  0.900000  0.303600  1
  H  H408  1  0.335900  0.303600  0.900000  1
  H  H409  1  0.041800  0.836400  0.362200  1
  H  H410  1  0.541800  0.362200  0.836400  1
  H  H411  1  0.093100  0.713400  0.548400  1
  H  H412  1  0.593100  0.548400  0.713400  1
  H  H413  1  0.183100  0.763600  0.549200  1
  H  H414  1  0.683100  0.549200  0.763600  1
  H  H415  1  0.206500  0.836000  0.476200  1
  H  H416  1  0.706500  0.476200  0.836000  1
  H  H417  1  0.139900  0.858300  0.402300  1
  H  H418  1  0.639900  0.402300  0.858300  1
  H  H419  1  0.932100  0.231500  0.179300  1
  H  H420  1  0.432100  0.179300  0.231500  1
  H  H421  1  0.952800  0.307300  0.229500  1
  H  H422  1  0.452800  0.229500  0.307300  1
  H  H423  1  0.864000  0.349200  0.306400  1
  H  H424  1  0.364000  0.306400  0.349200  1
  H  H425  1  0.772800  0.301600  0.334800  1
  H  H426  1  0.272800  0.334800  0.301600  1
  H  H427  1  0.706300  0.222800  0.315600  1
  H  H428  1  0.206300  0.315600  0.222800  1
  H  H429  1  0.716700  0.097300  0.345100  1
  H  H430  1  0.216700  0.345100  0.097300  1
  H  H431  1  0.621200  0.051900  0.373700  1
  H  H432  1  0.121200  0.373700  0.051900  1
  H  H433  1  0.543700  0.122600  0.232800  1
  H  H434  1  0.043700  0.232800  0.122600  1
  H  H435  1  0.641000  0.164200  0.198200  1
  H  H436  1  0.141000  0.198200  0.164200  1
  H  H437  1  0.611500  0.975600  0.277600  1
  H  H438  1  0.111500  0.277600  0.975600  1
  H  H439  1  0.614100  0.896100  0.229700  1
  H  H440  1  0.114100  0.229700  0.896100  1
  H  H441  1  0.409100  0.921400  0.254200  1
  H  H442  1  0.909100  0.254200  0.921400  1
  H  H443  1  0.409000  0.001500  0.307700  1
  H  H444  1  0.909000  0.307700  0.001500  1
  H  H445  1  0.534700  0.893900  0.131500  1
  H  H446  1  0.034700  0.131500  0.893900  1
  H  H447  1  0.504200  0.671600  0.143800  1
  H  H448  1  0.004200  0.143800  0.671600  1
  H  H449  1  0.537800  0.668500  0.042100  1
  H  H450  1  0.037800  0.042100  0.668500  1
  H  H451  1  0.567300  0.751800  0.987400  1
  H  H452  1  0.067300  0.987400  0.751800  1
  H  H453  1  0.563300  0.838300  0.034300  1
  H  H454  1  0.063300  0.034300  0.838300  1
  H  H455  1  0.460500  0.137300  0.408700  1
  H  H456  1  0.960500  0.408700  0.137300  1
  H  H457  1  0.434500  0.123200  0.508200  1
  H  H458  1  0.934500  0.508200  0.123200  1
  H  H459  1  0.498600  0.947000  0.499600  1
  H  H460  1  0.998600  0.499600  0.947000  1
  H  H461  1  0.524900  0.962100  0.398300  1
  H  H462  1  0.024900  0.398300  0.962100  1
  H  H463  1  0.361900  0.989000  0.567600  1
  H  H464  1  0.861900  0.567600  0.989000  1
  H  H465  1  0.413500  0.034700  0.767900  1
  H  H466  1  0.913500  0.767900  0.034700  1
  H  H467  1  0.315200  0.001200  0.816200  1
  H  H468  1  0.815200  0.816200  0.001200  1
  H  H469  1  0.248000  0.961600  0.762800  1
  H  H470  1  0.748000  0.762800  0.961600  1
  H  H471  1  0.279100  0.955500  0.661100  1
  H  H472  1  0.779100  0.661100  0.955500  1
  H  H473  1  0.887800  0.186300  0.068500  1
  H  H474  1  0.387800  0.068500  0.186300  1
  H  H475  1  0.990200  0.161900  0.005300  1
  H  H476  1  0.490200  0.005300  0.161900  1
  H  H477  1  0.080600  0.105800  0.044200  1
  H  H478  1  0.580600  0.044200  0.105800  1
  H  H479  1  0.060800  0.072000  0.144000  1
  H  H480  1  0.560800  0.144000  0.072000  1
  H  H481  1  0.974900  0.065000  0.239600  1
  H  H482  1  0.474900  0.239600  0.065000  1
  H  H483  1  0.848000  0.002500  0.287700  1
  H  H484  1  0.348000  0.287700  0.002500  1
  H  H485  1  0.824800  0.971300  0.383700  1
  H  H486  1  0.324800  0.383700  0.971300  1
  H  H487  1  0.845100  0.130800  0.432800  1
  H  H488  1  0.345100  0.432800  0.130800  1
  H  H489  1  0.872900  0.158000  0.337800  1
  H  H490  1  0.372900  0.337800  0.158000  1
  H  H491  1  0.948100  0.967900  0.497300  1
  H  H492  1  0.448100  0.497300  0.967900  1
  H  H493  1  0.981800  0.879600  0.526000  1
  H  H494  1  0.481800  0.526000  0.879600  1
  H  H495  1  0.811100  0.831700  0.494100  1
  H  H496  1  0.311100  0.494100  0.831700  1
  H  H497  1  0.764100  0.924600  0.483600  1
  H  H498  1  0.264100  0.483600  0.924600  1
  H  H499  1  0.900200  0.789900  0.605100  1
  H  H500  1  0.400200  0.605100  0.789900  1
  H  H501  1  0.033500  0.599900  0.520700  1
  H  H502  1  0.533500  0.520700  0.599900  1
  H  H503  1  0.020800  0.550500  0.612900  1
  H  H504  1  0.520800  0.612900  0.550500  1
  H  H505  1  0.952900  0.597700  0.693500  1
  H  H506  1  0.452900  0.693500  0.597700  1
  H  H507  1  0.897800  0.694300  0.682100  1
  H  H508  1  0.397800  0.682100  0.694300  1
  H  H509  1  0.709700  0.048300  0.440300  1
  H  H510  1  0.209700  0.440300  0.048300  1
  H  H511  1  0.599400  0.059100  0.482700  1
  H  H512  1  0.099400  0.482700  0.059100  1
  H  H513  1  0.657000  0.065400  0.638800  1
  H  H514  1  0.157000  0.638800  0.065400  1
  H  H515  1  0.764600  0.051000  0.593600  1
  H  H516  1  0.264600  0.593600  0.051000  1
  H  H517  1  0.548500  0.172000  0.555200  1
  H  H518  1  0.048500  0.555200  0.172000  1
  H  H519  1  0.330500  0.119000  0.690600  1
  H  H520  1  0.830500  0.690600  0.119000  1
  H  H521  1  0.275400  0.215300  0.676500  1
  H  H522  1  0.775400  0.676500  0.215300  1
  H  H523  1  0.333000  0.283400  0.617800  1
  H  H524  1  0.833000  0.617800  0.283400  1
  H  H525  1  0.445700  0.255300  0.573300  1
  H  H526  1  0.945700  0.573300  0.255300  1
  H  H527  1  0.383400  0.792200  0.151600  1
  H  H528  1  0.883400  0.151600  0.792200  1
  H  H529  1  0.269500  0.836600  0.163200  1
  H  H530  1  0.769500  0.163200  0.836600  1
  H  H531  1  0.213300  0.869900  0.254500  1
  H  H532  1  0.713300  0.254500  0.869900  1
  H  H533  1  0.271100  0.858700  0.334300  1
  H  H534  1  0.771100  0.334300  0.858700  1
  H  H535  1  0.383800  0.818300  0.373300  1
  H  H536  1  0.883800  0.373300  0.818300  1
  H  H537  1  0.516100  0.694300  0.378300  1
  H  H538  1  0.016100  0.378300  0.694300  1
  H  H539  1  0.571300  0.687000  0.455000  1
  H  H540  1  0.071300  0.455000  0.687000  1
  H  H541  1  0.573300  0.862100  0.438700  1
  H  H542  1  0.073300  0.438700  0.862100  1
  H  H543  1  0.513700  0.871900  0.364700  1
  H  H544  1  0.013700  0.364700  0.871900  1
  H  H545  1  0.697500  0.764600  0.403800  1
  H  H546  1  0.197500  0.403800  0.764600  1
  H  H547  1  0.814700  0.733600  0.380800  1
  H  H548  1  0.314700  0.380800  0.733600  1
  H  H549  1  0.823800  0.699000  0.553400  1
  H  H550  1  0.323800  0.553400  0.699000  1
  H  H551  1  0.706600  0.729900  0.576300  1
  H  H552  1  0.206600  0.576300  0.729900  1
  H  H553  1  0.886800  0.620300  0.412300  1
  H  H554  1  0.386800  0.412300  0.620300  1
  H  H555  1  0.129300  0.673000  0.410600  1
  H  H556  1  0.629300  0.410600  0.673000  1
  H  H557  1  0.182600  0.590700  0.357700  1
  H  H558  1  0.682600  0.357700  0.590700  1
  H  H559  1  0.117600  0.528100  0.328500  1
  H  H560  1  0.617600  0.328500  0.528100  1
  H  H561  1  0.999300  0.547700  0.352100  1
  H  H562  1  0.499300  0.352100  0.547700  1
  H  H563  1  0.680400  0.860300  0.509300  1
  H  H564  1  0.180400  0.509300  0.860300  1
  H  H565  1  0.661500  0.930500  0.568900  1
  H  H566  1  0.161500  0.568900  0.930500  1
  H  H567  1  0.473600  0.889900  0.637500  1
  H  H568  1  0.973600  0.637500  0.889900  1
  H  H569  1  0.503900  0.810700  0.573900  1
  H  H570  1  0.003900  0.573900  0.810700  1
  H  H571  1  0.613100  0.936800  0.691200  1
  H  H572  1  0.113100  0.691200  0.936800  1
  H  H573  1  0.472200  0.144600  0.725400  1
  H  H574  1  0.972200  0.725400  0.144600  1
  H  H575  1  0.525600  0.156000  0.804200  1
  H  H576  1  0.025600  0.804200  0.156000  1
  H  H577  1  0.606500  0.079900  0.833700  1
  H  H578  1  0.106500  0.833700  0.079900  1
  H  H579  1  0.634100  0.992300  0.784500  1
  H  H580  1  0.134100  0.784500  0.992300  1
  H  H581  1  0.868000  0.834700  0.129900  1
  H  H582  1  0.368000  0.129900  0.834700  1
  H  H583  1  0.441800  0.125900  0.330500  1
  H  H584  1  0.941800  0.330500  0.125900  1
  H  H585  1  0.864000  0.041100  0.549900  1
  H  H586  1  0.364000  0.549900  0.041100  1
  H  H587  1  0.590500  0.723100  0.579500  1
  H  H588  1  0.090500  0.579500  0.723100  1
  N  N589  1  0.481900  0.688100  0.255500  1
  N  N590  1  0.981900  0.255500  0.688100  1
  N  N591  1  0.063100  0.756000  0.474800  1
  N  N592  1  0.563100  0.474800  0.756000  1
  N  N593  1  0.513800  0.756900  0.149500  1
  N  N594  1  0.013800  0.149500  0.756900  1
  N  N595  1  0.404800  0.015100  0.685900  1
  N  N596  1  0.904800  0.685900  0.015100  1
  N  N597  1  0.973200  0.676500  0.546700  1
  N  N598  1  0.473200  0.546700  0.676500  1
  N  N599  1  0.420900  0.130000  0.640400  1
  N  N600  1  0.920900  0.640400  0.130000  1
  N  N601  1  0.395000  0.799000  0.236200  1
  N  N602  1  0.895000  0.236200  0.799000  1
  N  N603  1  0.032600  0.659100  0.412700  1
  N  N604  1  0.532600  0.412700  0.659100  1
  N  N605  1  0.521500  0.061700  0.708100  1
  N  N606  1  0.021500  0.708100  0.061700  1
  N  N607  1  0.773200  0.200700  0.134300  1
  N  N608  1  0.273200  0.134300  0.200700  1
  N  N609  1  0.788800  0.089400  0.155600  1
  N  N610  1  0.288800  0.155600  0.089400  1
  N  N611  1  0.590700  0.733000  0.241200  1
  N  N612  1  0.090700  0.241200  0.733000  1
  N  N613  1  0.981800  0.778700  0.402300  1
  N  N614  1  0.481800  0.402300  0.778700  1
  N  N615  1  0.846600  0.221100  0.226500  1
  N  N616  1  0.346600  0.226500  0.221100  1
  N  N617  1  0.742900  0.169200  0.253600  1
  N  N618  1  0.242900  0.253600  0.169200  1
  N  N619  1  0.515000  0.849700  0.204100  1
  N  N620  1  0.015000  0.204100  0.849700  1
  N  N621  1  0.439700  0.026000  0.575200  1
  N  N622  1  0.939700  0.575200  0.026000  1
  N  N623  1  0.911800  0.139600  0.136800  1
  N  N624  1  0.411800  0.136800  0.139600  1
  N  N625  1  0.878700  0.102400  0.244400  1
  N  N626  1  0.378700  0.244400  0.102400  1
  N  N627  1  0.924400  0.783700  0.520100  1
  N  N628  1  0.424400  0.520100  0.783700  1
  N  N629  1  0.545600  0.097600  0.588000  1
  N  N630  1  0.045600  0.588000  0.097600  1
  N  N631  1  0.468800  0.786800  0.317600  1
  N  N632  1  0.968800  0.317600  0.786800  1
  N  N633  1  0.903300  0.690300  0.449500  1
  N  N634  1  0.403300  0.449500  0.690300  1
  N  N635  1  0.539600  0.981867  0.648533  1
  N  N636  1  0.039600  0.648533  0.981867  1
  O  O637  1  0.871200  0.813400  0.160600  1
  O  O638  1  0.371200  0.160600  0.813400  1
  O  O639  1  0.453600  0.098100  0.307700  1
  O  O640  1  0.953600  0.307700  0.098100  1
  O  O641  1  0.859900  0.058200  0.517200  1
  O  O642  1  0.359900  0.517200  0.058200  1
  O  O643  1  0.594600  0.719000  0.543200  1
  O  O644  1  0.094600  0.543200  0.719000  1
  P  P645  1  0.063500  0.922350  0.226350  1
  P  P646  1  0.563500  0.226350  0.922350  1
  P  P647  1  0.880900  0.072900  0.949500  1
  P  P648  1  0.380900  0.949500  0.072900  1
  P  P649  1  0.350500  0.835300  0.530700  1
  P  P650  1  0.850500  0.530700  0.835300  1
  P  P651  1  0.548200  0.255360  0.417160  1
  P  P652  1  0.048200  0.417160  0.255360  1
  P  P653  1  0.196500  0.135500  0.582100  1
  P  P654  1  0.696500  0.582100  0.135500  1
  P  P655  1  0.205800  0.103100  0.586500  1
  P  P656  1  0.705800  0.586500  0.103100  1
