# generated using pymatgen
data_H40Pd2C46N13O7
_symmetry_space_group_name_H-M   'P 1'
_cell_length_a   12.27990000
_cell_length_b   23.17610000
_cell_length_c   23.17610000
_cell_angle_alpha   90.00000000
_cell_angle_beta   90.00000000
_cell_angle_gamma   90.00000000
_symmetry_Int_Tables_number   1
_chemical_formula_structural   H40Pd2C46N13O7
_chemical_formula_sum   'H160 Pd8 C184 N52 O28'
_cell_volume   6595.92247250
_cell_formula_units_Z   4
loop_
 _symmetry_equiv_pos_site_id
 _symmetry_equiv_pos_as_xyz
  1  'x, y, z'
loop_
 _atom_site_type_symbol
 _atom_site_label
 _atom_site_symmetry_multiplicity
 _atom_site_fract_x
 _atom_site_fract_y
 _atom_site_fract_z
 _atom_site_occupancy
  H  H1  1  0.405900  0.314400  0.014100  1.0
  H  H2  1  0.405900  0.185600  0.485900  1.0
  H  H3  1  0.594100  0.814400  0.985900  1.0
  H  H4  1  0.594100  0.685600  0.514100  1.0
  H  H5  1  0.094100  0.985900  0.685600  1.0
  H  H6  1  0.094100  0.514100  0.814400  1.0
  H  H7  1  0.905900  0.014100  0.185600  1.0
  H  H8  1  0.905900  0.485900  0.314400  1.0
  H  H9  1  0.594100  0.685600  0.985900  1.0
  H  H10  1  0.594100  0.814400  0.514100  1.0
  H  H11  1  0.405900  0.185600  0.014100  1.0
  H  H12  1  0.405900  0.314400  0.485900  1.0
  H  H13  1  0.905900  0.014100  0.314400  1.0
  H  H14  1  0.905900  0.485900  0.185600  1.0
  H  H15  1  0.094100  0.985900  0.814400  1.0
  H  H16  1  0.094100  0.514100  0.685600  1.0
  H  H17  1  0.477500  0.393000  0.063200  1.0
  H  H18  1  0.477500  0.107000  0.436800  1.0
  H  H19  1  0.522500  0.893000  0.936800  1.0
  H  H20  1  0.522500  0.607000  0.563200  1.0
  H  H21  1  0.022500  0.936800  0.607000  1.0
  H  H22  1  0.022500  0.563200  0.893000  1.0
  H  H23  1  0.977500  0.063200  0.107000  1.0
  H  H24  1  0.977500  0.436800  0.393000  1.0
  H  H25  1  0.522500  0.607000  0.936800  1.0
  H  H26  1  0.522500  0.893000  0.563200  1.0
  H  H27  1  0.477500  0.107000  0.063200  1.0
  H  H28  1  0.477500  0.393000  0.436800  1.0
  H  H29  1  0.977500  0.063200  0.393000  1.0
  H  H30  1  0.977500  0.436800  0.107000  1.0
  H  H31  1  0.022500  0.936800  0.893000  1.0
  H  H32  1  0.022500  0.563200  0.607000  1.0
  H  H33  1  0.211200  0.398300  0.163800  1.0
  H  H34  1  0.211200  0.101700  0.336200  1.0
  H  H35  1  0.788800  0.898300  0.836200  1.0
  H  H36  1  0.788800  0.601700  0.663800  1.0
  H  H37  1  0.288800  0.836200  0.601700  1.0
  H  H38  1  0.288800  0.663800  0.898300  1.0
  H  H39  1  0.711200  0.163800  0.101700  1.0
  H  H40  1  0.711200  0.336200  0.398300  1.0
  H  H41  1  0.788800  0.601700  0.836200  1.0
  H  H42  1  0.788800  0.898300  0.663800  1.0
  H  H43  1  0.211200  0.101700  0.163800  1.0
  H  H44  1  0.211200  0.398300  0.336200  1.0
  H  H45  1  0.711200  0.163800  0.398300  1.0
  H  H46  1  0.711200  0.336200  0.101700  1.0
  H  H47  1  0.288800  0.836200  0.898300  1.0
  H  H48  1  0.288800  0.663800  0.601700  1.0
  H  H49  1  0.139600  0.319700  0.114700  1.0
  H  H50  1  0.139600  0.180300  0.385300  1.0
  H  H51  1  0.860400  0.819700  0.885300  1.0
  H  H52  1  0.860400  0.680300  0.614700  1.0
  H  H53  1  0.360400  0.885300  0.680300  1.0
  H  H54  1  0.360400  0.614700  0.819700  1.0
  H  H55  1  0.639600  0.114700  0.180300  1.0
  H  H56  1  0.639600  0.385300  0.319700  1.0
  H  H57  1  0.860400  0.680300  0.885300  1.0
  H  H58  1  0.860400  0.819700  0.614700  1.0
  H  H59  1  0.139600  0.180300  0.114700  1.0
  H  H60  1  0.139600  0.319700  0.385300  1.0
  H  H61  1  0.639600  0.114700  0.319700  1.0
  H  H62  1  0.639600  0.385300  0.180300  1.0
  H  H63  1  0.360400  0.885300  0.819700  1.0
  H  H64  1  0.360400  0.614700  0.680300  1.0
  H  H65  1  0.477700  0.451900  0.162700  1.0
  H  H66  1  0.477700  0.048100  0.337300  1.0
  H  H67  1  0.522300  0.951900  0.837300  1.0
  H  H68  1  0.522300  0.548100  0.662700  1.0
  H  H69  1  0.022300  0.837300  0.548100  1.0
  H  H70  1  0.022300  0.662700  0.951900  1.0
  H  H71  1  0.977700  0.162700  0.048100  1.0
  H  H72  1  0.977700  0.337300  0.451900  1.0
  H  H73  1  0.522300  0.548100  0.837300  1.0
  H  H74  1  0.522300  0.951900  0.662700  1.0
  H  H75  1  0.477700  0.048100  0.162700  1.0
  H  H76  1  0.477700  0.451900  0.337300  1.0
  H  H77  1  0.977700  0.162700  0.451900  1.0
  H  H78  1  0.977700  0.337300  0.048100  1.0
  H  H79  1  0.022300  0.837300  0.951900  1.0
  H  H80  1  0.022300  0.662700  0.548100  1.0
  H  H81  1  0.401100  0.492900  0.127900  1.0
  H  H82  1  0.401100  0.007100  0.372100  1.0
  H  H83  1  0.598900  0.992900  0.872100  1.0
  H  H84  1  0.598900  0.507100  0.627900  1.0
  H  H85  1  0.098900  0.872100  0.507100  1.0
  H  H86  1  0.098900  0.627900  0.992900  1.0
  H  H87  1  0.901100  0.127900  0.007100  1.0
  H  H88  1  0.901100  0.372100  0.492900  1.0
  H  H89  1  0.598900  0.507100  0.872100  1.0
  H  H90  1  0.598900  0.992900  0.627900  1.0
  H  H91  1  0.401100  0.007100  0.127900  1.0
  H  H92  1  0.401100  0.492900  0.372100  1.0
  H  H93  1  0.901100  0.127900  0.492900  1.0
  H  H94  1  0.901100  0.372100  0.007100  1.0
  H  H95  1  0.098900  0.872100  0.992900  1.0
  H  H96  1  0.098900  0.627900  0.507100  1.0
  H  H97  1  0.948400  0.207100  0.852200  1.0
  H  H98  1  0.948400  0.292900  0.647800  1.0
  H  H99  1  0.051600  0.707100  0.147800  1.0
  H  H100  1  0.051600  0.792900  0.352200  1.0
  H  H101  1  0.551600  0.147800  0.792900  1.0
  H  H102  1  0.551600  0.352200  0.707100  1.0
  H  H103  1  0.448400  0.852200  0.292900  1.0
  H  H104  1  0.448400  0.647800  0.207100  1.0
  H  H105  1  0.051600  0.792900  0.147800  1.0
  H  H106  1  0.051600  0.707100  0.352200  1.0
  H  H107  1  0.948400  0.292900  0.852200  1.0
  H  H108  1  0.948400  0.207100  0.647800  1.0
  H  H109  1  0.448400  0.852200  0.207100  1.0
  H  H110  1  0.448400  0.647800  0.292900  1.0
  H  H111  1  0.551600  0.147800  0.707100  1.0
  H  H112  1  0.551600  0.352200  0.792900  1.0
  H  H113  1  0.960900  0.107300  0.854800  1.0
  H  H114  1  0.960900  0.392700  0.645200  1.0
  H  H115  1  0.039100  0.607300  0.145200  1.0
  H  H116  1  0.039100  0.892700  0.354800  1.0
  H  H117  1  0.539100  0.145200  0.892700  1.0
  H  H118  1  0.539100  0.354800  0.607300  1.0
  H  H119  1  0.460900  0.854800  0.392700  1.0
  H  H120  1  0.460900  0.645200  0.107300  1.0
  H  H121  1  0.039100  0.892700  0.145200  1.0
  H  H122  1  0.039100  0.607300  0.354800  1.0
  H  H123  1  0.960900  0.392700  0.854800  1.0
  H  H124  1  0.960900  0.107300  0.645200  1.0
  H  H125  1  0.460900  0.854800  0.107300  1.0
  H  H126  1  0.460900  0.645200  0.392700  1.0
  H  H127  1  0.539100  0.145200  0.607300  1.0
  H  H128  1  0.539100  0.354800  0.892700  1.0
  H  H129  1  0.078400  0.062900  0.919300  1.0
  H  H130  1  0.078400  0.437100  0.580700  1.0
  H  H131  1  0.921600  0.562900  0.080700  1.0
  H  H132  1  0.921600  0.937100  0.419300  1.0
  H  H133  1  0.421600  0.080700  0.937100  1.0
  H  H134  1  0.421600  0.419300  0.562900  1.0
  H  H135  1  0.578400  0.919300  0.437100  1.0
  H  H136  1  0.578400  0.580700  0.062900  1.0
  H  H137  1  0.921600  0.937100  0.080700  1.0
  H  H138  1  0.921600  0.562900  0.419300  1.0
  H  H139  1  0.078400  0.437100  0.919300  1.0
  H  H140  1  0.078400  0.062900  0.580700  1.0
  H  H141  1  0.578400  0.919300  0.062900  1.0
  H  H142  1  0.578400  0.580700  0.437100  1.0
  H  H143  1  0.421600  0.080700  0.562900  1.0
  H  H144  1  0.421600  0.419300  0.937100  1.0
  H  H145  1  0.183600  0.118300  0.981300  1.0
  H  H146  1  0.183600  0.381700  0.518700  1.0
  H  H147  1  0.816400  0.618300  0.018700  1.0
  H  H148  1  0.816400  0.881700  0.481300  1.0
  H  H149  1  0.316400  0.018700  0.881700  1.0
  H  H150  1  0.316400  0.481300  0.618300  1.0
  H  H151  1  0.683600  0.981300  0.381700  1.0
  H  H152  1  0.683600  0.518700  0.118300  1.0
  H  H153  1  0.816400  0.881700  0.018700  1.0
  H  H154  1  0.816400  0.618300  0.481300  1.0
  H  H155  1  0.183600  0.381700  0.981300  1.0
  H  H156  1  0.183600  0.118300  0.518700  1.0
  H  H157  1  0.683600  0.981300  0.118300  1.0
  H  H158  1  0.683600  0.518700  0.381700  1.0
  H  H159  1  0.316400  0.018700  0.618300  1.0
  H  H160  1  0.316400  0.481300  0.881700  1.0
  Pd  Pd161  1  0.199900  0.250000  0.008800  1.0
  Pd  Pd162  1  0.199900  0.250000  0.491200  1.0
  Pd  Pd163  1  0.800100  0.750000  0.991200  1.0
  Pd  Pd164  1  0.800100  0.750000  0.508800  1.0
  Pd  Pd165  1  0.300100  0.991200  0.750000  1.0
  Pd  Pd166  1  0.300100  0.508800  0.750000  1.0
  Pd  Pd167  1  0.699900  0.008800  0.250000  1.0
  Pd  Pd168  1  0.699900  0.491200  0.250000  1.0
  C  C169  1  0.393000  0.459000  0.250000  1.0
  C  C170  1  0.393000  0.041000  0.250000  1.0
  C  C171  1  0.607000  0.959000  0.750000  1.0
  C  C172  1  0.607000  0.541000  0.750000  1.0
  C  C173  1  0.107000  0.750000  0.541000  1.0
  C  C174  1  0.107000  0.750000  0.959000  1.0
  C  C175  1  0.893000  0.250000  0.041000  1.0
  C  C176  1  0.893000  0.250000  0.459000  1.0
  C  C177  1  0.366900  0.331200  0.044100  1.0
  C  C178  1  0.366900  0.168800  0.455900  1.0
  C  C179  1  0.633100  0.831200  0.955900  1.0
  C  C180  1  0.633100  0.668800  0.544100  1.0
  C  C181  1  0.133100  0.955900  0.668800  1.0
  C  C182  1  0.133100  0.544100  0.831200  1.0
  C  C183  1  0.866900  0.044100  0.168800  1.0
  C  C184  1  0.866900  0.455900  0.331200  1.0
  C  C185  1  0.633100  0.668800  0.955900  1.0
  C  C186  1  0.633100  0.831200  0.544100  1.0
  C  C187  1  0.366900  0.168800  0.044100  1.0
  C  C188  1  0.366900  0.331200  0.455900  1.0
  C  C189  1  0.866900  0.044100  0.331200  1.0
  C  C190  1  0.866900  0.455900  0.168800  1.0
  C  C191  1  0.133100  0.955900  0.831200  1.0
  C  C192  1  0.133100  0.544100  0.668800  1.0
  C  C193  1  0.409800  0.378300  0.073500  1.0
  C  C194  1  0.409800  0.121700  0.426500  1.0
  C  C195  1  0.590200  0.878300  0.926500  1.0
  C  C196  1  0.590200  0.621700  0.573500  1.0
  C  C197  1  0.090200  0.926500  0.621700  1.0
  C  C198  1  0.090200  0.573500  0.878300  1.0
  C  C199  1  0.909800  0.073500  0.121700  1.0
  C  C200  1  0.909800  0.426500  0.378300  1.0
  C  C201  1  0.590200  0.621700  0.926500  1.0
  C  C202  1  0.590200  0.878300  0.573500  1.0
  C  C203  1  0.409800  0.121700  0.073500  1.0
  C  C204  1  0.409800  0.378300  0.426500  1.0
  C  C205  1  0.909800  0.073500  0.378300  1.0
  C  C206  1  0.909800  0.426500  0.121700  1.0
  C  C207  1  0.090200  0.926500  0.878300  1.0
  C  C208  1  0.090200  0.573500  0.621700  1.0
  C  C209  1  0.351500  0.403400  0.118400  1.0
  C  C210  1  0.351500  0.096600  0.381600  1.0
  C  C211  1  0.648500  0.903400  0.881600  1.0
  C  C212  1  0.648500  0.596600  0.618400  1.0
  C  C213  1  0.148500  0.881600  0.596600  1.0
  C  C214  1  0.148500  0.618400  0.903400  1.0
  C  C215  1  0.851500  0.118400  0.096600  1.0
  C  C216  1  0.851500  0.381600  0.403400  1.0
  C  C217  1  0.648500  0.596600  0.881600  1.0
  C  C218  1  0.648500  0.903400  0.618400  1.0
  C  C219  1  0.351500  0.096600  0.118400  1.0
  C  C220  1  0.351500  0.403400  0.381600  1.0
  C  C221  1  0.851500  0.118400  0.403400  1.0
  C  C222  1  0.851500  0.381600  0.096600  1.0
  C  C223  1  0.148500  0.881600  0.903400  1.0
  C  C224  1  0.148500  0.618400  0.596600  1.0
  C  C225  1  0.250200  0.381400  0.133800  1.0
  C  C226  1  0.250200  0.118600  0.366200  1.0
  C  C227  1  0.749800  0.881400  0.866200  1.0
  C  C228  1  0.749800  0.618600  0.633800  1.0
  C  C229  1  0.249800  0.866200  0.618600  1.0
  C  C230  1  0.249800  0.633800  0.881400  1.0
  C  C231  1  0.750200  0.133800  0.118600  1.0
  C  C232  1  0.750200  0.366200  0.381400  1.0
  C  C233  1  0.749800  0.618600  0.866200  1.0
  C  C234  1  0.749800  0.881400  0.633800  1.0
  C  C235  1  0.250200  0.118600  0.133800  1.0
  C  C236  1  0.250200  0.381400  0.366200  1.0
  C  C237  1  0.750200  0.133800  0.381400  1.0
  C  C238  1  0.750200  0.366200  0.118600  1.0
  C  C239  1  0.249800  0.866200  0.881400  1.0
  C  C240  1  0.249800  0.633800  0.618600  1.0
  C  C241  1  0.207300  0.334400  0.104400  1.0
  C  C242  1  0.207300  0.165600  0.395600  1.0
  C  C243  1  0.792700  0.834400  0.895600  1.0
  C  C244  1  0.792700  0.665600  0.604400  1.0
  C  C245  1  0.292700  0.895600  0.665600  1.0
  C  C246  1  0.292700  0.604400  0.834400  1.0
  C  C247  1  0.707300  0.104400  0.165600  1.0
  C  C248  1  0.707300  0.395600  0.334400  1.0
  C  C249  1  0.792700  0.665600  0.895600  1.0
  C  C250  1  0.792700  0.834400  0.604400  1.0
  C  C251  1  0.207300  0.165600  0.104400  1.0
  C  C252  1  0.207300  0.334400  0.395600  1.0
  C  C253  1  0.707300  0.104400  0.334400  1.0
  C  C254  1  0.707300  0.395600  0.165600  1.0
  C  C255  1  0.292700  0.895600  0.834400  1.0
  C  C256  1  0.292700  0.604400  0.665600  1.0
  C  C257  1  0.402000  0.460100  0.154000  1.0
  C  C258  1  0.402000  0.039900  0.346000  1.0
  C  C259  1  0.598000  0.960100  0.846000  1.0
  C  C260  1  0.598000  0.539900  0.654000  1.0
  C  C261  1  0.098000  0.846000  0.539900  1.0
  C  C262  1  0.098000  0.654000  0.960100  1.0
  C  C263  1  0.902000  0.154000  0.039900  1.0
  C  C264  1  0.902000  0.346000  0.460100  1.0
  C  C265  1  0.598000  0.539900  0.846000  1.0
  C  C266  1  0.598000  0.960100  0.654000  1.0
  C  C267  1  0.402000  0.039900  0.154000  1.0
  C  C268  1  0.402000  0.460100  0.346000  1.0
  C  C269  1  0.902000  0.154000  0.460100  1.0
  C  C270  1  0.902000  0.346000  0.039900  1.0
  C  C271  1  0.098000  0.846000  0.960100  1.0
  C  C272  1  0.098000  0.654000  0.539900  1.0
  C  C273  1  0.059000  0.222500  0.915200  1.0
  C  C274  1  0.059000  0.277500  0.584800  1.0
  C  C275  1  0.941000  0.722500  0.084800  1.0
  C  C276  1  0.941000  0.777500  0.415200  1.0
  C  C277  1  0.441000  0.084800  0.777500  1.0
  C  C278  1  0.441000  0.415200  0.722500  1.0
  C  C279  1  0.559000  0.915200  0.277500  1.0
  C  C280  1  0.559000  0.584800  0.222500  1.0
  C  C281  1  0.941000  0.777500  0.084800  1.0
  C  C282  1  0.941000  0.722500  0.415200  1.0
  C  C283  1  0.059000  0.277500  0.915200  1.0
  C  C284  1  0.059000  0.222500  0.584800  1.0
  C  C285  1  0.559000  0.915200  0.222500  1.0
  C  C286  1  0.559000  0.584800  0.277500  1.0
  C  C287  1  0.441000  0.084800  0.722500  1.0
  C  C288  1  0.441000  0.415200  0.777500  1.0
  C  C289  1  0.996000  0.189000  0.878100  1.0
  C  C290  1  0.996000  0.311000  0.621900  1.0
  C  C291  1  0.004000  0.689000  0.121900  1.0
  C  C292  1  0.004000  0.811000  0.378100  1.0
  C  C293  1  0.504000  0.121900  0.811000  1.0
  C  C294  1  0.504000  0.378100  0.689000  1.0
  C  C295  1  0.496000  0.878100  0.311000  1.0
  C  C296  1  0.496000  0.621900  0.189000  1.0
  C  C297  1  0.004000  0.811000  0.121900  1.0
  C  C298  1  0.004000  0.689000  0.378100  1.0
  C  C299  1  0.996000  0.311000  0.878100  1.0
  C  C300  1  0.996000  0.189000  0.621900  1.0
  C  C301  1  0.496000  0.878100  0.189000  1.0
  C  C302  1  0.496000  0.621900  0.311000  1.0
  C  C303  1  0.504000  0.121900  0.689000  1.0
  C  C304  1  0.504000  0.378100  0.811000  1.0
  C  C305  1  0.003000  0.129500  0.879600  1.0
  C  C306  1  0.003000  0.370500  0.620400  1.0
  C  C307  1  0.997000  0.629500  0.120400  1.0
  C  C308  1  0.997000  0.870500  0.379600  1.0
  C  C309  1  0.497000  0.120400  0.870500  1.0
  C  C310  1  0.497000  0.379600  0.629500  1.0
  C  C311  1  0.503000  0.879600  0.370500  1.0
  C  C312  1  0.503000  0.620400  0.129500  1.0
  C  C313  1  0.997000  0.870500  0.120400  1.0
  C  C314  1  0.997000  0.629500  0.379600  1.0
  C  C315  1  0.003000  0.370500  0.879600  1.0
  C  C316  1  0.003000  0.129500  0.620400  1.0
  C  C317  1  0.503000  0.879600  0.129500  1.0
  C  C318  1  0.503000  0.620400  0.370500  1.0
  C  C319  1  0.497000  0.120400  0.629500  1.0
  C  C320  1  0.497000  0.379600  0.870500  1.0
  C  C321  1  0.073000  0.102900  0.918300  1.0
  C  C322  1  0.073000  0.397100  0.581700  1.0
  C  C323  1  0.927000  0.602900  0.081700  1.0
  C  C324  1  0.927000  0.897100  0.418300  1.0
  C  C325  1  0.427000  0.081700  0.897100  1.0
  C  C326  1  0.427000  0.418300  0.602900  1.0
  C  C327  1  0.573000  0.918300  0.397100  1.0
  C  C328  1  0.573000  0.581700  0.102900  1.0
  C  C329  1  0.927000  0.897100  0.081700  1.0
  C  C330  1  0.927000  0.602900  0.418300  1.0
  C  C331  1  0.073000  0.397100  0.918300  1.0
  C  C332  1  0.073000  0.102900  0.581700  1.0
  C  C333  1  0.573000  0.918300  0.102900  1.0
  C  C334  1  0.573000  0.581700  0.397100  1.0
  C  C335  1  0.427000  0.081700  0.602900  1.0
  C  C336  1  0.427000  0.418300  0.897100  1.0
  C  C337  1  0.136500  0.136100  0.955400  1.0
  C  C338  1  0.136500  0.363900  0.544600  1.0
  C  C339  1  0.863500  0.636100  0.044600  1.0
  C  C340  1  0.863500  0.863900  0.455400  1.0
  C  C341  1  0.363500  0.044600  0.863900  1.0
  C  C342  1  0.363500  0.455400  0.636100  1.0
  C  C343  1  0.636500  0.955400  0.363900  1.0
  C  C344  1  0.636500  0.544600  0.136100  1.0
  C  C345  1  0.863500  0.863900  0.044600  1.0
  C  C346  1  0.863500  0.636100  0.455400  1.0
  C  C347  1  0.136500  0.363900  0.955400  1.0
  C  C348  1  0.136500  0.136100  0.544600  1.0
  C  C349  1  0.636500  0.955400  0.136100  1.0
  C  C350  1  0.636500  0.544600  0.363900  1.0
  C  C351  1  0.363500  0.044600  0.636100  1.0
  C  C352  1  0.363500  0.455400  0.863900  1.0
  N  N353  1  0.499000  0.250000  0.250000  1
  N  N354  1  0.501000  0.750000  0.750000  1
  N  N355  1  0.001000  0.750000  0.750000  1
  N  N356  1  0.999000  0.250000  0.250000  1
  N  N357  1  0.265600  0.309300  0.059500  1.0
  N  N358  1  0.265600  0.190700  0.440500  1.0
  N  N359  1  0.734400  0.809300  0.940500  1.0
  N  N360  1  0.734400  0.690700  0.559500  1.0
  N  N361  1  0.234400  0.940500  0.690700  1.0
  N  N362  1  0.234400  0.559500  0.809300  1.0
  N  N363  1  0.765600  0.059500  0.190700  1.0
  N  N364  1  0.765600  0.440500  0.309300  1.0
  N  N365  1  0.734400  0.690700  0.940500  1.0
  N  N366  1  0.734400  0.809300  0.559500  1.0
  N  N367  1  0.265600  0.190700  0.059500  1.0
  N  N368  1  0.265600  0.309300  0.440500  1.0
  N  N369  1  0.765600  0.059500  0.309300  1.0
  N  N370  1  0.765600  0.440500  0.190700  1.0
  N  N371  1  0.234400  0.940500  0.809300  1.0
  N  N372  1  0.234400  0.559500  0.690700  1.0
  N  N373  1  0.129100  0.195900  0.953900  1.0
  N  N374  1  0.129100  0.304100  0.546100  1.0
  N  N375  1  0.870900  0.695900  0.046100  1.0
  N  N376  1  0.870900  0.804100  0.453900  1.0
  N  N377  1  0.370900  0.046100  0.804100  1.0
  N  N378  1  0.370900  0.453900  0.695900  1.0
  N  N379  1  0.629100  0.953900  0.304100  1.0
  N  N380  1  0.629100  0.546100  0.195900  1.0
  N  N381  1  0.870900  0.804100  0.046100  1.0
  N  N382  1  0.870900  0.695900  0.453900  1.0
  N  N383  1  0.129100  0.304100  0.953900  1.0
  N  N384  1  0.129100  0.195900  0.546100  1.0
  N  N385  1  0.629100  0.953900  0.195900  1.0
  N  N386  1  0.629100  0.546100  0.304100  1.0
  N  N387  1  0.370900  0.046100  0.695900  1.0
  N  N388  1  0.370900  0.453900  0.804100  1.0
  N  N389  1  0.354000  0.476500  0.203200  1.0
  N  N390  1  0.354000  0.023500  0.296800  1.0
  N  N391  1  0.646000  0.976500  0.796800  1.0
  N  N392  1  0.646000  0.523500  0.703200  1.0
  N  N393  1  0.146000  0.796800  0.523500  1.0
  N  N394  1  0.146000  0.703200  0.976500  1.0
  N  N395  1  0.854000  0.203200  0.023500  1.0
  N  N396  1  0.854000  0.296800  0.476500  1.0
  N  N397  1  0.646000  0.523500  0.796800  1.0
  N  N398  1  0.646000  0.976500  0.703200  1.0
  N  N399  1  0.354000  0.023500  0.203200  1.0
  N  N400  1  0.354000  0.476500  0.296800  1.0
  N  N401  1  0.854000  0.203200  0.476500  1.0
  N  N402  1  0.854000  0.296800  0.023500  1.0
  N  N403  1  0.146000  0.796800  0.976500  1.0
  N  N404  1  0.146000  0.703200  0.523500  1.0
  O  O405  1  0.358000  0.250000  0.250000  1
  O  O406  1  0.642000  0.750000  0.750000  1
  O  O407  1  0.142000  0.750000  0.750000  1
  O  O408  1  0.858000  0.250000  0.250000  1
  O  O409  1  0.592000  0.250000  0.306000  1
  O  O410  1  0.592000  0.250000  0.194000  1
  O  O411  1  0.408000  0.750000  0.694000  1
  O  O412  1  0.408000  0.750000  0.806000  1
  O  O413  1  0.908000  0.694000  0.750000  1
  O  O414  1  0.908000  0.806000  0.750000  1
  O  O415  1  0.092000  0.306000  0.250000  1
  O  O416  1  0.092000  0.194000  0.250000  1
  O  O417  1  0.482000  0.423600  0.250000  1.0
  O  O418  1  0.482000  0.076400  0.250000  1.0
  O  O419  1  0.518000  0.923600  0.750000  1.0
  O  O420  1  0.518000  0.576400  0.750000  1.0
  O  O421  1  0.018000  0.750000  0.576400  1.0
  O  O422  1  0.018000  0.750000  0.923600  1.0
  O  O423  1  0.982000  0.250000  0.076400  1.0
  O  O424  1  0.982000  0.250000  0.423600  1.0
  O  O425  1  0.554000  0.319000  0.250000  1.0
  O  O426  1  0.554000  0.181000  0.250000  1.0
  O  O427  1  0.446000  0.819000  0.750000  1.0
  O  O428  1  0.446000  0.681000  0.750000  1.0
  O  O429  1  0.946000  0.750000  0.681000  1.0
  O  O430  1  0.946000  0.750000  0.819000  1.0
  O  O431  1  0.054000  0.250000  0.181000  1.0
  O  O432  1  0.054000  0.250000  0.319000  1.0
