# generated using pymatgen
data_H30PdC19(NO)7
_symmetry_space_group_name_H-M   'P 1'
_cell_length_a   13.35760000
_cell_length_b   13.90540000
_cell_length_c   17.65920000
_cell_angle_alpha   101.45400000
_cell_angle_beta   95.12200000
_cell_angle_gamma   104.67000000
_symmetry_Int_Tables_number   1
_chemical_formula_structural   H30PdC19(NO)7
_chemical_formula_sum   'H120 Pd4 C76 N28 O28'
_cell_volume   3076.06671102
_cell_formula_units_Z   4
loop_
 _symmetry_equiv_pos_site_id
 _symmetry_equiv_pos_as_xyz
  1  'x, y, z'
loop_
 _atom_site_type_symbol
 _atom_site_label
 _atom_site_symmetry_multiplicity
 _atom_site_fract_x
 _atom_site_fract_y
 _atom_site_fract_z
 _atom_site_occupancy
  H  H1  1  0.953000  0.737600  0.351200  1
  H  H2  1  0.047000  0.262400  0.648800  1
  H  H3  1  0.072800  0.745700  0.363200  1
  H  H4  1  0.927200  0.254300  0.636800  1
  H  H5  1  0.001800  0.703900  0.422100  1
  H  H6  1  0.998200  0.296100  0.577900  1
  H  H7  1  0.070400  0.531100  0.382100  1
  H  H8  1  0.929600  0.468900  0.617900  1
  H  H9  1  0.998700  0.582000  0.432700  1
  H  H10  1  0.001300  0.418000  0.567300  1
  H  H11  1  0.922400  0.426200  0.419200  1
  H  H12  1  0.077600  0.573800  0.580800  1
  H  H13  1  0.951800  0.395200  0.335900  1
  H  H14  1  0.048200  0.604800  0.664100  1
  H  H15  1  0.700600  0.302900  0.298400  1
  H  H16  1  0.299400  0.697100  0.701600  1
  H  H17  1  0.812500  0.286300  0.298800  1
  H  H18  1  0.187500  0.713700  0.701200  1
  H  H19  1  0.765500  0.327900  0.231600  1
  H  H20  1  0.234500  0.672100  0.768400  1
  H  H21  1  0.706400  0.377300  0.396000  1
  H  H22  1  0.293600  0.622700  0.604000  1
  H  H23  1  0.688500  0.473600  0.369700  1
  H  H24  1  0.311500  0.526400  0.630300  1
  H  H25  1  0.775900  0.486700  0.439400  1
  H  H26  1  0.224100  0.513300  0.560600  1
  H  H27  1  0.715500  0.395600  0.117900  1
  H  H28  1  0.284500  0.604400  0.882100  1
  H  H29  1  0.549200  0.314000  0.055600  1
  H  H30  1  0.450800  0.686000  0.944400  1
  H  H31  1  0.441600  0.476500  0.224700  1
  H  H32  1  0.558400  0.523500  0.775300  1
  H  H33  1  0.611700  0.551000  0.285900  1
  H  H34  1  0.388300  0.449000  0.714100  1
  H  H35  1  0.367400  0.311800  0.038000  1
  H  H36  1  0.632600  0.688200  0.962000  1
  H  H37  1  0.344300  0.264500  0.110200  1
  H  H38  1  0.655700  0.735500  0.889800  1
  H  H39  1  0.124500  0.578300  0.052300  1
  H  H40  1  0.875500  0.421700  0.947700  1
  H  H41  1  0.234100  0.594900  0.024200  1
  H  H42  1  0.765900  0.405100  0.975800  1
  H  H43  1  0.150700  0.761300  0.060000  1
  H  H44  1  0.849300  0.238700  0.940000  1
  H  H45  1  0.211600  0.926800  0.135500  1
  H  H46  1  0.788400  0.073200  0.864500  1
  H  H47  1  0.386500  0.838000  0.279300  1
  H  H48  1  0.613500  0.162000  0.720700  1
  H  H49  1  0.328300  0.672300  0.206000  1
  H  H50  1  0.671700  0.327700  0.794000  1
  H  H51  1  0.207000  0.943600  0.436500  1
  H  H52  1  0.793000  0.056400  0.563500  1
  H  H53  1  0.306400  0.930200  0.399500  1
  H  H54  1  0.693600  0.069800  0.600500  1
  H  H55  1  0.194500  0.872300  0.353400  1
  H  H56  1  0.805500  0.127700  0.646600  1
  H  H57  1  0.109300  0.925700  0.280700  1
  H  H58  1  0.890700  0.074300  0.719300  1
  H  H59  1  0.134100  0.037800  0.269300  1
  H  H60  1  0.865900  0.962200  0.730700  1
  H  H61  1  0.082400  0.010700  0.341400  1
  H  H62  1  0.917600  0.989300  0.658600  1
  H  H63  1  0.203200  0.120500  0.442600  1
  H  H64  1  0.796800  0.879500  0.557400  1
  H  H65  1  0.314700  0.105100  0.460300  1
  H  H66  1  0.685300  0.894900  0.539700  1
  H  H67  1  0.338400  0.263500  0.437200  1
  H  H68  1  0.661600  0.736500  0.562800  1
  H  H69  1  0.258900  0.220700  0.359400  1
  H  H70  1  0.741100  0.779300  0.640600  1
  H  H71  1  0.376600  0.238400  0.249600  1
  H  H72  1  0.623400  0.761600  0.750400  1
  H  H73  1  0.490900  0.285900  0.294300  1
  H  H74  1  0.509100  0.714100  0.705700  1
  H  H75  1  0.399300  0.326700  0.324900  1
  H  H76  1  0.600700  0.673300  0.675100  1
  H  H77  1  0.556400  0.215600  0.367000  1
  H  H78  1  0.443600  0.784400  0.633000  1
  H  H79  1  0.498000  0.147600  0.419200  1
  H  H80  1  0.502000  0.852400  0.580800  1
  H  H81  1  0.513200  0.265800  0.439900  1
  H  H82  1  0.486800  0.734200  0.560100  1
  H  H83  1  0.373100  0.088000  0.127400  1
  H  H84  1  0.626900  0.912000  0.872600  1
  H  H85  1  0.498500  0.110700  0.043000  1
  H  H86  1  0.501500  0.889300  0.957000  1
  H  H87  1  0.703500  0.070300  0.203300  1
  H  H88  1  0.296500  0.929700  0.796700  1
  H  H89  1  0.578500  0.047200  0.283200  1
  H  H90  1  0.421500  0.952800  0.716800  1
  H  H91  1  0.664000  0.081600  0.009200  1
  H  H92  1  0.336000  0.918400  0.990800  1
  H  H93  1  0.720400  0.186400  0.067000  1
  H  H94  1  0.279600  0.813600  0.933000  1
  H  H95  1  0.944000  0.856000  0.022600  1
  H  H96  1  0.056000  0.144000  0.977400  1
  H  H97  1  0.823000  0.818700  0.996300  1
  H  H98  1  0.177000  0.181300  0.003700  1
  H  H99  1  0.911300  0.669500  0.028600  1
  H  H100  1  0.088700  0.330500  0.971400  1
  H  H101  1  0.893800  0.559400  0.109300  1
  H  H102  1  0.106200  0.440600  0.890700  1
  H  H103  1  0.799400  0.746800  0.263400  1
  H  H104  1  0.200600  0.253200  0.736600  1
  H  H105  1  0.818000  0.863200  0.182500  1
  H  H106  1  0.182000  0.136800  0.817500  1
  H  H107  1  0.246400  0.365100  0.138700  1
  H  H108  1  0.753600  0.634900  0.861300  1
  H  H109  1  0.183700  0.495000  0.141200  1
  H  H110  1  0.816300  0.505000  0.858800  1
  H  H111  1  0.845300  0.119400  0.101700  1
  H  H112  1  0.154700  0.880600  0.898300  1
  H  H113  1  0.922400  0.996800  0.101500  1
  H  H114  1  0.077600  0.003200  0.898500  1
  H  H115  1  0.024200  0.581500  0.212800  1
  H  H116  1  0.975800  0.418500  0.787200  1
  H  H117  1  0.095000  0.548300  0.272600  1
  H  H118  1  0.905000  0.451700  0.727400  1
  H  H119  1  0.108600  0.664500  0.276100  1
  H  H120  1  0.891400  0.335500  0.723900  1
  Pd  Pd121  1  0.830610  0.540470  0.263900  1
  Pd  Pd122  1  0.169390  0.459530  0.736100  1
  Pd  Pd123  1  0.351420  0.042800  0.282370  1
  Pd  Pd124  1  0.648580  0.957200  0.717630  1
  C  C125  1  0.004500  0.706400  0.368400  1
  C  C126  1  0.995500  0.293600  0.631600  1
  C  C127  1  0.001100  0.541100  0.381900  1
  C  C128  1  0.998900  0.458900  0.618100  1
  C  C129  1  0.926300  0.445200  0.369300  1
  C  C130  1  0.073700  0.554800  0.630700  1
  C  C131  1  0.769600  0.328600  0.286300  1
  C  C132  1  0.230400  0.671400  0.713700  1
  C  C133  1  0.740100  0.444300  0.389700  1
  C  C134  1  0.259900  0.555700  0.610300  1
  C  C135  1  0.659600  0.410600  0.140900  1
  C  C136  1  0.340400  0.589400  0.859100  1
  C  C137  1  0.560000  0.361900  0.102700  1
  C  C138  1  0.440000  0.638100  0.897300  1
  C  C139  1  0.476700  0.384900  0.134700  1
  C  C140  1  0.523300  0.615100  0.865300  1
  C  C141  1  0.496300  0.457300  0.202700  1
  C  C142  1  0.503700  0.542700  0.797300  1
  C  C143  1  0.599600  0.502400  0.239200  1
  C  C144  1  0.400400  0.497600  0.760800  1
  C  C145  1  0.366500  0.328300  0.093900  1
  C  C146  1  0.633500  0.671700  0.906100  1
  C  C147  1  0.291300  0.466600  0.080700  1
  C  C148  1  0.708700  0.533400  0.919300  1
  C  C149  1  0.199000  0.594200  0.069900  1
  C  C150  1  0.801000  0.405800  0.930100  1
  C  C151  1  0.235100  0.700800  0.123600  1
  C  C152  1  0.764900  0.299200  0.876400  1
  C  C153  1  0.199500  0.775500  0.104500  1
  C  C154  1  0.800500  0.224500  0.895500  1
  C  C155  1  0.234600  0.874800  0.150800  1
  C  C156  1  0.765400  0.125200  0.849200  1
  C  C157  1  0.337000  0.822700  0.235000  1
  C  C158  1  0.663000  0.177300  0.765000  1
  C  C159  1  0.303700  0.723300  0.190400  1
  C  C160  1  0.696300  0.276700  0.809600  1
  C  C161  1  0.236100  0.934300  0.388700  1
  C  C162  1  0.763900  0.065700  0.611300  1
  C  C163  1  0.131300  0.996600  0.307100  1
  C  C164  1  0.868700  0.003400  0.692900  1
  C  C165  1  0.265300  0.113400  0.420100  1
  C  C166  1  0.734700  0.886600  0.579900  1
  C  C167  1  0.312100  0.205900  0.392800  1
  C  C168  1  0.687900  0.794100  0.607200  1
  C  C169  1  0.418200  0.267100  0.300100  1
  C  C170  1  0.581800  0.732900  0.699900  1
  C  C171  1  0.500800  0.206500  0.398000  1
  C  C172  1  0.499200  0.793500  0.602000  1
  C  C173  1  0.440500  0.085100  0.142700  1
  C  C174  1  0.559500  0.914900  0.857300  1
  C  C175  1  0.515700  0.098500  0.091700  1
  C  C176  1  0.484300  0.901500  0.908300  1
  C  C177  1  0.615700  0.093300  0.115000  1
  C  C178  1  0.384300  0.906700  0.885000  1
  C  C179  1  0.636900  0.074300  0.186800  1
  C  C180  1  0.363100  0.925700  0.813200  1
  C  C181  1  0.562100  0.061100  0.235000  1
  C  C182  1  0.437900  0.938900  0.765000  1
  C  C183  1  0.696600  0.113300  0.062700  1
  C  C184  1  0.303400  0.886700  0.937300  1
  C  C185  1  0.779200  0.975400  0.056300  1
  C  C186  1  0.220800  0.024600  0.943700  1
  C  C187  1  0.877000  0.850200  0.041100  1
  C  C188  1  0.123000  0.149800  0.958900  1
  C  C189  1  0.866700  0.779000  0.097700  1
  C  C190  1  0.133300  0.221000  0.902300  1
  C  C191  1  0.888900  0.687000  0.076500  1
  C  C192  1  0.111100  0.313000  0.923500  1
  C  C193  1  0.878400  0.621200  0.125100  1
  C  C194  1  0.121600  0.378800  0.874900  1
  C  C195  1  0.823200  0.731100  0.215800  1
  C  C196  1  0.176800  0.268900  0.784200  1
  C  C197  1  0.833900  0.801500  0.166700  1
  C  C198  1  0.166100  0.198500  0.833300  1
  C  C199  1  0.059100  0.598300  0.265600  1
  C  C200  1  0.940900  0.401700  0.734400  1
  N  N201  1  0.982400  0.599200  0.319100  1
  N  N202  1  0.017600  0.400800  0.680900  1
  N  N203  1  0.817300  0.437200  0.333600  1
  N  N204  1  0.182700  0.562800  0.666400  1
  N  N205  1  0.680700  0.479600  0.210600  1
  N  N206  1  0.319300  0.520400  0.789400  1
  N  N207  1  0.292300  0.384400  0.109600  1
  N  N208  1  0.707700  0.615600  0.890400  1
  N  N209  1  0.218300  0.513200  0.105200  1
  N  N210  1  0.781700  0.486800  0.894800  1
  N  N211  1  0.301400  0.895600  0.217000  1
  N  N212  1  0.698600  0.104400  0.783000  1
  N  N213  1  0.236700  0.020500  0.353200  1
  N  N214  1  0.763300  0.979500  0.646800  1
  N  N215  1  0.399600  0.191500  0.348300  1
  N  N216  1  0.600400  0.808500  0.651700  1
  N  N217  1  0.465800  0.067900  0.214000  1
  N  N218  1  0.534200  0.932100  0.786000  1
  N  N219  1  0.786900  0.076900  0.078400  1
  N  N220  1  0.213100  0.923100  0.921600  1
  N  N221  1  0.869500  0.951600  0.072500  1
  N  N222  1  0.130500  0.048400  0.927500  1
  N  N223  1  0.846800  0.642600  0.194600  1
  N  N224  1  0.153200  0.357400  0.805400  1
  N  N225  1  0.943300  0.350200  0.097200  1
  N  N226  1  0.056700  0.649800  0.902800  1
  N  N227  1  0.123400  0.101700  0.147200  1
  N  N228  1  0.876600  0.898300  0.852800  1
  O  O229  1  0.353000  0.498500  0.040600  1
  O  O230  1  0.647000  0.501500  0.959400  1
  O  O231  1  0.695300  0.912100  0.028000  1
  O  O232  1  0.304700  0.087900  0.972000  1
  O  O233  1  0.990700  0.427000  0.076600  1
  O  O234  1  0.009300  0.573000  0.923400  1
  O  O235  1  0.954900  0.264000  0.065400  1
  O  O236  1  0.045100  0.736000  0.934600  1
  O  O237  1  0.871600  0.348400  0.131100  1
  O  O238  1  0.128400  0.651600  0.868900  1
  O  O239  1  0.219600  0.145200  0.176300  1
  O  O240  1  0.780400  0.854800  0.823700  1
  O  O241  1  0.104600  0.019900  0.099900  1
  O  O242  1  0.895400  0.980100  0.900100  1
  O  O243  1  0.049200  0.136700  0.166600  1
  O  O244  1  0.950800  0.863300  0.833400  1
  O  O245  1  0.515100  0.959700  0.412100  1
  O  O246  1  0.484900  0.040300  0.587900  1
  O  O247  1  0.532900  0.813200  0.102300  1
  O  O248  1  0.467100  0.186800  0.897700  1
  O  O249  1  0.563200  0.614600  0.083500  1
  O  O250  1  0.436800  0.385400  0.916500  1
  O  O251  1  0.747200  0.707600  0.398900  1
  O  O252  1  0.252800  0.292400  0.601100  1
  O  O253  1  0.705000  0.271000  0.583000  1
  O  O254  1  0.295000  0.729000  0.417000  1
  O  O255  1  0.138900  0.365300  0.216800  1
  O  O256  1  0.861100  0.634700  0.783200  1
