# generated using pymatgen
data_H40PdC30(N3O)4
_symmetry_space_group_name_H-M   'P 1'
_cell_length_a   19.54060000
_cell_length_b   19.54060000
_cell_length_c   20.11860000
_cell_angle_alpha   90.00000000
_cell_angle_beta   90.00000000
_cell_angle_gamma   120.00000000
_symmetry_Int_Tables_number   1
_chemical_formula_structural   H40PdC30(N3O)4
_chemical_formula_sum   'H240 Pd6 C180 N72 O24'
_cell_volume   6652.79555054
_cell_formula_units_Z   6
loop_
 _symmetry_equiv_pos_site_id
 _symmetry_equiv_pos_as_xyz
  1  'x, y, z'
loop_
 _atom_site_type_symbol
 _atom_site_label
 _atom_site_symmetry_multiplicity
 _atom_site_fract_x
 _atom_site_fract_y
 _atom_site_fract_z
 _atom_site_occupancy
  H  H1  1  0.680437  0.786671  0.469695  1
  H  H2  1  0.786671  0.106234  0.969695  1
  H  H3  1  0.106234  0.319563  0.469695  1
  H  H4  1  0.319563  0.213329  0.969695  1
  H  H5  1  0.213329  0.893766  0.469695  1
  H  H6  1  0.893766  0.680437  0.969695  1
  H  H7  1  0.319563  0.213329  0.530305  1
  H  H8  1  0.213329  0.893766  0.030305  1
  H  H9  1  0.893766  0.680437  0.530305  1
  H  H10  1  0.680437  0.786671  0.030305  1
  H  H11  1  0.786671  0.106234  0.530305  1
  H  H12  1  0.106234  0.319563  0.030305  1
  H  H13  1  0.611244  0.653832  0.469529  1
  H  H14  1  0.653832  0.042588  0.969529  1
  H  H15  1  0.042588  0.388756  0.469529  1
  H  H16  1  0.388756  0.346168  0.969529  1
  H  H17  1  0.346168  0.957412  0.469529  1
  H  H18  1  0.957412  0.611244  0.969529  1
  H  H19  1  0.388756  0.346168  0.530471  1
  H  H20  1  0.346168  0.957412  0.030471  1
  H  H21  1  0.957412  0.611244  0.530471  1
  H  H22  1  0.611244  0.653832  0.030471  1
  H  H23  1  0.653832  0.042588  0.530471  1
  H  H24  1  0.042588  0.388756  0.030471  1
  H  H25  1  0.748980  0.888251  0.489982  1
  H  H26  1  0.888251  0.139271  0.989982  1
  H  H27  1  0.139271  0.251020  0.489982  1
  H  H28  1  0.251020  0.111749  0.989982  1
  H  H29  1  0.111749  0.860729  0.489982  1
  H  H30  1  0.860729  0.748980  0.989982  1
  H  H31  1  0.251020  0.111749  0.510018  1
  H  H32  1  0.111749  0.860729  0.010018  1
  H  H33  1  0.860729  0.748980  0.510018  1
  H  H34  1  0.748980  0.888251  0.010018  1
  H  H35  1  0.888251  0.139271  0.510018  1
  H  H36  1  0.139271  0.251020  0.010018  1
  H  H37  1  0.790752  0.860755  0.540071  1
  H  H38  1  0.860755  0.070003  0.040071  1
  H  H39  1  0.070003  0.209248  0.540071  1
  H  H40  1  0.209248  0.139245  0.040071  1
  H  H41  1  0.139245  0.929997  0.540071  1
  H  H42  1  0.929997  0.790752  0.040071  1
  H  H43  1  0.209248  0.139245  0.459929  1
  H  H44  1  0.139245  0.929997  0.959929  1
  H  H45  1  0.929997  0.790752  0.459929  1
  H  H46  1  0.790752  0.860755  0.959929  1
  H  H47  1  0.860755  0.070003  0.459929  1
  H  H48  1  0.070003  0.209248  0.959929  1
  H  H49  1  0.641197  0.540924  0.497941  1
  H  H50  1  0.540924  0.899727  0.997941  1
  H  H51  1  0.899727  0.358803  0.497941  1
  H  H52  1  0.358803  0.459076  0.997941  1
  H  H53  1  0.459076  0.100273  0.497941  1
  H  H54  1  0.100273  0.641197  0.997941  1
  H  H55  1  0.358803  0.459076  0.502059  1
  H  H56  1  0.459076  0.100273  0.002059  1
  H  H57  1  0.100273  0.641197  0.502059  1
  H  H58  1  0.641197  0.540924  0.002059  1
  H  H59  1  0.540924  0.899727  0.502059  1
  H  H60  1  0.899727  0.358803  0.002059  1
  H  H61  1  0.691586  0.592796  0.558739  1
  H  H62  1  0.592796  0.901210  0.058739  1
  H  H63  1  0.901210  0.308414  0.558739  1
  H  H64  1  0.308414  0.407204  0.058739  1
  H  H65  1  0.407204  0.098790  0.558739  1
  H  H66  1  0.098790  0.691586  0.058739  1
  H  H67  1  0.308414  0.407204  0.441261  1
  H  H68  1  0.407204  0.098790  0.941261  1
  H  H69  1  0.098790  0.691586  0.441261  1
  H  H70  1  0.691586  0.592796  0.941261  1
  H  H71  1  0.592796  0.901210  0.441261  1
  H  H72  1  0.901210  0.308414  0.941261  1
  H  H73  1  0.806595  0.990516  0.608357  1.0
  H  H74  1  0.990516  0.183921  0.108357  1.0
  H  H75  1  0.183921  0.193405  0.608357  1.0
  H  H76  1  0.193405  0.009484  0.108357  1.0
  H  H77  1  0.009484  0.816079  0.608357  1.0
  H  H78  1  0.816079  0.806595  0.108357  1.0
  H  H79  1  0.193405  0.009484  0.391643  1.0
  H  H80  1  0.009484  0.816079  0.891643  1.0
  H  H81  1  0.816079  0.806595  0.391643  1.0
  H  H82  1  0.806595  0.990516  0.891643  1.0
  H  H83  1  0.990516  0.183921  0.391643  1.0
  H  H84  1  0.183921  0.193405  0.891643  1.0
  H  H85  1  0.606288  0.791040  0.582387  1.0
  H  H86  1  0.791040  0.184752  0.082387  1.0
  H  H87  1  0.184752  0.393712  0.582387  1.0
  H  H88  1  0.393712  0.208960  0.082387  1.0
  H  H89  1  0.208960  0.815248  0.582387  1.0
  H  H90  1  0.815248  0.606288  0.082387  1.0
  H  H91  1  0.393712  0.208960  0.417613  1.0
  H  H92  1  0.208960  0.815248  0.917613  1.0
  H  H93  1  0.815248  0.606288  0.417613  1.0
  H  H94  1  0.606288  0.791040  0.917613  1.0
  H  H95  1  0.791040  0.184752  0.417613  1.0
  H  H96  1  0.184752  0.393712  0.917613  1.0
  H  H97  1  0.550417  0.832089  0.661016  1.0
  H  H98  1  0.832089  0.281672  0.161016  1.0
  H  H99  1  0.281672  0.449583  0.661016  1.0
  H  H100  1  0.449583  0.167911  0.161016  1.0
  H  H101  1  0.167911  0.718328  0.661016  1.0
  H  H102  1  0.718328  0.550417  0.161016  1.0
  H  H103  1  0.449583  0.167911  0.338984  1.0
  H  H104  1  0.167911  0.718328  0.838984  1.0
  H  H105  1  0.718328  0.550417  0.338984  1.0
  H  H106  1  0.550417  0.832089  0.838984  1.0
  H  H107  1  0.832089  0.281672  0.338984  1.0
  H  H108  1  0.281672  0.449583  0.838984  1.0
  H  H109  1  0.743535  0.031113  0.680924  1.0
  H  H110  1  0.031113  0.287578  0.180924  1.0
  H  H111  1  0.287578  0.256465  0.680924  1.0
  H  H112  1  0.256465  0.968887  0.180924  1.0
  H  H113  1  0.968887  0.712422  0.680924  1.0
  H  H114  1  0.712422  0.743535  0.180924  1.0
  H  H115  1  0.256465  0.968887  0.319076  1.0
  H  H116  1  0.968887  0.712422  0.819076  1.0
  H  H117  1  0.712422  0.743535  0.319076  1.0
  H  H118  1  0.743535  0.031113  0.819076  1.0
  H  H119  1  0.031113  0.287578  0.319076  1.0
  H  H120  1  0.287578  0.256465  0.819076  1.0
  H  H121  1  0.569090  0.435010  0.581092  1.0
  H  H122  1  0.435010  0.865920  0.081092  1.0
  H  H123  1  0.865920  0.430910  0.581092  1.0
  H  H124  1  0.430910  0.564990  0.081092  1.0
  H  H125  1  0.564990  0.134080  0.581092  1.0
  H  H126  1  0.134080  0.569090  0.081092  1.0
  H  H127  1  0.430910  0.564990  0.418908  1.0
  H  H128  1  0.564990  0.134080  0.918908  1.0
  H  H129  1  0.134080  0.569090  0.418908  1.0
  H  H130  1  0.569090  0.435010  0.918908  1.0
  H  H131  1  0.435010  0.865920  0.418908  1.0
  H  H132  1  0.865920  0.430910  0.918908  1.0
  H  H133  1  0.447472  0.556623  0.671761  1.0
  H  H134  1  0.556623  0.109151  0.171761  1.0
  H  H135  1  0.109151  0.552528  0.671761  1.0
  H  H136  1  0.552528  0.443377  0.171761  1.0
  H  H137  1  0.443377  0.890849  0.671761  1.0
  H  H138  1  0.890849  0.447472  0.171761  1.0
  H  H139  1  0.552528  0.443377  0.328239  1.0
  H  H140  1  0.443377  0.890849  0.828239  1.0
  H  H141  1  0.890849  0.447472  0.328239  1.0
  H  H142  1  0.447472  0.556623  0.828239  1.0
  H  H143  1  0.556623  0.109151  0.328239  1.0
  H  H144  1  0.109151  0.552528  0.828239  1.0
  H  H145  1  0.761265  0.877852  0.495577  1.0
  H  H146  1  0.877852  0.116587  0.995577  1.0
  H  H147  1  0.116587  0.238735  0.495577  1.0
  H  H148  1  0.238735  0.122148  0.995577  1.0
  H  H149  1  0.122148  0.883413  0.495577  1.0
  H  H150  1  0.883413  0.761265  0.995577  1.0
  H  H151  1  0.238735  0.122148  0.504423  1.0
  H  H152  1  0.122148  0.883413  0.004423  1.0
  H  H153  1  0.883413  0.761265  0.504423  1.0
  H  H154  1  0.761265  0.877852  0.004423  1.0
  H  H155  1  0.877852  0.116587  0.504423  1.0
  H  H156  1  0.116587  0.238735  0.004423  1.0
  H  H157  1  0.820317  0.899347  0.555032  1.0
  H  H158  1  0.899347  0.079030  0.055032  1.0
  H  H159  1  0.079030  0.179683  0.555032  1.0
  H  H160  1  0.179683  0.100653  0.055032  1.0
  H  H161  1  0.100653  0.920970  0.555032  1.0
  H  H162  1  0.920970  0.820317  0.055032  1.0
  H  H163  1  0.179683  0.100653  0.444968  1.0
  H  H164  1  0.100653  0.920970  0.944968  1.0
  H  H165  1  0.920970  0.820317  0.444968  1.0
  H  H166  1  0.820317  0.899347  0.944968  1.0
  H  H167  1  0.899347  0.079030  0.444968  1.0
  H  H168  1  0.079030  0.179683  0.944968  1.0
  H  H169  1  0.485973  0.382207  0.667889  1.0
  H  H170  1  0.382207  0.896234  0.167889  1.0
  H  H171  1  0.896234  0.514027  0.667889  1.0
  H  H172  1  0.514027  0.617793  0.167889  1.0
  H  H173  1  0.617793  0.103766  0.667889  1.0
  H  H174  1  0.103766  0.485973  0.167889  1.0
  H  H175  1  0.514027  0.617793  0.332111  1.0
  H  H176  1  0.617793  0.103766  0.832111  1.0
  H  H177  1  0.103766  0.485973  0.332111  1.0
  H  H178  1  0.485973  0.382207  0.832111  1.0
  H  H179  1  0.382207  0.896234  0.332111  1.0
  H  H180  1  0.896234  0.514027  0.832111  1.0
  H  H181  1  0.544608  0.620910  0.590735  1.0
  H  H182  1  0.620910  0.076302  0.090735  1.0
  H  H183  1  0.076302  0.455392  0.590735  1.0
  H  H184  1  0.455392  0.379090  0.090735  1.0
  H  H185  1  0.379090  0.923698  0.590735  1.0
  H  H186  1  0.923698  0.544608  0.090735  1.0
  H  H187  1  0.455392  0.379090  0.409265  1.0
  H  H188  1  0.379090  0.923698  0.909265  1.0
  H  H189  1  0.923698  0.544608  0.409265  1.0
  H  H190  1  0.544608  0.620910  0.909265  1.0
  H  H191  1  0.620910  0.076302  0.409265  1.0
  H  H192  1  0.076302  0.455392  0.909265  1.0
  H  H193  1  0.728843  0.652904  0.573639  1.0
  H  H194  1  0.652904  0.924061  0.073639  1.0
  H  H195  1  0.924061  0.271157  0.573639  1.0
  H  H196  1  0.271157  0.347096  0.073639  1.0
  H  H197  1  0.347096  0.075939  0.573639  1.0
  H  H198  1  0.075939  0.728843  0.073639  1.0
  H  H199  1  0.271157  0.347096  0.426361  1.0
  H  H200  1  0.347096  0.075939  0.926361  1.0
  H  H201  1  0.075939  0.728843  0.426361  1.0
  H  H202  1  0.728843  0.652904  0.926361  1.0
  H  H203  1  0.652904  0.924061  0.426361  1.0
  H  H204  1  0.924061  0.271157  0.926361  1.0
  H  H205  1  0.783202  0.784226  0.567749  1.0
  H  H206  1  0.784226  0.001024  0.067749  1.0
  H  H207  1  0.001024  0.216798  0.567749  1.0
  H  H208  1  0.216798  0.215774  0.067749  1.0
  H  H209  1  0.215774  0.998976  0.567749  1.0
  H  H210  1  0.998976  0.783202  0.067749  1.0
  H  H211  1  0.216798  0.215774  0.432251  1.0
  H  H212  1  0.215774  0.998976  0.932251  1.0
  H  H213  1  0.998976  0.783202  0.432251  1.0
  H  H214  1  0.783202  0.784226  0.932251  1.0
  H  H215  1  0.784226  0.001024  0.432251  1.0
  H  H216  1  0.001024  0.216798  0.932251  1.0
  H  H217  1  0.587973  0.597786  0.484992  1.0
  H  H218  1  0.597786  0.009813  0.984992  1.0
  H  H219  1  0.009813  0.412027  0.484992  1.0
  H  H220  1  0.412027  0.402214  0.984992  1.0
  H  H221  1  0.402214  0.990187  0.484992  1.0
  H  H222  1  0.990187  0.587973  0.984992  1.0
  H  H223  1  0.412027  0.402214  0.515008  1.0
  H  H224  1  0.402214  0.990187  0.015008  1.0
  H  H225  1  0.990187  0.587973  0.515008  1.0
  H  H226  1  0.587973  0.597786  0.015008  1.0
  H  H227  1  0.597786  0.009813  0.515008  1.0
  H  H228  1  0.009813  0.412027  0.015008  1.0
  H  H229  1  0.631093  0.547321  0.486910  1.0
  H  H230  1  0.547321  0.916228  0.986910  1.0
  H  H231  1  0.916228  0.368907  0.486910  1.0
  H  H232  1  0.368907  0.452679  0.986910  1.0
  H  H233  1  0.452679  0.083772  0.486910  1.0
  H  H234  1  0.083772  0.631093  0.986910  1.0
  H  H235  1  0.368907  0.452679  0.513090  1.0
  H  H236  1  0.452679  0.083772  0.013090  1.0
  H  H237  1  0.083772  0.631093  0.513090  1.0
  H  H238  1  0.631093  0.547321  0.013090  1.0
  H  H239  1  0.547321  0.916228  0.513090  1.0
  H  H240  1  0.916228  0.368907  0.013090  1.0
  Pd  Pd241  1  0.590050  0.966070  0.750000  1.0
  Pd  Pd242  1  0.966070  0.376020  0.250000  1.0
  Pd  Pd243  1  0.376020  0.409950  0.750000  1.0
  Pd  Pd244  1  0.409950  0.033930  0.250000  1.0
  Pd  Pd245  1  0.033930  0.623980  0.750000  1.0
  Pd  Pd246  1  0.623980  0.590050  0.250000  1.0
  C  C247  1  0.739600  0.853200  0.527300  1
  C  C248  1  0.853200  0.113600  0.027300  1
  C  C249  1  0.113600  0.260400  0.527300  1
  C  C250  1  0.260400  0.146800  0.027300  1
  C  C251  1  0.146800  0.886400  0.527300  1
  C  C252  1  0.886400  0.739600  0.027300  1
  C  C253  1  0.260400  0.146800  0.472700  1
  C  C254  1  0.146800  0.886400  0.972700  1
  C  C255  1  0.886400  0.739600  0.472700  1
  C  C256  1  0.739600  0.853200  0.972700  1
  C  C257  1  0.853200  0.113600  0.472700  1
  C  C258  1  0.113600  0.260400  0.972700  1
  C  C259  1  0.644000  0.576500  0.532800  1
  C  C260  1  0.576500  0.932500  0.032800  1
  C  C261  1  0.932500  0.356000  0.532800  1
  C  C262  1  0.356000  0.423500  0.032800  1
  C  C263  1  0.423500  0.067500  0.532800  1
  C  C264  1  0.067500  0.644000  0.032800  1
  C  C265  1  0.356000  0.423500  0.467200  1
  C  C266  1  0.423500  0.067500  0.967200  1
  C  C267  1  0.067500  0.644000  0.467200  1
  C  C268  1  0.644000  0.576500  0.967200  1
  C  C269  1  0.576500  0.932500  0.467200  1
  C  C270  1  0.932500  0.356000  0.967200  1
  C  C271  1  0.753100  0.957200  0.617000  1.0
  C  C272  1  0.957200  0.204100  0.117000  1.0
  C  C273  1  0.204100  0.246900  0.617000  1.0
  C  C274  1  0.246900  0.042800  0.117000  1.0
  C  C275  1  0.042800  0.795900  0.617000  1.0
  C  C276  1  0.795900  0.753100  0.117000  1.0
  C  C277  1  0.246900  0.042800  0.383000  1.0
  C  C278  1  0.042800  0.795900  0.883000  1.0
  C  C279  1  0.795900  0.753100  0.383000  1.0
  C  C280  1  0.753100  0.957200  0.883000  1.0
  C  C281  1  0.957200  0.204100  0.383000  1.0
  C  C282  1  0.204100  0.246900  0.883000  1.0
  C  C283  1  0.636800  0.840200  0.602300  1.0
  C  C284  1  0.840200  0.203400  0.102300  1.0
  C  C285  1  0.203400  0.363200  0.602300  1.0
  C  C286  1  0.363200  0.159800  0.102300  1.0
  C  C287  1  0.159800  0.796600  0.602300  1.0
  C  C288  1  0.796600  0.636800  0.102300  1.0
  C  C289  1  0.363200  0.159800  0.397700  1.0
  C  C290  1  0.159800  0.796600  0.897700  1.0
  C  C291  1  0.796600  0.636800  0.397700  1.0
  C  C292  1  0.636800  0.840200  0.897700  1.0
  C  C293  1  0.840200  0.203400  0.397700  1.0
  C  C294  1  0.203400  0.363200  0.897700  1.0
  C  C295  1  0.713100  0.885600  0.584500  1.0
  C  C296  1  0.885600  0.172500  0.084500  1.0
  C  C297  1  0.172500  0.286900  0.584500  1.0
  C  C298  1  0.286900  0.114400  0.084500  1.0
  C  C299  1  0.114400  0.827500  0.584500  1.0
  C  C300  1  0.827500  0.713100  0.084500  1.0
  C  C301  1  0.286900  0.114400  0.415500  1.0
  C  C302  1  0.114400  0.827500  0.915500  1.0
  C  C303  1  0.827500  0.713100  0.415500  1.0
  C  C304  1  0.713100  0.885600  0.915500  1.0
  C  C305  1  0.885600  0.172500  0.415500  1.0
  C  C306  1  0.172500  0.286900  0.915500  1.0
  C  C307  1  0.603100  0.865400  0.649600  1.0
  C  C308  1  0.865400  0.262300  0.149600  1.0
  C  C309  1  0.262300  0.396900  0.649600  1.0
  C  C310  1  0.396900  0.134600  0.149600  1.0
  C  C311  1  0.134600  0.737700  0.649600  1.0
  C  C312  1  0.737700  0.603100  0.149600  1.0
  C  C313  1  0.396900  0.134600  0.350400  1.0
  C  C314  1  0.134600  0.737700  0.850400  1.0
  C  C315  1  0.737700  0.603100  0.350400  1.0
  C  C316  1  0.603100  0.865400  0.850400  1.0
  C  C317  1  0.865400  0.262300  0.350400  1.0
  C  C318  1  0.262300  0.396900  0.850400  1.0
  C  C319  1  0.715500  0.980900  0.662400  1.0
  C  C320  1  0.980900  0.265400  0.162400  1.0
  C  C321  1  0.265400  0.284500  0.662400  1.0
  C  C322  1  0.284500  0.019100  0.162400  1.0
  C  C323  1  0.019100  0.734600  0.662400  1.0
  C  C324  1  0.734600  0.715500  0.162400  1.0
  C  C325  1  0.284500  0.019100  0.337600  1.0
  C  C326  1  0.019100  0.734600  0.837600  1.0
  C  C327  1  0.734600  0.715500  0.337600  1.0
  C  C328  1  0.715500  0.980900  0.837600  1.0
  C  C329  1  0.980900  0.265400  0.337600  1.0
  C  C330  1  0.265400  0.284500  0.837600  1.0
  C  C331  1  0.547800  0.463300  0.600600  1.0
  C  C332  1  0.463300  0.915500  0.100600  1.0
  C  C333  1  0.915500  0.452200  0.600600  1.0
  C  C334  1  0.452200  0.536700  0.100600  1.0
  C  C335  1  0.536700  0.084500  0.600600  1.0
  C  C336  1  0.084500  0.547800  0.100600  1.0
  C  C337  1  0.452200  0.536700  0.399400  1.0
  C  C338  1  0.536700  0.084500  0.899400  1.0
  C  C339  1  0.084500  0.547800  0.399400  1.0
  C  C340  1  0.547800  0.463300  0.899400  1.0
  C  C341  1  0.463300  0.915500  0.399400  1.0
  C  C342  1  0.915500  0.452200  0.899400  1.0
  C  C343  1  0.474700  0.532600  0.655200  1.0
  C  C344  1  0.532600  0.057900  0.155200  1.0
  C  C345  1  0.057900  0.525300  0.655200  1.0
  C  C346  1  0.525300  0.467400  0.155200  1.0
  C  C347  1  0.467400  0.942100  0.655200  1.0
  C  C348  1  0.942100  0.474700  0.155200  1.0
  C  C349  1  0.525300  0.467400  0.344800  1.0
  C  C350  1  0.467400  0.942100  0.844800  1.0
  C  C351  1  0.942100  0.474700  0.344800  1.0
  C  C352  1  0.474700  0.532600  0.844800  1.0
  C  C353  1  0.532600  0.057900  0.344800  1.0
  C  C354  1  0.057900  0.525300  0.844800  1.0
  C  C355  1  0.765700  0.865800  0.541600  1.0
  C  C356  1  0.865800  0.100100  0.041600  1.0
  C  C357  1  0.100100  0.234300  0.541600  1.0
  C  C358  1  0.234300  0.134200  0.041600  1.0
  C  C359  1  0.134200  0.899900  0.541600  1.0
  C  C360  1  0.899900  0.765700  0.041600  1.0
  C  C361  1  0.234300  0.134200  0.458400  1.0
  C  C362  1  0.134200  0.899900  0.958400  1.0
  C  C363  1  0.899900  0.765700  0.458400  1.0
  C  C364  1  0.765700  0.865800  0.958400  1.0
  C  C365  1  0.865800  0.100100  0.458400  1.0
  C  C366  1  0.100100  0.234300  0.958400  1.0
  C  C367  1  0.495900  0.430900  0.651600  1.0
  C  C368  1  0.430900  0.935000  0.151600  1.0
  C  C369  1  0.935000  0.504100  0.651600  1.0
  C  C370  1  0.504100  0.569100  0.151600  1.0
  C  C371  1  0.569100  0.065000  0.651600  1.0
  C  C372  1  0.065000  0.495900  0.151600  1.0
  C  C373  1  0.504100  0.569100  0.348400  1.0
  C  C374  1  0.569100  0.065000  0.848400  1.0
  C  C375  1  0.065000  0.495900  0.348400  1.0
  C  C376  1  0.495900  0.430900  0.848400  1.0
  C  C377  1  0.430900  0.935000  0.348400  1.0
  C  C378  1  0.935000  0.504100  0.848400  1.0
  C  C379  1  0.532400  0.570700  0.604900  1.0
  C  C380  1  0.570700  0.038300  0.104900  1.0
  C  C381  1  0.038300  0.467600  0.604900  1.0
  C  C382  1  0.467600  0.429300  0.104900  1.0
  C  C383  1  0.429300  0.961700  0.604900  1.0
  C  C384  1  0.961700  0.532400  0.104900  1.0
  C  C385  1  0.467600  0.429300  0.395100  1.0
  C  C386  1  0.429300  0.961700  0.895100  1.0
  C  C387  1  0.961700  0.532400  0.395100  1.0
  C  C388  1  0.532400  0.570700  0.895100  1.0
  C  C389  1  0.570700  0.038300  0.395100  1.0
  C  C390  1  0.038300  0.467600  0.895100  1.0
  C  C391  1  0.569000  0.536700  0.577800  1.0
  C  C392  1  0.536700  0.967700  0.077800  1.0
  C  C393  1  0.967700  0.431000  0.577800  1.0
  C  C394  1  0.431000  0.463300  0.077800  1.0
  C  C395  1  0.463300  0.032300  0.577800  1.0
  C  C396  1  0.032300  0.569000  0.077800  1.0
  C  C397  1  0.431000  0.463300  0.422200  1.0
  C  C398  1  0.463300  0.032300  0.922200  1.0
  C  C399  1  0.032300  0.569000  0.422200  1.0
  C  C400  1  0.569000  0.536700  0.922200  1.0
  C  C401  1  0.536700  0.967700  0.422200  1.0
  C  C402  1  0.967700  0.431000  0.922200  1.0
  C  C403  1  0.693900  0.718600  0.529000  1.0
  C  C404  1  0.718600  0.024700  0.029000  1.0
  C  C405  1  0.024700  0.306100  0.529000  1.0
  C  C406  1  0.306100  0.281400  0.029000  1.0
  C  C407  1  0.281400  0.975300  0.529000  1.0
  C  C408  1  0.975300  0.693900  0.029000  1.0
  C  C409  1  0.306100  0.281400  0.471000  1.0
  C  C410  1  0.281400  0.975300  0.971000  1.0
  C  C411  1  0.975300  0.693900  0.471000  1.0
  C  C412  1  0.693900  0.718600  0.971000  1.0
  C  C413  1  0.718600  0.024700  0.471000  1.0
  C  C414  1  0.024700  0.306100  0.971000  1.0
  C  C415  1  0.616800  0.580200  0.512800  1.0
  C  C416  1  0.580200  0.963400  0.012800  1.0
  C  C417  1  0.963400  0.383200  0.512800  1.0
  C  C418  1  0.383200  0.419800  0.012800  1.0
  C  C419  1  0.419800  0.036600  0.512800  1.0
  C  C420  1  0.036600  0.616800  0.012800  1.0
  C  C421  1  0.383200  0.419800  0.487200  1.0
  C  C422  1  0.419800  0.036600  0.987200  1.0
  C  C423  1  0.036600  0.616800  0.487200  1.0
  C  C424  1  0.616800  0.580200  0.987200  1.0
  C  C425  1  0.580200  0.963400  0.487200  1.0
  C  C426  1  0.963400  0.383200  0.987200  1.0
  N  N427  1  0.704500  0.790000  0.506400  1
  N  N428  1  0.790000  0.085500  0.006400  1
  N  N429  1  0.085500  0.295500  0.506400  1
  N  N430  1  0.295500  0.210000  0.006400  1
  N  N431  1  0.210000  0.914500  0.506400  1
  N  N432  1  0.914500  0.704500  0.006400  1
  N  N433  1  0.295500  0.210000  0.493600  1
  N  N434  1  0.210000  0.914500  0.993600  1
  N  N435  1  0.914500  0.704500  0.493600  1
  N  N436  1  0.704500  0.790000  0.993600  1
  N  N437  1  0.790000  0.085500  0.493600  1
  N  N438  1  0.085500  0.295500  0.993600  1
  N  N439  1  0.642400  0.655800  0.500600  1
  N  N440  1  0.655800  0.013400  0.000600  1
  N  N441  1  0.013400  0.357600  0.500600  1
  N  N442  1  0.357600  0.344200  0.000600  1
  N  N443  1  0.344200  0.986600  0.500600  1
  N  N444  1  0.986600  0.642400  0.000600  1
  N  N445  1  0.357600  0.344200  0.499400  1
  N  N446  1  0.344200  0.986600  0.999400  1
  N  N447  1  0.986600  0.642400  0.499400  1
  N  N448  1  0.642400  0.655800  0.999400  1
  N  N449  1  0.655800  0.013400  0.499400  1
  N  N450  1  0.013400  0.357600  0.999400  1
  N  N451  1  0.642900  0.935500  0.679700  1.0
  N  N452  1  0.935500  0.292600  0.179700  1.0
  N  N453  1  0.292600  0.357100  0.679700  1.0
  N  N454  1  0.357100  0.064500  0.179700  1.0
  N  N455  1  0.064500  0.707400  0.679700  1.0
  N  N456  1  0.707400  0.642900  0.179700  1.0
  N  N457  1  0.357100  0.064500  0.320300  1.0
  N  N458  1  0.064500  0.707400  0.820300  1.0
  N  N459  1  0.707400  0.642900  0.320300  1.0
  N  N460  1  0.642900  0.935500  0.820300  1.0
  N  N461  1  0.935500  0.292600  0.320300  1.0
  N  N462  1  0.292600  0.357100  0.820300  1.0
  N  N463  1  0.459400  0.463500  0.678700  1.0
  N  N464  1  0.463500  0.004100  0.178700  1.0
  N  N465  1  0.004100  0.540600  0.678700  1.0
  N  N466  1  0.540600  0.536500  0.178700  1.0
  N  N467  1  0.536500  0.995900  0.678700  1.0
  N  N468  1  0.995900  0.459400  0.178700  1.0
  N  N469  1  0.540600  0.536500  0.321300  1.0
  N  N470  1  0.536500  0.995900  0.821300  1.0
  N  N471  1  0.995900  0.459400  0.321300  1.0
  N  N472  1  0.459400  0.463500  0.821300  1.0
  N  N473  1  0.463500  0.004100  0.321300  1.0
  N  N474  1  0.004100  0.540600  0.821300  1.0
  N  N475  1  0.694800  0.655200  0.548100  1.0
  N  N476  1  0.655200  0.960400  0.048100  1.0
  N  N477  1  0.960400  0.305200  0.548100  1.0
  N  N478  1  0.305200  0.344800  0.048100  1.0
  N  N479  1  0.344800  0.039600  0.548100  1.0
  N  N480  1  0.039600  0.694800  0.048100  1.0
  N  N481  1  0.305200  0.344800  0.451900  1.0
  N  N482  1  0.344800  0.039600  0.951900  1.0
  N  N483  1  0.039600  0.694800  0.451900  1.0
  N  N484  1  0.694800  0.655200  0.951900  1.0
  N  N485  1  0.655200  0.960400  0.451900  1.0
  N  N486  1  0.960400  0.305200  0.951900  1.0
  N  N487  1  0.746800  0.787100  0.546100  1.0
  N  N488  1  0.787100  0.040300  0.046100  1.0
  N  N489  1  0.040300  0.253200  0.546100  1.0
  N  N490  1  0.253200  0.212900  0.046100  1.0
  N  N491  1  0.212900  0.959700  0.546100  1.0
  N  N492  1  0.959700  0.746800  0.046100  1.0
  N  N493  1  0.253200  0.212900  0.453900  1.0
  N  N494  1  0.212900  0.959700  0.953900  1.0
  N  N495  1  0.959700  0.746800  0.453900  1.0
  N  N496  1  0.746800  0.787100  0.953900  1.0
  N  N497  1  0.787100  0.040300  0.453900  1.0
  N  N498  1  0.040300  0.253200  0.953900  1.0
  O  O499  1  0.733400  0.715100  0.575600  1
  O  O500  1  0.715100  0.981700  0.075600  1
  O  O501  1  0.981700  0.266600  0.575600  1
  O  O502  1  0.266600  0.284900  0.075600  1
  O  O503  1  0.284900  0.018300  0.575600  1
  O  O504  1  0.018300  0.733400  0.075600  1
  O  O505  1  0.266600  0.284900  0.424400  1
  O  O506  1  0.284900  0.018300  0.924400  1
  O  O507  1  0.018300  0.733400  0.424400  1
  O  O508  1  0.733400  0.715100  0.924400  1
  O  O509  1  0.715100  0.981700  0.424400  1
  O  O510  1  0.981700  0.266600  0.924400  1
  O  O511  1  0.637300  0.706300  0.490900  1.0
  O  O512  1  0.706300  0.069000  0.990900  1.0
  O  O513  1  0.069000  0.362700  0.490900  1.0
  O  O514  1  0.362700  0.293700  0.990900  1.0
  O  O515  1  0.293700  0.931000  0.490900  1.0
  O  O516  1  0.931000  0.637300  0.990900  1.0
  O  O517  1  0.362700  0.293700  0.509100  1.0
  O  O518  1  0.293700  0.931000  0.009100  1.0
  O  O519  1  0.931000  0.637300  0.509100  1.0
  O  O520  1  0.637300  0.706300  0.009100  1.0
  O  O521  1  0.706300  0.069000  0.509100  1.0
  O  O522  1  0.069000  0.362700  0.009100  1.0
