# generated using pymatgen
data_Zn2H38C38Br4N6Cl11O6
_symmetry_space_group_name_H-M   'P 1'
_cell_length_a   8.82010000
_cell_length_b   9.22570000
_cell_length_c   16.79520000
_cell_angle_alpha   96.89600000
_cell_angle_beta   93.21600000
_cell_angle_gamma   96.05800000
_symmetry_Int_Tables_number   1
_chemical_formula_structural   Zn2H38C38Br4N6Cl11O6
_chemical_formula_sum   'Zn2 H38 C38 Br4 N6 Cl11 O6'
_cell_volume   1345.91111189
_cell_formula_units_Z   1
loop_
 _symmetry_equiv_pos_site_id
 _symmetry_equiv_pos_as_xyz
  1  'x, y, z'
loop_
 _atom_site_type_symbol
 _atom_site_label
 _atom_site_symmetry_multiplicity
 _atom_site_fract_x
 _atom_site_fract_y
 _atom_site_fract_z
 _atom_site_occupancy
  Zn  Zn1  1  0.600200  0.237610  0.931580  1
  Zn  Zn2  1  0.168930  0.917170  0.444960  1
  H  H3  1  0.120300  0.476700  0.952700  1
  H  H4  1  0.274300  0.287600  0.947800  1
  H  H5  1  0.643900  0.561000  0.945800  1
  H  H6  1  0.505400  0.764000  0.961900  1
  H  H7  1  0.195800  0.707900  0.809400  1
  H  H8  1  0.055300  0.598500  0.832300  1
  H  H9  1  0.889000  0.711600  0.775200  1
  H  H10  1  0.030000  0.776200  0.728400  1
  H  H11  1  0.875500  0.952100  0.815900  1
  H  H12  1  0.054000  0.996800  0.805500  1
  H  H13  1  0.083600  0.004400  0.939800  1
  H  H14  1  0.802800  0.968600  0.946300  1
  H  H15  1  0.817800  0.796700  0.944200  1
  H  H16  1  0.086800  0.036400  0.160900  1
  H  H17  1  0.183300  0.066400  0.293600  1
  H  H18  1  0.962000  0.692700  0.336700  1
  H  H19  1  0.862900  0.646500  0.203600  1
  H  H20  1  0.408900  0.450000  0.456700  1
  H  H21  1  0.214300  0.606600  0.465800  1
  H  H22  1  0.493900  0.931300  0.411900  1
  H  H23  1  0.694200  0.792000  0.405100  1
  H  H24  1  0.605200  0.369800  0.566200  1
  H  H25  1  0.655300  0.543900  0.571200  1
  H  H26  1  0.902000  0.523000  0.616800  1
  H  H27  1  0.810500  0.395700  0.659300  1
  H  H28  1  0.017100  0.325700  0.564700  1
  H  H29  1  0.864100  0.214000  0.564300  1
  H  H30  1  0.950600  0.391500  0.446500  1
  H  H31  1  0.908800  0.127000  0.426900  1
  H  H32  1  0.731300  0.135800  0.440400  1
  H  H33  1  0.486300  0.020500  0.036500  1
  H  H34  1  0.527400  0.963900  0.167600  1
  H  H35  1  0.853400  0.312500  0.215500  1
  H  H36  1  0.812300  0.369000  0.084400  1
  H  H37  1  0.287200  0.250500  0.632700  1
  H  H38  1  0.563700  0.013300  0.729600  1
  H  H39  1  0.521200  0.592200  0.266700  1
  H  H40  1  0.203600  0.444200  0.168500  1
  C  C41  1  0.228100  0.498000  0.953100  1
  C  C42  1  0.320400  0.385600  0.948300  1
  C  C43  1  0.536300  0.545900  0.948700  1
  C  C44  1  0.454500  0.667100  0.957100  1
  C  C45  1  0.294800  0.642700  0.958400  1
  C  C46  1  0.209200  0.773800  0.971100  1
  C  C47  1  0.093400  0.703000  0.831000  1
  C  C48  1  0.991000  0.770000  0.782100  1
  C  C49  1  0.979600  0.923600  0.825200  1
  C  C50  1  0.016000  0.914700  0.915000  1
  C  C51  1  0.871800  0.896300  0.960500  1
  C  C52  1  0.909100  0.794800  0.079800  1
  C  C53  1  0.964000  0.830500  0.166400  1
  C  C54  1  0.061000  0.963900  0.195100  1
  C  C55  1  0.114700  0.981200  0.274700  1
  C  C56  1  0.987000  0.762500  0.300900  1
  C  C57  1  0.928700  0.734400  0.220900  1
  C  C58  1  0.429800  0.549400  0.447300  1
  C  C59  1  0.313000  0.643700  0.452600  1
  C  C60  1  0.476500  0.831900  0.421800  1
  C  C61  1  0.596200  0.749700  0.416600  1
  C  C62  1  0.571600  0.600900  0.428700  1
  C  C63  1  0.694500  0.506000  0.415400  1
  C  C64  1  0.688700  0.445000  0.557300  1
  C  C65  1  0.834000  0.429000  0.607100  1
  C  C66  1  0.904700  0.313700  0.554000  1
  C  C67  1  0.862600  0.336300  0.469000  1
  C  C68  1  0.823000  0.187100  0.420600  1
  C  C69  1  0.717000  0.102000  0.286400  1
  C  C70  1  0.560800  0.079700  0.072900  1
  C  C71  1  0.585200  0.046200  0.150700  1
  C  C72  1  0.694300  0.132900  0.203900  1
  C  C73  1  0.778900  0.253200  0.179200  1
  C  C74  1  0.754500  0.286800  0.101300  1
  C  C75  1  0.294400  0.326500  0.681000  1
  C  C76  1  0.553000  0.932000  0.683700  1
  C  C77  1  0.450000  0.541000  0.221000  1
  C  C78  1  0.283000  0.459000  0.214000  1
  Br  Br79  1  0.822510  0.309750  0.870010  1
  Br  Br80  1  0.437600  0.024590  0.880570  1
  Br  Br81  1  0.285900  0.161380  0.467360  1
  Br  Br82  1  0.984330  0.821330  0.524640  1
  N  N83  1  0.102000  0.784200  0.911900  1
  N  N84  1  0.077700  0.886700  0.327900  1
  N  N85  1  0.338900  0.783000  0.439500  1
  N  N86  1  0.731700  0.425200  0.473400  1
  N  N87  1  0.467200  0.408600  0.944600  1
  N  N88  1  0.645400  0.200100  0.048200  1
  Cl  Cl89  1  0.274100  0.495800  0.648700  1
  Cl  Cl90  1  0.146200  0.280600  0.741500  1
  Cl  Cl91  1  0.474800  0.330200  0.732600  1
  Cl  Cl92  1  0.355500  0.903500  0.648300  1
  Cl  Cl93  1  0.579300  0.756100  0.727200  1
  Cl  Cl94  1  0.671100  0.973700  0.623800  1
  Cl  Cl95  1  0.543400  0.560600  0.136400  1
  Cl  Cl96  1  0.419000  0.371000  0.239700  1
  Cl  Cl97  1  0.312000  0.663000  0.205700  1
  Cl  Cl98  1  0.129000  0.403800  0.286700  1
  Cl  Cl99  1  0.344000  0.330000  0.183100  1
  O  O100  1  0.228700  0.854700  0.035200  1
  O  O101  1  0.906300  0.916700  0.043900  1
  O  O102  1  0.867000  0.671200  0.049400  1
  O  O103  1  0.762400  0.508200  0.354400  1
  O  O104  1  0.794200  0.203800  0.334700  1
  O  O105  1  0.674000  0.971000  0.305000  1
