# generated using pymatgen
data_Zn2H40C36I4N6O7
_symmetry_space_group_name_H-M   'P 1'
_cell_length_a   9.01490000
_cell_length_b   9.49020000
_cell_length_c   56.18900000
_cell_angle_alpha   90.00000000
_cell_angle_beta   90.00000000
_cell_angle_gamma   90.00000000
_symmetry_Int_Tables_number   1
_chemical_formula_structural   Zn2H40C36I4N6O7
_chemical_formula_sum   'Zn8 H160 C144 I16 N24 O28'
_cell_volume   4807.14897843
_cell_formula_units_Z   4
loop_
 _symmetry_equiv_pos_site_id
 _symmetry_equiv_pos_as_xyz
  1  'x, y, z'
loop_
 _atom_site_type_symbol
 _atom_site_label
 _atom_site_symmetry_multiplicity
 _atom_site_fract_x
 _atom_site_fract_y
 _atom_site_fract_z
 _atom_site_occupancy
  Zn  Zn1  1  0.457000  0.257910  0.797140  1
  Zn  Zn2  1  0.043000  0.742090  0.297140  1
  Zn  Zn3  1  0.957000  0.242090  0.202860  1
  Zn  Zn4  1  0.543000  0.757910  0.702860  1
  Zn  Zn5  1  0.941100  0.700700  0.952660  1
  Zn  Zn6  1  0.558900  0.299300  0.452660  1
  Zn  Zn7  1  0.441100  0.799300  0.047340  1
  Zn  Zn8  1  0.058900  0.200700  0.547340  1
  H  H9  1  0.744500  0.799800  0.865200  1
  H  H10  1  0.755500  0.200200  0.365200  1
  H  H11  1  0.244500  0.700200  0.134800  1
  H  H12  1  0.255500  0.299800  0.634800  1
  H  H13  1  0.539800  0.864200  0.881600  1
  H  H14  1  0.960200  0.135800  0.381600  1
  H  H15  1  0.039800  0.635800  0.118400  1
  H  H16  1  0.460200  0.364200  0.618400  1
  H  H17  1  0.562500  0.935800  0.856400  1
  H  H18  1  0.937500  0.064200  0.356400  1
  H  H19  1  0.062500  0.564200  0.143600  1
  H  H20  1  0.437500  0.435800  0.643600  1
  H  H21  1  0.448400  0.085200  0.881600  1
  H  H22  1  0.051600  0.914800  0.381600  1
  H  H23  1  0.948400  0.414800  0.118400  1
  H  H24  1  0.551600  0.585200  0.618400  1
  H  H25  1  0.583800  0.076400  0.900000  1
  H  H26  1  0.916200  0.923600  0.400000  1
  H  H27  1  0.083800  0.423600  0.100000  1
  H  H28  1  0.416200  0.576400  0.600000  1
  H  H29  1  0.606800  0.148800  0.874500  1
  H  H30  1  0.893200  0.851200  0.374500  1
  H  H31  1  0.106800  0.351200  0.125500  1
  H  H32  1  0.393200  0.648800  0.625500  1
  H  H33  1  0.893800  0.001400  0.943400  1
  H  H34  1  0.606200  0.998600  0.443400  1
  H  H35  1  0.393800  0.498600  0.056600  1
  H  H36  1  0.106200  0.501400  0.556600  1
  H  H37  1  0.029900  0.881200  0.778200  1
  H  H38  1  0.470100  0.118800  0.278200  1
  H  H39  1  0.529900  0.618800  0.221800  1
  H  H40  1  0.970100  0.381200  0.721800  1
  H  H41  1  0.902500  0.792000  0.765100  1
  H  H42  1  0.597500  0.208000  0.265100  1
  H  H43  1  0.402500  0.708000  0.234900  1
  H  H44  1  0.097500  0.292000  0.734900  1
  H  H45  1  0.605200  0.697500  0.953500  1
  H  H46  1  0.894800  0.302500  0.453500  1
  H  H47  1  0.105200  0.802500  0.046500  1
  H  H48  1  0.394800  0.197500  0.546500  1
  H  H49  1  0.089300  0.713100  0.742800  1
  H  H50  1  0.410700  0.286900  0.242800  1
  H  H51  1  0.589300  0.786900  0.257200  1
  H  H52  1  0.910700  0.213100  0.757200  1
  H  H53  1  0.211400  0.749700  0.762800  1
  H  H54  1  0.288600  0.250300  0.262800  1
  H  H55  1  0.711400  0.750300  0.237200  1
  H  H56  1  0.788600  0.249700  0.737200  1
  H  H57  1  0.428500  0.938500  0.793600  1
  H  H58  1  0.071500  0.061500  0.293600  1
  H  H59  1  0.928500  0.561500  0.206400  1
  H  H60  1  0.571500  0.438500  0.706400  1
  H  H61  1  0.574400  0.742900  0.798500  1
  H  H62  1  0.925600  0.257100  0.298500  1
  H  H63  1  0.074400  0.757100  0.201500  1
  H  H64  1  0.425600  0.242900  0.701500  1
  H  H65  1  0.311600  0.260700  0.882600  1
  H  H66  1  0.188400  0.739300  0.382600  1
  H  H67  1  0.811600  0.239300  0.117400  1
  H  H68  1  0.688400  0.760700  0.617400  1
  H  H69  1  0.456900  0.140900  0.987000  1
  H  H70  1  0.043100  0.859100  0.487000  1
  H  H71  1  0.956900  0.359100  0.013000  1
  H  H72  1  0.543100  0.640900  0.513000  1
  H  H73  1  0.576400  0.250000  0.976200  1
  H  H74  1  0.923600  0.750000  0.476200  1
  H  H75  1  0.076400  0.250000  0.023800  1
  H  H76  1  0.423600  0.750000  0.523800  1
  H  H77  1  0.763300  0.190800  0.808800  1
  H  H78  1  0.736700  0.809200  0.308800  1
  H  H79  1  0.263300  0.309200  0.191200  1
  H  H80  1  0.236700  0.690800  0.691200  1
  H  H81  1  0.234200  0.899100  0.883300  1
  H  H82  1  0.265800  0.100900  0.383300  1
  H  H83  1  0.734200  0.600900  0.116700  1
  H  H84  1  0.765800  0.399100  0.616700  1
  H  H85  1  0.010400  0.493400  0.801700  1
  H  H86  1  0.489600  0.506600  0.301700  1
  H  H87  1  0.510400  0.006600  0.198300  1
  H  H88  1  0.989600  0.993400  0.698300  1
  H  H89  1  0.181000  0.294500  0.946400  1
  H  H90  1  0.319000  0.705500  0.446400  1
  H  H91  1  0.681000  0.205500  0.053600  1
  H  H92  1  0.819000  0.794500  0.553600  1
  H  H93  1  0.602400  0.488500  0.827000  1
  H  H94  1  0.897600  0.511500  0.327000  1
  H  H95  1  0.102400  0.011500  0.173000  1
  H  H96  1  0.397600  0.988500  0.673000  1
  H  H97  1  0.151400  0.872800  0.922600  1
  H  H98  1  0.348600  0.127200  0.422600  1
  H  H99  1  0.651400  0.627200  0.077400  1
  H  H100  1  0.848600  0.372800  0.577400  1
  H  H101  1  0.249300  0.536600  0.942400  1
  H  H102  1  0.250700  0.463400  0.442400  1
  H  H103  1  0.749300  0.963400  0.057600  1
  H  H104  1  0.750700  0.036600  0.557600  1
  H  H105  1  0.418500  0.495700  0.948200  1
  H  H106  1  0.081500  0.504300  0.448200  1
  H  H107  1  0.918500  0.004300  0.051800  1
  H  H108  1  0.581500  0.995700  0.551800  1
  H  H109  1  0.700000  0.165700  0.938600  1
  H  H110  1  0.800000  0.834300  0.438600  1
  H  H111  1  0.200000  0.334300  0.061400  1
  H  H112  1  0.300000  0.665700  0.561400  1
  H  H113  1  0.386700  0.326600  0.008100  1
  H  H114  1  0.113300  0.673400  0.508100  1
  H  H115  1  0.886700  0.173400  0.991900  1
  H  H116  1  0.613300  0.826600  0.491900  1
  H  H117  1  0.452100  0.436300  0.989000  1
  H  H118  1  0.047900  0.563700  0.489000  1
  H  H119  1  0.952100  0.063700  0.011000  1
  H  H120  1  0.547900  0.936300  0.511000  1
  H  H121  1  0.591900  0.577900  0.864600  1
  H  H122  1  0.908100  0.422100  0.364600  1
  H  H123  1  0.091900  0.922100  0.135400  1
  H  H124  1  0.408100  0.077900  0.635400  1
  H  H125  1  0.279700  0.525300  0.807100  1
  H  H126  1  0.220300  0.474700  0.307100  1
  H  H127  1  0.779700  0.974700  0.192900  1
  H  H128  1  0.720300  0.025300  0.692900  1
  H  H129  1  0.255000  0.692200  0.804900  1
  H  H130  1  0.245000  0.307800  0.304900  1
  H  H131  1  0.755000  0.807800  0.195100  1
  H  H132  1  0.745000  0.192200  0.695100  1
  H  H133  1  0.004000  0.547000  0.867500  1
  H  H134  1  0.496000  0.453000  0.367500  1
  H  H135  1  0.504000  0.953000  0.132500  1
  H  H136  1  0.996000  0.047000  0.632500  1
  H  H137  1  0.920400  0.997200  0.815700  1
  H  H138  1  0.579600  0.002800  0.315700  1
  H  H139  1  0.420400  0.502800  0.184300  1
  H  H140  1  0.079600  0.497200  0.684300  1
  H  H141  1  0.210600  0.459200  0.983000  1
  H  H142  1  0.289400  0.540800  0.483000  1
  H  H143  1  0.710600  0.040800  0.017000  1
  H  H144  1  0.789400  0.959200  0.517000  1
  H  H145  1  0.179400  0.294200  0.987600  1
  H  H146  1  0.320600  0.705800  0.487600  1
  H  H147  1  0.679400  0.205800  0.012400  1
  H  H148  1  0.820600  0.794200  0.512400  1
  H  H149  1  0.922700  0.541300  0.907400  1
  H  H150  1  0.577300  0.458700  0.407400  1
  H  H151  1  0.422700  0.958700  0.092600  1
  H  H152  1  0.077300  0.041300  0.592600  1
  H  H153  1  0.407400  0.846200  0.947700  1
  H  H154  1  0.092600  0.153800  0.447700  1
  H  H155  1  0.907400  0.653800  0.052300  1
  H  H156  1  0.592600  0.346200  0.552300  1
  H  H157  1  0.198600  0.511500  0.766900  1
  H  H158  1  0.301400  0.488500  0.266900  1
  H  H159  1  0.698600  0.988500  0.233100  1
  H  H160  1  0.801400  0.011500  0.733100  1
  H  H161  1  0.024100  0.507700  0.760800  1
  H  H162  1  0.475900  0.492300  0.260800  1
  H  H163  1  0.524100  0.992300  0.239200  1
  H  H164  1  0.975900  0.007700  0.739200  1
  H  H165  1  0.311000  0.200900  0.843100  1
  H  H166  1  0.189000  0.799100  0.343100  1
  H  H167  1  0.811000  0.299100  0.156900  1
  H  H168  1  0.689000  0.700900  0.656900  1
  C  C169  1  0.600000  0.935000  0.873000  1
  C  C170  1  0.900000  0.065000  0.373000  1
  C  C171  1  0.100000  0.565000  0.127000  1
  C  C172  1  0.400000  0.435000  0.627000  1
  C  C173  1  0.556000  0.073000  0.883200  1
  C  C174  1  0.944000  0.927000  0.383200  1
  C  C175  1  0.056000  0.427000  0.116800  1
  C  C176  1  0.444000  0.573000  0.616800  1
  C  C177  1  0.403000  0.121300  0.939200  1
  C  C178  1  0.097000  0.878700  0.439200  1
  C  C179  1  0.903000  0.378700  0.060800  1
  C  C180  1  0.597000  0.621300  0.560800  1
  C  C181  1  0.794000  0.971100  0.944500  1
  C  C182  1  0.706000  0.028900  0.444500  1
  C  C183  1  0.294000  0.528900  0.055500  1
  C  C184  1  0.206000  0.471100  0.555500  1
  C  C185  1  0.532200  0.020400  0.942500  1
  C  C186  1  0.967800  0.979600  0.442500  1
  C  C187  1  0.032200  0.479600  0.057500  1
  C  C188  1  0.467800  0.520400  0.557500  1
  C  C189  1  0.996000  0.785000  0.774300  1
  C  C190  1  0.504000  0.215000  0.274300  1
  C  C191  1  0.496000  0.715000  0.225700  1
  C  C192  1  0.004000  0.285000  0.725700  1
  C  C193  1  0.859000  0.719600  0.811000  1
  C  C194  1  0.641000  0.280400  0.311000  1
  C  C195  1  0.359000  0.780400  0.189000  1
  C  C196  1  0.141000  0.219600  0.689000  1
  C  C197  1  0.624200  0.794100  0.950200  1
  C  C198  1  0.875800  0.205900  0.450200  1
  C  C199  1  0.124200  0.705900  0.049800  1
  C  C200  1  0.375800  0.294100  0.549800  1
  C  C201  1  0.432000  0.496000  0.902400  1
  C  C202  1  0.068000  0.504000  0.402400  1
  C  C203  1  0.932000  0.004000  0.097600  1
  C  C204  1  0.568000  0.996000  0.597600  1
  C  C205  1  0.112000  0.709000  0.760000  1
  C  C206  1  0.388000  0.291000  0.260000  1
  C  C207  1  0.612000  0.791000  0.240000  1
  C  C208  1  0.888000  0.209000  0.740000  1
  C  C209  1  0.530000  0.949600  0.797900  1
  C  C210  1  0.970000  0.050400  0.297900  1
  C  C211  1  0.030000  0.550400  0.202100  1
  C  C212  1  0.470000  0.449600  0.702100  1
  C  C213  1  0.615800  0.834000  0.800800  1
  C  C214  1  0.884200  0.166000  0.300800  1
  C  C215  1  0.115800  0.666000  0.199200  1
  C  C216  1  0.384200  0.334000  0.699200  1
  C  C217  1  0.366000  0.315000  0.871300  1
  C  C218  1  0.134000  0.685000  0.371300  1
  C  C219  1  0.866000  0.185000  0.128700  1
  C  C220  1  0.634000  0.815000  0.628700  1
  C  C221  1  0.766000  0.848000  0.807100  1
  C  C222  1  0.734000  0.152000  0.307100  1
  C  C223  1  0.266000  0.652000  0.192900  1
  C  C224  1  0.234000  0.348000  0.692900  1
  C  C225  1  0.469200  0.231000  0.978300  1
  C  C226  1  0.030800  0.769000  0.478300  1
  C  C227  1  0.969200  0.269000  0.021700  1
  C  C228  1  0.530800  0.731000  0.521700  1
  C  C229  1  0.725000  0.098000  0.807000  1
  C  C230  1  0.775000  0.902000  0.307000  1
  C  C231  1  0.225000  0.402000  0.193000  1
  C  C232  1  0.275000  0.598000  0.693000  1
  C  C233  1  0.174000  0.822000  0.887800  1
  C  C234  1  0.326000  0.178000  0.387800  1
  C  C235  1  0.674000  0.678000  0.112200  1
  C  C236  1  0.826000  0.322000  0.612200  1
  C  C237  1  0.066000  0.576900  0.795600  1
  C  C238  1  0.434000  0.423100  0.295600  1
  C  C239  1  0.566000  0.923100  0.204400  1
  C  C240  1  0.934000  0.076900  0.704400  1
  C  C241  1  0.273500  0.333000  0.953800  1
  C  C242  1  0.226500  0.667000  0.453800  1
  C  C243  1  0.773500  0.167000  0.046200  1
  C  C244  1  0.726500  0.833000  0.546200  1
  C  C245  1  0.539000  0.445000  0.838400  1
  C  C246  1  0.961000  0.555000  0.338400  1
  C  C247  1  0.039000  0.055000  0.161600  1
  C  C248  1  0.461000  0.945000  0.661600  1
  C  C249  1  0.189000  0.729000  0.846100  1
  C  C250  1  0.311000  0.271000  0.346100  1
  C  C251  1  0.689000  0.771000  0.153900  1
  C  C252  1  0.811000  0.229000  0.653900  1
  C  C253  1  0.132000  0.718000  0.872100  1
  C  C254  1  0.368000  0.282000  0.372100  1
  C  C255  1  0.632000  0.782000  0.127900  1
  C  C256  1  0.868000  0.218000  0.627900  1
  C  C257  1  0.120100  0.806100  0.911000  1
  C  C258  1  0.379900  0.193900  0.411000  1
  C  C259  1  0.620100  0.693900  0.089000  1
  C  C260  1  0.879900  0.306100  0.589000  1
  C  C261  1  0.325000  0.461000  0.941100  1
  C  C262  1  0.175000  0.539000  0.441100  1
  C  C263  1  0.825000  0.039000  0.058900  1
  C  C264  1  0.675000  0.961000  0.558900  1
  C  C265  1  0.678900  0.069100  0.941400  1
  C  C266  1  0.821100  0.930900  0.441400  1
  C  C267  1  0.178900  0.430900  0.058600  1
  C  C268  1  0.321100  0.569100  0.558600  1
  C  C269  1  0.441000  0.438200  0.878100  1
  C  C270  1  0.059000  0.561800  0.378100  1
  C  C271  1  0.941000  0.061800  0.121900  1
  C  C272  1  0.559000  0.938200  0.621900  1
  C  C273  1  0.395000  0.348000  0.990900  1
  C  C274  1  0.105000  0.652000  0.490900  1
  C  C275  1  0.895000  0.152000  0.009100  1
  C  C276  1  0.605000  0.848000  0.509100  1
  C  C277  1  0.533000  0.498000  0.860700  1
  C  C278  1  0.967000  0.502000  0.360700  1
  C  C279  1  0.033000  0.002000  0.139300  1
  C  C280  1  0.467000  0.998000  0.639300  1
  C  C281  1  0.208000  0.603000  0.809900  1
  C  C282  1  0.292000  0.397000  0.309900  1
  C  C283  1  0.708000  0.897000  0.190100  1
  C  C284  1  0.792000  0.103000  0.690100  1
  C  C285  1  0.037000  0.616000  0.878600  1
  C  C286  1  0.463000  0.384000  0.378600  1
  C  C287  1  0.537000  0.884000  0.121400  1
  C  C288  1  0.963000  0.116000  0.621400  1
  C  C289  1  0.821000  0.982800  0.810700  1
  C  C290  1  0.679000  0.017200  0.310700  1
  C  C291  1  0.321000  0.517200  0.189300  1
  C  C292  1  0.179000  0.482800  0.689300  1
  C  C293  1  0.250000  0.363000  0.980500  1
  C  C294  1  0.250000  0.637000  0.480500  1
  C  C295  1  0.750000  0.137000  0.019500  1
  C  C296  1  0.750000  0.863000  0.519500  1
  C  C297  1  0.989000  0.614000  0.902500  1
  C  C298  1  0.511000  0.386000  0.402500  1
  C  C299  1  0.489000  0.886000  0.097500  1
  C  C300  1  0.011000  0.114000  0.597500  1
  C  C301  1  0.506000  0.881000  0.946900  1
  C  C302  1  0.994000  0.119000  0.446900  1
  C  C303  1  0.006000  0.619000  0.053100  1
  C  C304  1  0.494000  0.381000  0.553100  1
  C  C305  1  0.103000  0.561000  0.769100  1
  C  C306  1  0.397000  0.439000  0.269100  1
  C  C307  1  0.603000  0.939000  0.230900  1
  C  C308  1  0.897000  0.061000  0.730900  1
  C  C309  1  0.373000  0.276000  0.848200  1
  C  C310  1  0.127000  0.724000  0.348200  1
  C  C311  1  0.873000  0.224000  0.151800  1
  C  C312  1  0.627000  0.776000  0.651800  1
  I  I313  1  0.577180  0.443290  0.771050  1
  I  I314  1  0.922820  0.556710  0.271050  1
  I  I315  1  0.077180  0.056710  0.228950  1
  I  I316  1  0.422820  0.943290  0.728950  1
  I  I317  1  0.190920  0.174740  0.789710  1
  I  I318  1  0.309080  0.825260  0.289710  1
  I  I319  1  0.690920  0.325260  0.210290  1
  I  I320  1  0.809080  0.674740  0.710290  1
  I  I321  1  0.129970  0.807430  0.980650  1
  I  I322  1  0.370030  0.192570  0.480650  1
  I  I323  1  0.629970  0.692570  0.019350  1
  I  I324  1  0.870030  0.307430  0.519350  1
  I  I325  1  0.839100  0.452970  0.958820  1
  I  I326  1  0.660900  0.547030  0.458820  1
  I  I327  1  0.339100  0.047030  0.041180  1
  I  I328  1  0.160900  0.952970  0.541180  1
  N  N329  1  0.586700  0.083200  0.801100  1
  N  N330  1  0.913300  0.916800  0.301100  1
  N  N331  1  0.086700  0.416800  0.198900  1
  N  N332  1  0.413300  0.583200  0.698900  1
  N  N333  1  0.972700  0.704900  0.795500  1
  N  N334  1  0.527300  0.295100  0.295500  1
  N  N335  1  0.472700  0.795100  0.204500  1
  N  N336  1  0.027300  0.204900  0.704500  1
  N  N337  1  0.030200  0.706600  0.917900  1
  N  N338  1  0.469800  0.293400  0.417900  1
  N  N339  1  0.530200  0.793400  0.082100  1
  N  N340  1  0.969800  0.206600  0.582100  1
  N  N341  1  0.764600  0.836300  0.949100  1
  N  N342  1  0.735400  0.163700  0.449100  1
  N  N343  1  0.264600  0.663700  0.050900  1
  N  N344  1  0.235400  0.336300  0.550900  1
  N  N345  1  0.390200  0.226000  0.954400  1
  N  N346  1  0.109800  0.774000  0.454400  1
  N  N347  1  0.890200  0.274000  0.045600  1
  N  N348  1  0.609800  0.726000  0.545600  1
  N  N349  1  0.461300  0.336400  0.832010  1
  N  N350  1  0.038700  0.663600  0.332010  1
  N  N351  1  0.961300  0.163600  0.167990  1
  N  N352  1  0.538700  0.836400  0.667990  1
  O  O353  1  0.747000  0.879000  0.871900  1
  O  O354  1  0.753000  0.121000  0.371900  1
  O  O355  1  0.247000  0.621000  0.128100  1
  O  O356  1  0.253000  0.379000  0.628100  1
  O  O357  1  0.832100  0.640000  0.827700  1
  O  O358  1  0.667900  0.360000  0.327700  1
  O  O359  1  0.332100  0.860000  0.172300  1
  O  O360  1  0.167900  0.140000  0.672300  1
  O  O361  1  0.170100  0.609800  0.835440  1
  O  O362  1  0.329900  0.390200  0.335440  1
  O  O363  1  0.670100  0.890200  0.164560  1
  O  O364  1  0.829900  0.109800  0.664560  1
  O  O365  1  0.235000  0.824000  0.837600  1
  O  O366  1  0.265000  0.176000  0.337600  1
  O  O367  1  0.735000  0.676000  0.162400  1
  O  O368  1  0.765000  0.324000  0.662400  1
  O  O369  1  0.322600  0.102600  0.922100  1
  O  O370  1  0.177400  0.897400  0.422100  1
  O  O371  1  0.822600  0.397400  0.077900  1
  O  O372  1  0.677400  0.602600  0.577900  1
  O  O373  1  0.347600  0.422700  0.916260  1
  O  O374  1  0.152400  0.577300  0.416260  1
  O  O375  1  0.847600  0.077300  0.083740  1
  O  O376  1  0.652400  0.922700  0.583740  1
  O  O377  1  0.509000  0.590800  0.909200  1
  O  O378  1  0.991000  0.409200  0.409200  1
  O  O379  1  0.009000  0.909200  0.090800  1
  O  O380  1  0.491000  0.090800  0.590800  1
