# generated using pymatgen
data_Zn2H42C38N6Cl4O7
_symmetry_space_group_name_H-M   'P 1'
_cell_length_a   8.79420344
_cell_length_b   8.79420344
_cell_length_c   17.94809970
_cell_angle_alpha   102.38795429
_cell_angle_beta   102.17833384
_cell_angle_gamma   97.56361170
_symmetry_Int_Tables_number   1
_chemical_formula_structural   Zn2H42C38N6Cl4O7
_chemical_formula_sum   'Zn2 H42 C38 N6 Cl4 O7'
_cell_volume   1302.29952197
_cell_formula_units_Z   1
loop_
 _symmetry_equiv_pos_site_id
 _symmetry_equiv_pos_as_xyz
  1  'x, y, z'
loop_
 _atom_site_type_symbol
 _atom_site_label
 _atom_site_symmetry_multiplicity
 _atom_site_fract_x
 _atom_site_fract_y
 _atom_site_fract_z
 _atom_site_occupancy
  C  C1  1  0.386600  0.891500  0.560900  1.0
  C  C2  1  0.330600  0.825700  0.439100  1.0
  C  C3  1  0.460000  0.005100  0.531100  1.0
  C  C4  1  0.474000  0.928900  0.468900  1.0
  C  C5  1  0.783500  0.227900  0.722000  1.0
  C  C6  1  0.505900  0.061500  0.278000  1.0
  C  C7  1  0.667500  0.316800  0.731900  1.0
  C  C8  1  0.584900  0.935600  0.268100  1.0
  C  C9  1  0.517500  0.119200  0.763100  1.0
  C  C10  1  0.356100  0.754400  0.236900  1.0
  C  C11  1  0.629600  0.023700  0.755500  1.0
  C  C12  1  0.268200  0.874100  0.244500  1.0
  C  C13  1  0.762300  0.077700  0.733000  1.0
  C  C14  1  0.344700  0.029300  0.267000  1.0
  C  C15  1  0.887000  0.979200  0.718400  1.0
  C  C16  1  0.260800  0.168600  0.281600  1.0
  C  C17  1  0.934700  0.940900  0.854600  1.0
  C  C18  1  0.086300  0.080100  0.145400  1.0
  C  C19  1  0.093800  0.958500  0.904100  1.0
  C  C20  1  0.054400  0.189700  0.095900  1.0
  C  C21  1  0.157200  0.828800  0.852800  1.0
  C  C22  1  0.976000  0.304400  0.147200  1.0
  C  C23  1  0.078300  0.825400  0.768300  1.0
  C  C24  1  0.057100  0.310000  0.231700  1.0
  C  C25  1  0.031200  0.657000  0.722200  1.0
  C  C26  1  0.934800  0.309000  0.277800  1.0
  C  C27  1  0.833400  0.607500  0.603900  1.0
  C  C28  1  0.003600  0.229500  0.396100  1.0
  C  C29  1  0.797200  0.604900  0.516300  1.0
  C  C30  1  0.088600  0.280900  0.483700  1.0
  C  C31  1  0.900700  0.690600  0.486700  1.0
  C  C32  1  0.203900  0.414000  0.513300  1.0
  C  C33  1  0.856100  0.694000  0.408300  1.0
  C  C34  1  0.285700  0.447800  0.591700  1.0
  C  C35  1  0.622300  0.523300  0.389400  1.0
  C  C36  1  0.133900  0.232900  0.610600  1.0
  C  C37  1  0.655900  0.519900  0.468600  1.0
  C  C38  1  0.051300  0.187300  0.531400  1.0
  Cl  Cl39  1  0.488820  0.652770  0.793170  1.0
  Cl  Cl40  1  0.859600  0.695650  0.206830  1.0
  Cl  Cl41  1  0.198820  0.302310  0.815530  1.0
  Cl  Cl42  1  0.486780  0.383290  0.184470  1.0
  H  H43  1  0.465715  0.838847  0.588444  1.0
  H  H44  1  0.250403  0.877271  0.411556  1.0
  H  H45  1  0.327622  0.939196  0.598274  1.0
  H  H46  1  0.340922  0.729348  0.401726  1.0
  H  H47  1  0.393124  0.085935  0.522615  1.0
  H  H48  1  0.563320  0.870509  0.477385  1.0
  H  H49  1  0.564003  0.059877  0.566694  1.0
  H  H50  1  0.493183  0.997309  0.433306  1.0
  H  H51  1  0.875626  0.269826  0.707952  1.0
  H  H52  1  0.561874  0.167674  0.292048  1.0
  H  H53  1  0.682491  0.421002  0.724519  1.0
  H  H54  1  0.696483  0.957972  0.275481  1.0
  H  H55  1  0.424513  0.079983  0.777146  1.0
  H  H56  1  0.302837  0.647367  0.222854  1.0
  H  H57  1  0.614824  0.921905  0.765727  1.0
  H  H58  1  0.156178  0.849097  0.234273  1.0
  H  H59  1  0.863065  0.852566  0.862773  1.0
  H  H60  1  0.989793  0.000292  0.137227  1.0
  H  H61  1  0.892348  0.039283  0.868201  1.0
  H  H62  1  0.171082  0.024147  0.131799  1.0
  H  H63  1  0.091400  0.937229  0.955837  1.0
  H  H64  1  0.981392  0.135563  0.044163  1.0
  H  H65  1  0.156936  0.065085  0.912043  1.0
  H  H66  1  0.153042  0.244893  0.087957  1.0
  H  H67  1  0.273734  0.855581  0.862851  1.0
  H  H68  1  0.992730  0.410883  0.137149  1.0
  H  H69  1  0.128294  0.724812  0.863996  1.0
  H  H70  1  0.860816  0.264298  0.136004  1.0
  H  H71  1  0.154395  0.884212  0.745465  1.0
  H  H72  1  0.138747  0.408930  0.254535  1.0
  H  H73  1  0.121818  0.602552  0.733476  1.0
  H  H74  1  0.869076  0.388342  0.266524  1.0
  H  H75  1  0.943368  0.604581  0.739747  1.0
  H  H76  1  0.864834  0.203621  0.260253  1.0
  H  H77  1  0.000750  0.746410  0.519094  1.0
  H  H78  1  0.227316  0.481656  0.480906  1.0
  H  H79  1  0.924301  0.757907  0.387878  1.0
  H  H80  1  0.370029  0.536423  0.612122  1.0
  H  H81  1  0.526396  0.461824  0.354870  1.0
  H  H82  1  0.106954  0.171526  0.645130  1.0
  H  H83  1  0.582961  0.460536  0.488653  1.0
  H  H84  1  0.971883  0.094308  0.511347  1.0
  N  N85  1  0.536000  0.264200  0.751200  1.0
  N  N86  1  0.513000  0.784800  0.248800  1.0
  N  N87  1  0.945300  0.908700  0.774200  1.0
  N  N88  1  0.134500  0.171100  0.225800  1.0
  N  N89  1  0.719600  0.609400  0.361000  1.0
  N  N90  1  0.248400  0.358600  0.639000  1.0
  O  O91  1  0.290000  0.790000  0.500000  1
  O  O92  1  0.921100  0.963300  0.655600  1.0
  O  O93  1  0.307700  0.265500  0.344400  1.0
  O  O94  1  0.980700  0.638600  0.636500  1.0
  O  O95  1  0.002100  0.344200  0.363500  1.0
  O  O96  1  0.726100  0.584400  0.636100  1.0
  O  O97  1  0.948300  0.090000  0.363900  1.0
  Zn  Zn98  1  0.368840  0.403180  0.756660  1.0
  Zn  Zn99  1  0.646520  0.612180  0.243340  1.0
