# generated using pymatgen
data_H120Pd2C96S4N29O42
_symmetry_space_group_name_H-M   'P 1'
_cell_length_a   16.11900000
_cell_length_b   21.57200000
_cell_length_c   23.23800000
_cell_angle_alpha   89.95700000
_cell_angle_beta   78.30100000
_cell_angle_gamma   71.37700000
_symmetry_Int_Tables_number   1
_chemical_formula_structural   H120Pd2C96S4N29O42
_chemical_formula_sum   'H240 Pd4 C192 S8 N58 O84'
_cell_volume   7480.28984215
_cell_formula_units_Z   2
loop_
 _symmetry_equiv_pos_site_id
 _symmetry_equiv_pos_as_xyz
  1  'x, y, z'
loop_
 _atom_site_type_symbol
 _atom_site_label
 _atom_site_symmetry_multiplicity
 _atom_site_fract_x
 _atom_site_fract_y
 _atom_site_fract_z
 _atom_site_occupancy
  H  H1  1  0.442800  0.936500  0.485600  1
  H  H2  1  0.557200  0.063500  0.514400  1
  H  H3  1  0.377300  0.009000  0.495200  1
  H  H4  1  0.622700  0.991000  0.504800  1
  H  H5  1  0.345300  0.952700  0.475100  1
  H  H6  1  0.654700  0.047300  0.524900  1
  H  H7  1  0.562100  0.992500  0.413900  1
  H  H8  1  0.437900  0.007500  0.586100  1
  H  H9  1  0.526500  0.039600  0.366500  1
  H  H10  1  0.473500  0.960400  0.633500  1
  H  H11  1  0.482100  0.057900  0.433400  1
  H  H12  1  0.517900  0.942100  0.566600  1
  H  H13  1  0.372700  0.517000  0.050800  1
  H  H14  1  0.627300  0.483000  0.949200  1
  H  H15  1  0.281100  0.531200  0.031400  1
  H  H16  1  0.718900  0.468800  0.968600  1
  H  H17  1  0.371500  0.503700  0.984700  1
  H  H18  1  0.628500  0.496300  0.015300  1
  H  H19  1  0.491400  0.585500  0.999800  1
  H  H20  1  0.508600  0.414500  0.000200  1
  H  H21  1  0.473300  0.562500  0.940900  1
  H  H22  1  0.526700  0.437500  0.059100  1
  H  H23  1  0.462500  0.636400  0.953400  1
  H  H24  1  0.537500  0.363600  0.046600  1
  H  H25  1  0.728300  0.363100  0.749900  1
  H  H26  1  0.271700  0.636900  0.250100  1
  H  H27  1  0.689400  0.341100  0.699900  1
  H  H28  1  0.310600  0.658900  0.300100  1
  H  H29  1  0.733200  0.289800  0.741900  1
  H  H30  1  0.266800  0.710200  0.258100  1
  H  H31  1  0.935100  0.311200  0.735900  1
  H  H32  1  0.064900  0.688800  0.264100  1
  H  H33  1  0.931200  0.240200  0.727400  1
  H  H34  1  0.068800  0.759800  0.272600  1
  H  H35  1  0.991400  0.266800  0.678900  1
  H  H36  1  0.008600  0.733200  0.321100  1
  H  H37  1  0.284700  0.250800  0.664700  1
  H  H38  1  0.715300  0.749200  0.335300  1
  H  H39  1  0.185600  0.250400  0.679700  1
  H  H40  1  0.814400  0.749600  0.320300  1
  H  H41  1  0.205300  0.316300  0.667000  1
  H  H42  1  0.794700  0.683700  0.333000  1
  H  H43  1  0.325400  0.192000  0.765500  1
  H  H44  1  0.674600  0.808000  0.234500  1
  H  H45  1  0.272600  0.223800  0.828500  1
  H  H46  1  0.727400  0.776200  0.171500  1
  H  H47  1  0.229300  0.188100  0.790400  1
  H  H48  1  0.770700  0.811900  0.209600  1
  H  H49  1  0.489900  0.275000  0.146100  1
  H  H50  1  0.510100  0.725000  0.853900  1
  H  H51  1  0.458300  0.284400  0.215500  1
  H  H52  1  0.541700  0.715600  0.784500  1
  H  H53  1  0.528400  0.239100  0.270200  1
  H  H54  1  0.471600  0.760900  0.729800  1
  H  H55  1  0.633000  0.204800  0.258100  1
  H  H56  1  0.367000  0.795200  0.741900  1
  H  H57  1  0.606700  0.120000  0.203100  1
  H  H58  1  0.393300  0.880000  0.796900  1
  H  H59  1  0.578100  0.121300  0.272500  1
  H  H60  1  0.421900  0.878700  0.727500  1
  H  H61  1  0.413800  0.202700  0.175400  1
  H  H62  1  0.586200  0.797300  0.824600  1
  H  H63  1  0.515100  0.162600  0.151200  1
  H  H64  1  0.484900  0.837400  0.848800  1
  H  H65  1  0.354700  0.315000  0.123300  1
  H  H66  1  0.645300  0.685000  0.876700  1
  H  H67  1  0.356200  0.326700  0.056800  1
  H  H68  1  0.643800  0.673300  0.943200  1
  H  H69  1  0.127600  0.428700  0.158800  1
  H  H70  1  0.872400  0.571300  0.841200  1
  H  H71  1  0.196700  0.389200  0.195600  1
  H  H72  1  0.803300  0.610800  0.804400  1
  H  H73  1  0.730600  0.037100  0.357600  1
  H  H74  1  0.269400  0.962900  0.642400  1
  H  H75  1  0.677800  0.110300  0.347200  1
  H  H76  1  0.322200  0.889700  0.652800  1
  H  H77  1  0.765900  0.168400  0.276900  1
  H  H78  1  0.234100  0.831600  0.723100  1
  H  H79  1  0.866200  0.127200  0.248300  1
  H  H80  1  0.133800  0.872800  0.751700  1
  H  H81  1  0.255200  0.265100  0.056700  1
  H  H82  1  0.744800  0.734900  0.943300  1
  H  H83  1  0.336900  0.221300  0.083800  1
  H  H84  1  0.663100  0.778700  0.916200  1
  H  H85  1  0.107000  0.323600  0.187000  1
  H  H86  1  0.893000  0.676400  0.813000  1
  H  H87  1  0.122700  0.329300  0.117700  1
  H  H88  1  0.877300  0.670700  0.882300  1
  H  H89  1  0.908500  0.130000  0.334700  1
  H  H90  1  0.091500  0.870000  0.665300  1
  H  H91  1  0.853500  0.202500  0.325900  1
  H  H92  1  0.146500  0.797500  0.674100  1
  H  H93  1  0.816000  0.069000  0.407500  1
  H  H94  1  0.184000  0.931000  0.592500  1
  H  H95  1  0.717200  0.112600  0.434500  1
  H  H96  1  0.282800  0.887400  0.565500  1
  H  H97  1  0.334300  0.148900  0.392400  1.0
  H  H98  1  0.665700  0.851100  0.607600  1.0
  H  H99  1  0.201700  0.241600  0.277600  1.0
  H  H100  1  0.798300  0.758400  0.722400  1.0
  H  H101  1  0.259200  0.324100  0.283300  1.0
  H  H102  1  0.740800  0.675900  0.716700  1.0
  H  H103  1  0.347600  0.325600  0.349400  1.0
  H  H104  1  0.652400  0.674400  0.650600  1.0
  H  H105  1  0.566600  0.341100  0.431000  1.0
  H  H106  1  0.433400  0.658900  0.569000  1.0
  H  H107  1  0.684400  0.365600  0.458300  1.0
  H  H108  1  0.315600  0.634400  0.541700  1.0
  H  H109  1  0.761000  0.307300  0.523500  1.0
  H  H110  1  0.239000  0.692700  0.476500  1.0
  H  H111  1  0.604400  0.193500  0.536300  1.0
  H  H112  1  0.395600  0.806500  0.463700  1.0
  H  H113  1  0.908500  0.102700  0.703100  1.0
  H  H114  1  0.091500  0.897300  0.296900  1.0
  H  H115  1  0.956400  0.008700  0.751400  1.0
  H  H116  1  0.043600  0.991300  0.248600  1.0
  H  H117  1  0.905300  0.922200  0.735400  1.0
  H  H118  1  0.094700  0.077800  0.264600  1.0
  H  H119  1  0.759300  0.022500  0.631500  1.0
  H  H120  1  0.240700  0.977500  0.368500  1.0
  H  H121  1  0.769900  0.899800  0.547700  1.0
  H  H122  1  0.230100  0.100200  0.452300  1.0
  H  H123  1  0.974900  0.819600  0.622300  1.0
  H  H124  1  0.025100  0.180400  0.377700  1.0
  H  H125  1  0.068500  0.786900  0.529800  1.0
  H  H126  1  0.931500  0.213100  0.470200  1.0
  H  H127  1  0.011000  0.808500  0.445600  1.0
  H  H128  1  0.989000  0.191500  0.554400  1.0
  H  H129  1  0.960000  0.881800  0.268500  1.0
  H  H130  1  0.040000  0.118200  0.731500  1.0
  H  H131  1  0.966500  0.906100  0.171800  1.0
  H  H132  1  0.033500  0.093900  0.828200  1.0
  H  H133  1  0.840500  0.943500  0.135500  1.0
  H  H134  1  0.159500  0.056500  0.864500  1.0
  H  H135  1  0.693400  0.937800  0.296000  1.0
  H  H136  1  0.306600  0.062200  0.704000  1.0
  H  H137  1  0.438800  0.037400  0.097800  1.0
  H  H138  1  0.561200  0.962600  0.902200  1.0
  H  H139  1  0.288000  0.095400  0.111000  1.0
  H  H140  1  0.712000  0.904600  0.889000  1.0
  H  H141  1  0.200400  0.124300  0.204600  1.0
  H  H142  1  0.799600  0.875700  0.795400  1.0
  H  H143  1  0.411000  0.041600  0.271800  1.0
  H  H144  1  0.589000  0.958400  0.728200  1.0
  H  H145  1  0.396400  0.204800  0.448600  1.0
  H  H146  1  0.603600  0.795200  0.551400  1.0
  H  H147  1  0.482600  0.222700  0.494500  1.0
  H  H148  1  0.517400  0.777300  0.505500  1.0
  H  H149  1  0.772400  0.228300  0.590600  1.0
  H  H150  1  0.227600  0.771700  0.409400  1.0
  H  H151  1  0.831800  0.159300  0.640400  1.0
  H  H152  1  0.168200  0.840700  0.359600  1.0
  H  H153  1  0.784600  0.876700  0.449900  1.0
  H  H154  1  0.215400  0.123300  0.550100  1.0
  H  H155  1  0.761200  0.896900  0.368100  1.0
  H  H156  1  0.238800  0.103100  0.631900  1.0
  H  H157  1  0.688700  0.964800  0.146900  1.0
  H  H158  1  0.311300  0.035200  0.853100  1.0
  H  H159  1  0.560200  0.992700  0.135700  1.0
  H  H160  1  0.439800  0.007300  0.864300  1.0
  H  H161  1  0.631800  0.392400  0.146100  1.0
  H  H162  1  0.368200  0.607600  0.853900  1.0
  H  H163  1  0.779800  0.293100  0.249000  1.0
  H  H164  1  0.220200  0.706900  0.751000  1.0
  H  H165  1  0.656400  0.312300  0.323500  1.0
  H  H166  1  0.343600  0.687700  0.676500  1.0
  H  H167  1  0.517700  0.378100  0.310200  1.0
  H  H168  1  0.482300  0.621900  0.689800  1.0
  H  H169  1  0.225100  0.452700  0.305400  1.0
  H  H170  1  0.774900  0.547300  0.694600  1.0
  H  H171  1  0.069300  0.492300  0.326000  1.0
  H  H172  1  0.930700  0.507700  0.674000  1.0
  H  H173  1  0.992200  0.556900  0.263700  1.0
  H  H174  1  0.007800  0.443100  0.736300  1.0
  H  H175  1  0.223200  0.556000  0.159600  1.0
  H  H176  1  0.776800  0.444000  0.840400  1.0
  H  H177  1  0.875600  0.758100  0.070200  1.0
  H  H178  1  0.124400  0.241900  0.929800  1.0
  H  H179  1  0.864500  0.803400  0.981800  1.0
  H  H180  1  0.135500  0.196600  0.018200  1.0
  H  H181  1  0.988200  0.774100  0.904300  1.0
  H  H182  1  0.011800  0.225900  0.095700  1.0
  H  H183  1  0.125200  0.650700  0.002300  1.0
  H  H184  1  0.874800  0.349300  0.997700  1.0
  H  H185  1  0.266400  0.547200  0.899600  1.0
  H  H186  1  0.733600  0.452800  0.100400  1.0
  H  H187  1  0.056900  0.622800  0.831300  1.0
  H  H188  1  0.943100  0.377200  0.168700  1.0
  H  H189  1  0.051100  0.519500  0.812200  1.0
  H  H190  1  0.948900  0.480500  0.187800  1.0
  H  H191  1  0.156300  0.427300  0.837100  1.0
  H  H192  1  0.843700  0.572700  0.162900  1.0
  H  H193  1  0.289600  0.237500  0.915600  1.0
  H  H194  1  0.710400  0.762500  0.084400  1.0
  H  H195  1  0.333100  0.135200  0.952600  1.0
  H  H196  1  0.666900  0.864800  0.047400  1.0
  H  H197  1  0.460300  0.097100  0.986300  1.0
  H  H198  1  0.539700  0.902900  0.013700  1.0
  H  H199  1  0.496400  0.271800  0.963600  1.0
  H  H200  1  0.503600  0.728200  0.036400  1.0
  H  H201  1  0.787200  0.064600  0.101400  1.0
  H  H202  1  0.212800  0.935400  0.898600  1.0
  H  H203  1  0.878300  0.082400  0.159000  1.0
  H  H204  1  0.121700  0.917600  0.841000  1.0
  H  H205  1  0.896100  0.184100  0.162500  1.0
  H  H206  1  0.103900  0.815900  0.837500  1.0
  H  H207  1  0.722600  0.250900  0.061200  1.0
  H  H208  1  0.277400  0.749100  0.938800  1.0
  H  H209  1  0.488000  0.462600  0.185400  1.0
  H  H210  1  0.512000  0.537400  0.814600  1.0
  H  H211  1  0.354700  0.509200  0.190600  1.0
  H  H212  1  0.645300  0.490800  0.809400  1.0
  H  H213  1  0.990900  0.623700  0.187900  1.0
  H  H214  1  0.009100  0.376300  0.812100  1.0
  H  H215  1  0.949200  0.680900  0.122700  1.0
  H  H216  1  0.050800  0.319100  0.877300  1.0
  H  H217  1  0.341100  0.434900  0.885400  1.0
  H  H218  1  0.658900  0.565100  0.114600  1.0
  H  H219  1  0.403400  0.350300  0.920900  1.0
  H  H220  1  0.596600  0.649700  0.079100  1.0
  H  H221  1  0.589700  0.111800  0.001200  1.0
  H  H222  1  0.410300  0.888200  0.998800  1.0
  H  H223  1  0.692500  0.102100  0.039500  1.0
  H  H224  1  0.307500  0.897900  0.960500  1.0
  H  H225  1  0.943100  0.938900  0.528600  1.0
  H  H226  1  0.056900  0.061100  0.471400  1.0
  H  H227  1  0.884800  0.998300  0.573800  1.0
  H  H228  1  0.115200  0.001700  0.426200  1.0
  H  H229  1  0.999900  0.969200  0.424600  1.0
  H  H230  1  0.000100  0.030800  0.575400  1.0
  H  H231  1  0.970200  0.044500  0.415600  1.0
  H  H232  1  0.029800  0.955500  0.584400  1.0
  H  H233  1  0.078600  0.526300  0.944700  1.0
  H  H234  1  0.921400  0.473700  0.055300  1.0
  H  H235  1  0.070100  0.578600  0.994500  1.0
  H  H236  1  0.929900  0.421400  0.005500  1.0
  H  H237  1  0.075500  0.414700  0.968800  1.0
  H  H238  1  0.924500  0.585300  0.031200  1.0
  H  H239  1  0.063800  0.401700  0.036200  1.0
  H  H240  1  0.936200  0.598300  0.963800  1.0
  Pd  Pd241  1  0.217550  0.110510  0.326690  1.0
  Pd  Pd242  1  0.782450  0.889490  0.673310  1.0
  Pd  Pd243  1  0.824810  0.315930  0.121760  1.0
  Pd  Pd244  1  0.175190  0.684070  0.878240  1.0
  C  C245  1  0.395400  0.968300  0.471800  1
  C  C246  1  0.604600  0.031700  0.528200  1
  C  C247  1  0.509700  0.022500  0.403600  1
  C  C248  1  0.490300  0.977500  0.596400  1
  C  C249  1  0.341400  0.532000  0.019800  1
  C  C250  1  0.658600  0.468000  0.980200  1
  C  C251  1  0.455100  0.597600  0.970900  1
  C  C252  1  0.544900  0.402400  0.029100  1
  C  C253  1  0.736000  0.328100  0.721700  1
  C  C254  1  0.264000  0.671900  0.278300  1
  C  C255  1  0.936100  0.278300  0.707700  1
  C  C256  1  0.063900  0.721700  0.292300  1
  C  C257  1  0.224400  0.275000  0.684200  1
  C  C258  1  0.775600  0.725000  0.315800  1
  C  C259  1  0.267100  0.214800  0.789200  1
  C  C260  1  0.732900  0.785200  0.210800  1
  C  C261  1  0.495800  0.253900  0.182600  1
  C  C262  1  0.504200  0.746100  0.817400  1
  C  C263  1  0.579500  0.208900  0.243400  1
  C  C264  1  0.420500  0.791100  0.756600  1
  C  C265  1  0.567500  0.145800  0.238200  1
  C  C266  1  0.432500  0.854200  0.761800  1
  C  C267  1  0.473500  0.193100  0.182900  1
  C  C268  1  0.526500  0.806900  0.817100  1
  C  C269  1  0.318200  0.323100  0.093900  1
  C  C270  1  0.681800  0.676900  0.906100  1
  C  C271  1  0.177200  0.388800  0.158800  1
  C  C272  1  0.822800  0.611200  0.841200  1
  C  C273  1  0.735300  0.080500  0.351700  1
  C  C274  1  0.264700  0.919500  0.648300  1
  C  C275  1  0.820000  0.136200  0.284100  1
  C  C276  1  0.180000  0.863800  0.715900  1
  C  C277  1  0.289000  0.262900  0.087200  1
  C  C278  1  0.711000  0.737100  0.912800  1
  C  C279  1  0.148300  0.328800  0.152100  1
  C  C280  1  0.851700  0.671200  0.847900  1
  C  C281  1  0.849300  0.159200  0.332800  1
  C  C282  1  0.150700  0.840800  0.667200  1
  C  C283  1  0.765000  0.103500  0.399500  1
  C  C284  1  0.235000  0.896500  0.600500  1
  C  C285  1  0.317100  0.185800  0.371400  1.0
  C  C286  1  0.682900  0.814200  0.628600  1.0
  C  C287  1  0.240100  0.239400  0.303000  1.0
  C  C288  1  0.759900  0.760600  0.697000  1.0
  C  C289  1  0.273400  0.289400  0.307300  1.0
  C  C290  1  0.726600  0.710600  0.692700  1.0
  C  C291  1  0.327000  0.290400  0.345800  1.0
  C  C292  1  0.673000  0.709600  0.654200  1.0
  C  C293  1  0.349500  0.236600  0.379000  1.0
  C  C294  1  0.650500  0.763400  0.621000  1.0
  C  C295  1  0.465600  0.259000  0.421300  1.0
  C  C296  1  0.534400  0.741000  0.578700  1.0
  C  C297  1  0.575700  0.263700  0.481600  1.0
  C  C298  1  0.424300  0.736300  0.518400  1.0
  C  C299  1  0.597500  0.316300  0.457400  1.0
  C  C300  1  0.402500  0.683700  0.542600  1.0
  C  C301  1  0.668300  0.330500  0.474400  1.0
  C  C302  1  0.331700  0.669500  0.525600  1.0
  C  C303  1  0.714700  0.295900  0.513100  1.0
  C  C304  1  0.285300  0.704100  0.486900  1.0
  C  C305  1  0.691700  0.243500  0.536500  1.0
  C  C306  1  0.308300  0.756500  0.463500  1.0
  C  C307  1  0.620700  0.228400  0.520200  1.0
  C  C308  1  0.379300  0.771600  0.479800  1.0
  C  C309  1  0.747000  0.150300  0.596600  1.0
  C  C310  1  0.253000  0.849700  0.403400  1.0
  C  C311  1  0.830900  0.072300  0.661500  1.0
  C  C312  1  0.169100  0.927700  0.338500  1.0
  C  C313  1  0.888400  0.067600  0.697700  1.0
  C  C314  1  0.111600  0.932400  0.302300  1.0
  C  C315  1  0.917100  0.012100  0.726400  1.0
  C  C316  1  0.082900  0.987900  0.273600  1.0
  C  C317  1  0.885700  0.960900  0.717100  1.0
  C  C318  1  0.114300  0.039100  0.282900  1.0
  C  C319  1  0.800100  0.019500  0.655300  1.0
  C  C320  1  0.199900  0.980500  0.344700  1.0
  C  C321  1  0.830500  0.876600  0.543700  1.0
  C  C322  1  0.169500  0.123400  0.456300  1.0
  C  C323  1  0.951400  0.829400  0.588800  1.0
  C  C324  1  0.048600  0.170600  0.411200  1.0
  C  C325  1  0.007800  0.809300  0.532900  1.0
  C  C326  1  0.992200  0.190700  0.467100  1.0
  C  C327  1  0.974100  0.822600  0.482600  1.0
  C  C328  1  0.025900  0.177400  0.517400  1.0
  C  C329  1  0.883800  0.857300  0.488600  1.0
  C  C330  1  0.116200  0.142700  0.511400  1.0
  C  C331  1  0.877100  0.878100  0.385400  1.0
  C  C332  1  0.122900  0.121900  0.614600  1.0
  C  C333  1  0.825000  0.906900  0.290700  1.0
  C  C334  1  0.175000  0.093100  0.709300  1.0
  C  C335  1  0.907800  0.897500  0.254200  1.0
  C  C336  1  0.092200  0.102500  0.745800  1.0
  C  C337  1  0.911200  0.911700  0.196600  1.0
  C  C338  1  0.088800  0.088300  0.803400  1.0
  C  C339  1  0.835900  0.933800  0.174800  1.0
  C  C340  1  0.164100  0.066200  0.825200  1.0
  C  C341  1  0.751700  0.942200  0.210200  1.0
  C  C342  1  0.248300  0.057800  0.789800  1.0
  C  C343  1  0.748500  0.930000  0.270200  1.0
  C  C344  1  0.251500  0.070000  0.729800  1.0
  C  C345  1  0.588700  0.986000  0.211600  1.0
  C  C346  1  0.411300  0.014000  0.788400  1.0
  C  C347  1  0.442000  0.036300  0.182900  1.0
  C  C348  1  0.558000  0.963700  0.817100  1.0
  C  C349  1  0.404000  0.050500  0.135600  1.0
  C  C350  1  0.596000  0.949500  0.864400  1.0
  C  C351  1  0.313700  0.084200  0.143500  1.0
  C  C352  1  0.686300  0.915800  0.856500  1.0
  C  C353  1  0.261300  0.101400  0.199400  1.0
  C  C354  1  0.738700  0.898600  0.800600  1.0
  C  C355  1  0.386400  0.053000  0.238800  1.0
  C  C356  1  0.613600  0.947000  0.761200  1.0
  C  C357  1  0.636500  0.376600  0.183000  1.0
  C  C358  1  0.363500  0.623400  0.817000  1.0
  C  C359  1  0.724000  0.317600  0.242300  1.0
  C  C360  1  0.276000  0.682400  0.757700  1.0
  C  C361  1  0.650500  0.330000  0.287400  1.0
  C  C362  1  0.349500  0.670000  0.712600  1.0
  C  C363  1  0.567900  0.368700  0.279500  1.0
  C  C364  1  0.432100  0.631300  0.720500  1.0
  C  C365  1  0.561300  0.392800  0.225800  1.0
  C  C366  1  0.438700  0.607200  0.774200  1.0
  C  C367  1  0.393900  0.439500  0.238100  1.0
  C  C368  1  0.606100  0.560500  0.761900  1.0
  C  C369  1  0.240000  0.504400  0.231400  1.0
  C  C370  1  0.760000  0.495600  0.768600  1.0
  C  C371  1  0.194200  0.481600  0.281300  1.0
  C  C372  1  0.805800  0.518400  0.718700  1.0
  C  C373  1  0.101100  0.504500  0.292400  1.0
  C  C374  1  0.898900  0.495500  0.707600  1.0
  C  C375  1  0.054500  0.544200  0.255700  1.0
  C  C376  1  0.945500  0.455800  0.744300  1.0
  C  C377  1  0.100700  0.566100  0.205900  1.0
  C  C378  1  0.899300  0.433900  0.794100  1.0
  C  C379  1  0.192100  0.544200  0.193700  1.0
  C  C380  1  0.807900  0.455800  0.806300  1.0
  C  C381  1  0.070800  0.628100  0.119400  1.0
  C  C382  1  0.929200  0.371900  0.880600  1.0
  C  C383  1  0.999700  0.698100  0.044900  1.0
  C  C384  1  0.000300  0.301900  0.955100  1.0
  C  C385  1  0.924300  0.744600  0.038500  1.0
  C  C386  1  0.075700  0.255400  0.961500  1.0
  C  C387  1  0.918000  0.772500  0.986200  1.0
  C  C388  1  0.082000  0.227500  0.013800  1.0
  C  C389  1  0.991600  0.754700  0.939800  1.0
  C  C390  1  0.008400  0.245300  0.060200  1.0
  C  C391  1  0.072000  0.681800  0.997900  1.0
  C  C392  1  0.928000  0.318200  0.002100  1.0
  C  C393  1  0.223000  0.541400  0.881200  1.0
  C  C394  1  0.777000  0.458600  0.118800  1.0
  C  C395  1  0.099800  0.586300  0.841000  1.0
  C  C396  1  0.900200  0.413700  0.159000  1.0
  C  C397  1  0.095900  0.524100  0.829900  1.0
  C  C398  1  0.904100  0.475900  0.170100  1.0
  C  C399  1  0.157700  0.469200  0.844700  1.0
  C  C400  1  0.842300  0.530800  0.155300  1.0
  C  C401  1  0.222700  0.479400  0.871700  1.0
  C  C402  1  0.777300  0.520600  0.128300  1.0
  C  C403  1  0.290300  0.365200  0.902000  1.0
  C  C404  1  0.709700  0.634800  0.098000  1.0
  C  C405  1  0.388200  0.265100  0.935700  1.0
  C  C406  1  0.611800  0.734900  0.064300  1.0
  C  C407  1  0.340100  0.224300  0.931900  1.0
  C  C408  1  0.659900  0.775700  0.068100  1.0
  C  C409  1  0.368000  0.162100  0.953100  1.0
  C  C410  1  0.632000  0.837900  0.046900  1.0
  C  C411  1  0.442800  0.139500  0.974100  1.0
  C  C412  1  0.557200  0.860500  0.025900  1.0
  C  C413  1  0.494500  0.180100  0.977400  1.0
  C  C414  1  0.505500  0.819900  0.022600  1.0
  C  C415  1  0.464800  0.243300  0.959600  1.0
  C  C416  1  0.535200  0.756700  0.040400  1.0
  C  C417  1  0.617500  0.185800  0.022800  1.0
  C  C418  1  0.382500  0.814200  0.977200  1.0
  C  C419  1  0.742100  0.156300  0.076200  1.0
  C  C420  1  0.257900  0.843700  0.923800  1.0
  C  C421  1  0.791900  0.106200  0.105000  1.0
  C  C422  1  0.208100  0.893800  0.895000  1.0
  C  C423  1  0.847600  0.116000  0.138400  1.0
  C  C424  1  0.152400  0.884000  0.861600  1.0
  C  C425  1  0.857000  0.176900  0.140800  1.0
  C  C426  1  0.143000  0.823100  0.859200  1.0
  C  C427  1  0.754200  0.216500  0.080600  1.0
  C  C428  1  0.245800  0.783500  0.919400  1.0
  C  C429  1  0.934500  0.984200  0.540000  1.0
  C  C430  1  0.065500  0.015800  0.460000  1.0
  C  C431  1  0.987100  0.012100  0.443800  1.0
  C  C432  1  0.012900  0.987900  0.556200  1.0
  C  C433  1  0.050200  0.542600  0.985200  1.0
  C  C434  1  0.949800  0.457400  0.014800  1.0
  C  C435  1  0.046400  0.434300  0.008300  1.0
  C  C436  1  0.953600  0.565700  0.991700  1.0
  S  S437  1  0.433330  0.980870  0.397850  1
  S  S438  1  0.566670  0.019130  0.602150  1
  S  S439  1  0.339610  0.613460  0.005610  1
  S  S440  1  0.660390  0.386540  0.994390  1
  S  S441  1  0.843600  0.310000  0.671700  1
  S  S442  1  0.156400  0.690000  0.328300  1
  S  S443  1  0.219900  0.288700  0.758600  1
  S  S444  1  0.780100  0.711300  0.241400  1
  N  N445  1  0.480100  0.572900  0.125800  1
  N  N446  1  0.519900  0.427100  0.874200  1
  N  N447  1  0.628900  0.848700  0.444200  1
  N  N448  1  0.371100  0.151300  0.555800  1
  N  N449  1  0.983100  0.785400  0.774400  1
  N  N450  1  0.016900  0.214600  0.225600  1
  N  N451  1  0.685000  0.984400  0.027600  1
  N  N452  1  0.315000  0.015600  0.972400  1
  N  N453  1  0.684100  0.980200  0.017500  1
  N  N454  1  0.315900  0.019800  0.982500  1
  N  N455  1  0.261800  0.187300  0.334800  1.0
  N  N456  1  0.738200  0.812700  0.665200  1.0
  N  N457  1  0.403800  0.230000  0.420700  1.0
  N  N458  1  0.596200  0.770000  0.579300  1.0
  N  N459  1  0.504400  0.245300  0.469000  1.0
  N  N460  1  0.495600  0.754700  0.531000  1.0
  N  N461  1  0.741200  0.208500  0.576800  1.0
  N  N462  1  0.258800  0.791500  0.423200  1.0
  N  N463  1  0.806400  0.131400  0.633500  1.0
  N  N464  1  0.193600  0.868600  0.366500  1.0
  N  N465  1  0.827500  0.966500  0.682100  1.0
  N  N466  1  0.172500  0.033500  0.317900  1.0
  N  N467  1  0.866000  0.861800  0.594200  1.0
  N  N468  1  0.134000  0.138200  0.405800  1.0
  N  N469  1  0.841000  0.871500  0.442000  1.0
  N  N470  1  0.159000  0.128500  0.558000  1.0
  N  N471  1  0.814700  0.894200  0.350500  1.0
  N  N472  1  0.185300  0.105800  0.649500  1.0
  N  N473  1  0.677300  0.964500  0.184700  1.0
  N  N474  1  0.322700  0.035500  0.815300  1.0
  N  N475  1  0.534100  0.003400  0.172100  1.0
  N  N476  1  0.465900  0.996600  0.827900  1.0
  N  N477  1  0.297800  0.085400  0.246100  1.0
  N  N478  1  0.702200  0.914600  0.753900  1.0
  N  N479  1  0.718200  0.339100  0.190000  1.0
  N  N480  1  0.281800  0.660900  0.810000  1.0
  N  N481  1  0.481600  0.436000  0.212200  1.0
  N  N482  1  0.518400  0.564000  0.787800  1.0
  N  N483  1  0.333333  0.486800  0.216700  1.0
  N  N484  1  0.666667  0.513200  0.783300  1.0
  N  N485  1  0.047100  0.608400  0.172000  1.0
  N  N486  1  0.952900  0.391600  0.828000  1.0
  N  N487  1  0.000400  0.670300  0.098600  1.0
  N  N488  1  0.999600  0.329700  0.901400  1.0
  N  N489  1  0.068900  0.708900  0.946200  1.0
  N  N490  1  0.931100  0.291100  0.053800  1.0
  N  N491  1  0.164000  0.594700  0.865500  1.0
  N  N492  1  0.836000  0.405300  0.134500  1.0
  N  N493  1  0.291500  0.427500  0.886200  1.0
  N  N494  1  0.708500  0.572500  0.113800  1.0
  N  N495  1  0.365200  0.330500  0.919500  1.0
  N  N496  1  0.634800  0.669500  0.080500  1.0
  N  N497  1  0.570500  0.153800  0.000800  1.0
  N  N498  1  0.429500  0.846200  0.999200  1.0
  N  N499  1  0.685200  0.143100  0.045500  1.0
  N  N500  1  0.314800  0.856900  0.954500  1.0
  N  N501  1  0.811000  0.226800  0.112500  1.0
  N  N502  1  0.189000  0.773200  0.887500  1.0
  O  O503  1  0.546900  0.528200  0.132800  1
  O  O504  1  0.453100  0.471800  0.867200  1
  O  O505  1  0.400500  0.577200  0.150700  1
  O  O506  1  0.599500  0.422800  0.849300  1
  O  O507  1  0.489600  0.618000  0.092700  1
  O  O508  1  0.510400  0.382000  0.907300  1
  O  O509  1  0.657700  0.853000  0.487700  1
  O  O510  1  0.342300  0.147000  0.512300  1
  O  O511  1  0.643600  0.884400  0.401600  1
  O  O512  1  0.356400  0.115600  0.598400  1
  O  O513  1  0.593700  0.804600  0.435900  1
  O  O514  1  0.406300  0.195400  0.564100  1
  O  O515  1  0.954000  0.796000  0.727500  1
  O  O516  1  0.046000  0.204000  0.272500  1
  O  O517  1  0.057100  0.741900  0.774100  1
  O  O518  1  0.942900  0.258100  0.225900  1
  O  O519  1  0.945600  0.825800  0.819700  1
  O  O520  1  0.054400  0.174200  0.180300  1
  O  O521  1  0.703600  0.986000  0.971800  1
  O  O522  1  0.296400  0.014000  0.028200  1
  O  O523  1  0.742200  0.947800  0.053400  1
  O  O524  1  0.257800  0.052200  0.946600  1
  O  O525  1  0.608100  0.021200  0.052500  1
  O  O526  1  0.391900  0.978800  0.947500  1
  O  O527  1  0.353700  0.031200  0.381600  1
  O  O528  1  0.646300  0.968800  0.618400  1
  O  O529  1  0.289900  0.631700  0.957100  1
  O  O530  1  0.710100  0.368300  0.042900  1
  O  O531  1  0.851700  0.255100  0.628900  1
  O  O532  1  0.148300  0.744900  0.371100  1
  O  O533  1  0.132500  0.324700  0.792500  1
  O  O534  1  0.867500  0.675300  0.207500  1
  O  O535  1  0.587100  0.230700  0.188200  1
  O  O536  1  0.412900  0.769300  0.811800  1
  O  O537  1  0.476700  0.164300  0.234300  1
  O  O538  1  0.523300  0.835700  0.765700  1
  O  O539  1  0.412700  0.552800  0.127500  1
  O  O540  1  0.587300  0.447200  0.872500  1
  O  O541  1  0.484000  0.630000  0.124300  1
  O  O542  1  0.516000  0.370000  0.875700  1
  O  O543  1  0.668000  0.852400  0.391900  1
  O  O544  1  0.332000  0.147600  0.608100  1
  O  O545  1  0.553300  0.838000  0.457400  1
  O  O546  1  0.446700  0.162000  0.542600  1
  O  O547  1  0.936900  0.781000  0.737900  1
  O  O548  1  0.063100  0.219000  0.262100  1
  O  O549  1  0.033000  0.736000  0.792900  1
  O  O550  1  0.967000  0.264000  0.207100  1
  O  O551  1  0.962600  0.841000  0.803700  1
  O  O552  1  0.037400  0.159000  0.196300  1
  O  O553  1  0.625100  0.006000  0.987300  1
  O  O554  1  0.374900  0.994000  0.012700  1
  O  O555  1  0.747600  0.927200  0.996300  1
  O  O556  1  0.252400  0.072800  0.003700  1
  O  O557  1  0.678300  0.007600  0.067600  1
  O  O558  1  0.321700  0.992400  0.932400  1
  O  O559  1  0.249500  0.384600  0.110000  1
  O  O560  1  0.750500  0.615400  0.890000  1
  O  O561  1  0.803700  0.079200  0.302500  1
  O  O562  1  0.196300  0.920800  0.697500  1
  O  O563  1  0.234700  0.281100  0.145000  1
  O  O564  1  0.765300  0.718900  0.855000  1
  O  O565  1  0.789200  0.161700  0.387400  1
  O  O566  1  0.210800  0.838300  0.612600  1
  O  O567  1  0.487200  0.292800  0.382700  1.0
  O  O568  1  0.512800  0.707200  0.617300  1.0
  O  O569  1  0.708300  0.113600  0.582000  1.0
  O  O570  1  0.291700  0.886400  0.418000  1.0
  O  O571  1  0.954800  0.873000  0.368500  1.0
  O  O572  1  0.045200  0.127000  0.631500  1.0
  O  O573  1  0.559900  0.988900  0.264800  1.0
  O  O574  1  0.440100  0.011100  0.735200  1.0
  O  O575  1  0.378100  0.403100  0.274400  1.0
  O  O576  1  0.621900  0.596900  0.725600  1.0
  O  O577  1  0.148700  0.611000  0.088900  1.0
  O  O578  1  0.851300  0.389000  0.911100  1.0
  O  O579  1  0.225800  0.348400  0.901700  1.0
  O  O580  1  0.774200  0.651600  0.098300  1.0
  O  O581  1  0.606800  0.243100  0.021200  1.0
  O  O582  1  0.393200  0.756900  0.978800  1.0
  O  O583  1  0.913000  0.023100  0.493400  1.0
  O  O584  1  0.087000  0.976900  0.506600  1.0
  O  O585  1  0.073700  0.495500  0.020500  1.0
  O  O586  1  0.926300  0.504500  0.979500  1.0
