# generated using pymatgen
data_H58PdC46S3N14O15
_symmetry_space_group_name_H-M   'P 1'
_cell_length_a   14.31600000
_cell_length_b   16.05300000
_cell_length_c   34.25600000
_cell_angle_alpha   90.00000000
_cell_angle_beta   90.00000000
_cell_angle_gamma   90.00000000
_symmetry_Int_Tables_number   1
_chemical_formula_structural   H58PdC46S3N14O15
_chemical_formula_sum   'H232 Pd4 C184 S12 N56 O60'
_cell_volume   7872.53400749
_cell_formula_units_Z   4
loop_
 _symmetry_equiv_pos_site_id
 _symmetry_equiv_pos_as_xyz
  1  'x, y, z'
loop_
 _atom_site_type_symbol
 _atom_site_label
 _atom_site_symmetry_multiplicity
 _atom_site_fract_x
 _atom_site_fract_y
 _atom_site_fract_z
 _atom_site_occupancy
  H  H1  1  0.236200  0.054400  0.395100  1
  H  H2  1  0.236200  0.945600  0.604900  1
  H  H3  1  0.763800  0.554400  0.104900  1
  H  H4  1  0.763800  0.445600  0.895100  1
  H  H5  1  0.248700  0.986400  0.362600  1
  H  H6  1  0.248700  0.013600  0.637400  1
  H  H7  1  0.751300  0.486400  0.137400  1
  H  H8  1  0.751300  0.513600  0.862600  1
  H  H9  1  0.289900  0.076000  0.356500  1
  H  H10  1  0.289900  0.924000  0.643500  1
  H  H11  1  0.710100  0.576000  0.143500  1
  H  H12  1  0.710100  0.424000  0.856500  1
  H  H13  1  0.073300  0.984200  0.386800  1
  H  H14  1  0.073300  0.015800  0.613200  1
  H  H15  1  0.926700  0.484200  0.113200  1
  H  H16  1  0.926700  0.515800  0.886800  1
  H  H17  1  0.020600  0.983900  0.346600  1
  H  H18  1  0.020600  0.016100  0.653400  1
  H  H19  1  0.979400  0.483900  0.153400  1
  H  H20  1  0.979400  0.516100  0.846600  1
  H  H21  1  0.117600  0.939200  0.350600  1
  H  H22  1  0.117600  0.060800  0.649400  1
  H  H23  1  0.882400  0.439200  0.149400  1
  H  H24  1  0.882400  0.560800  0.850600  1
  H  H25  1  0.130500  0.097600  0.024500  1
  H  H26  1  0.130500  0.902400  0.975500  1
  H  H27  1  0.869500  0.597600  0.475500  1
  H  H28  1  0.869500  0.402400  0.524500  1
  H  H29  1  0.152500  0.152200  0.061300  1
  H  H30  1  0.152500  0.847800  0.938700  1
  H  H31  1  0.847500  0.652200  0.438700  1
  H  H32  1  0.847500  0.347800  0.561300  1
  H  H33  1  0.220600  0.080300  0.049200  1
  H  H34  1  0.220600  0.919700  0.950800  1
  H  H35  1  0.779400  0.580300  0.450800  1
  H  H36  1  0.779400  0.419700  0.549200  1
  H  H37  1  0.126000  0.932300  0.031500  1
  H  H38  1  0.126000  0.067700  0.968500  1
  H  H39  1  0.874000  0.432300  0.468500  1
  H  H40  1  0.874000  0.567700  0.531500  1
  H  H41  1  0.213900  0.943900  0.058300  1
  H  H42  1  0.213900  0.056100  0.941700  1
  H  H43  1  0.786100  0.443900  0.441700  1
  H  H44  1  0.786100  0.556100  0.558300  1
  H  H45  1  0.128600  0.891400  0.073100  1
  H  H46  1  0.128600  0.108600  0.926900  1
  H  H47  1  0.871400  0.391400  0.426900  1
  H  H48  1  0.871400  0.608600  0.573100  1
  H  H49  1  0.256600  0.340300  0.783300  1
  H  H50  1  0.256600  0.659700  0.216700  1
  H  H51  1  0.743400  0.840300  0.716700  1
  H  H52  1  0.743400  0.159700  0.283300  1
  H  H53  1  0.282300  0.343300  0.828500  1
  H  H54  1  0.282300  0.656700  0.171500  1
  H  H55  1  0.717700  0.843300  0.671500  1
  H  H56  1  0.717700  0.156700  0.328500  1
  H  H57  1  0.159100  0.444800  0.808800  1
  H  H58  1  0.159100  0.555200  0.191200  1
  H  H59  1  0.840900  0.944800  0.691200  1
  H  H60  1  0.840900  0.055200  0.308800  1
  H  H61  1  0.094900  0.367500  0.801600  1
  H  H62  1  0.094900  0.632500  0.198400  1
  H  H63  1  0.905100  0.867500  0.698400  1
  H  H64  1  0.905100  0.132500  0.301600  1
  H  H65  1  0.032700  0.293000  0.860000  1
  H  H66  1  0.032700  0.707000  0.140000  1
  H  H67  1  0.967300  0.793000  0.640000  1
  H  H68  1  0.967300  0.207000  0.360000  1
  H  H69  1  0.090800  0.306500  0.898100  1
  H  H70  1  0.090800  0.693500  0.101900  1
  H  H71  1  0.909200  0.806500  0.601900  1
  H  H72  1  0.909200  0.193500  0.398100  1
  H  H73  1  0.221600  0.245800  0.871400  1
  H  H74  1  0.221600  0.754200  0.128600  1
  H  H75  1  0.778400  0.745800  0.628600  1
  H  H76  1  0.778400  0.254200  0.371400  1
  H  H77  1  0.138800  0.186400  0.859600  1
  H  H78  1  0.138800  0.813600  0.140400  1
  H  H79  1  0.861200  0.686400  0.640400  1
  H  H80  1  0.861200  0.313600  0.359600  1
  H  H81  1  0.265100  0.028100  0.062300  1
  H  H82  1  0.265100  0.971900  0.937700  1
  H  H83  1  0.734900  0.528100  0.437700  1
  H  H84  1  0.734900  0.471900  0.562300  1
  H  H85  1  0.189700  0.042900  0.029800  1
  H  H86  1  0.189700  0.957100  0.970200  1
  H  H87  1  0.810300  0.542900  0.470200  1
  H  H88  1  0.810300  0.457100  0.529800  1
  H  H89  1  0.233100  0.954100  0.035600  1
  H  H90  1  0.233100  0.045900  0.964400  1
  H  H91  1  0.766900  0.454100  0.464400  1
  H  H92  1  0.766900  0.545900  0.535600  1
  H  H93  1  0.980700  0.023700  0.074900  1
  H  H94  1  0.980700  0.976300  0.925100  1
  H  H95  1  0.019300  0.523700  0.425100  1
  H  H96  1  0.019300  0.476300  0.574900  1
  H  H97  1  0.008000  0.965100  0.040100  1
  H  H98  1  0.008000  0.034900  0.959900  1
  H  H99  1  0.992000  0.465100  0.459900  1
  H  H100  1  0.992000  0.534900  0.540100  1
  H  H101  1  0.042200  0.057800  0.040600  1
  H  H102  1  0.042200  0.942200  0.959400  1
  H  H103  1  0.957800  0.557800  0.459400  1
  H  H104  1  0.957800  0.442200  0.540600  1
  H  H105  1  0.051400  0.168700  0.261100  1.0
  H  H106  1  0.051400  0.831300  0.738900  1.0
  H  H107  1  0.948600  0.668700  0.238900  1.0
  H  H108  1  0.948600  0.331300  0.761100  1.0
  H  H109  1  0.921100  0.246900  0.262000  1.0
  H  H110  1  0.921100  0.753100  0.738000  1.0
  H  H111  1  0.078900  0.746900  0.238000  1.0
  H  H112  1  0.078900  0.253100  0.762000  1.0
  H  H113  1  0.862500  0.294600  0.201000  1.0
  H  H114  1  0.862500  0.705400  0.799000  1.0
  H  H115  1  0.137500  0.794600  0.299000  1.0
  H  H116  1  0.137500  0.205400  0.701000  1.0
  H  H117  1  0.017400  0.128600  0.149200  1.0
  H  H118  1  0.017400  0.871400  0.850800  1.0
  H  H119  1  0.982600  0.628600  0.350800  1.0
  H  H120  1  0.982600  0.371400  0.649200  1.0
  H  H121  1  0.724400  0.265300  0.020500  1.0
  H  H122  1  0.724400  0.734700  0.979500  1.0
  H  H123  1  0.275600  0.765300  0.479500  1.0
  H  H124  1  0.275600  0.234700  0.520500  1.0
  H  H125  1  0.712300  0.231400  0.957900  1.0
  H  H126  1  0.712300  0.768600  0.042100  1.0
  H  H127  1  0.287700  0.731400  0.542100  1.0
  H  H128  1  0.287700  0.268600  0.457900  1.0
  H  H129  1  0.988000  0.190800  0.957300  1.0
  H  H130  1  0.988000  0.809200  0.042700  1.0
  H  H131  1  0.012000  0.690800  0.542700  1.0
  H  H132  1  0.012000  0.309200  0.457300  1.0
  H  H133  1  0.993000  0.222800  0.022200  1.0
  H  H134  1  0.993000  0.777200  0.977800  1.0
  H  H135  1  0.007000  0.722800  0.477800  1.0
  H  H136  1  0.007000  0.277200  0.522200  1.0
  H  H137  1  0.826500  0.168300  0.775500  1.0
  H  H138  1  0.826500  0.831700  0.224500  1.0
  H  H139  1  0.173500  0.668300  0.724500  1.0
  H  H140  1  0.173500  0.331700  0.275500  1.0
  H  H141  1  0.899400  0.108000  0.723000  1.0
  H  H142  1  0.899400  0.892000  0.277000  1.0
  H  H143  1  0.100600  0.608000  0.777000  1.0
  H  H144  1  0.100600  0.392000  0.223000  1.0
  H  H145  1  0.018900  0.019600  0.730500  1.0
  H  H146  1  0.018900  0.980400  0.269500  1.0
  H  H147  1  0.981100  0.519600  0.769500  1.0
  H  H148  1  0.981100  0.480400  0.230500  1.0
  H  H149  1  0.028600  0.071400  0.842800  1.0
  H  H150  1  0.028600  0.928600  0.157200  1.0
  H  H151  1  0.971400  0.571400  0.657200  1.0
  H  H152  1  0.971400  0.428600  0.342800  1.0
  H  H153  1  0.273400  0.948900  0.154100  1.0
  H  H154  1  0.273400  0.051100  0.845900  1.0
  H  H155  1  0.726600  0.448900  0.345900  1.0
  H  H156  1  0.726600  0.551100  0.654100  1.0
  H  H157  1  0.223600  0.936900  0.267900  1.0
  H  H158  1  0.223600  0.063100  0.732100  1.0
  H  H159  1  0.776400  0.436900  0.232100  1.0
  H  H160  1  0.776400  0.563100  0.767900  1.0
  H  H161  1  0.343000  0.847100  0.276400  1.0
  H  H162  1  0.343000  0.152900  0.723600  1.0
  H  H163  1  0.657000  0.347100  0.223600  1.0
  H  H164  1  0.657000  0.652900  0.776400  1.0
  H  H165  1  0.423700  0.796800  0.221200  1.0
  H  H166  1  0.423700  0.203200  0.778800  1.0
  H  H167  1  0.576300  0.296800  0.278800  1.0
  H  H168  1  0.576300  0.703200  0.721200  1.0
  H  H169  1  0.383200  0.922000  0.040000  1.0
  H  H170  1  0.383200  0.078000  0.960000  1.0
  H  H171  1  0.616800  0.422000  0.460000  1.0
  H  H172  1  0.616800  0.578000  0.540000  1.0
  H  H173  1  0.407800  0.924100  0.968900  1.0
  H  H174  1  0.407800  0.075900  0.031100  1.0
  H  H175  1  0.592200  0.424100  0.531100  1.0
  H  H176  1  0.592200  0.575900  0.468900  1.0
  H  H177  1  0.551800  0.710700  0.975900  1.0
  H  H178  1  0.551800  0.289300  0.024100  1.0
  H  H179  1  0.448200  0.210700  0.524100  1.0
  H  H180  1  0.448200  0.789300  0.475900  1.0
  H  H181  1  0.547600  0.718700  0.046900  1.0
  H  H182  1  0.547600  0.281300  0.953100  1.0
  H  H183  1  0.452400  0.218700  0.453100  1.0
  H  H184  1  0.452400  0.781300  0.546900  1.0
  H  H185  1  0.276000  0.894000  0.853000  1.0
  H  H186  1  0.276000  0.106000  0.147000  1.0
  H  H187  1  0.724000  0.394000  0.647000  1.0
  H  H188  1  0.724000  0.606000  0.353000  1.0
  H  H189  1  0.247400  0.853200  0.741200  1.0
  H  H190  1  0.247400  0.146800  0.258800  1.0
  H  H191  1  0.752600  0.353200  0.758800  1.0
  H  H192  1  0.752600  0.646800  0.241200  1.0
  H  H193  1  0.372900  0.762200  0.739200  1.0
  H  H194  1  0.372900  0.237800  0.260800  1.0
  H  H195  1  0.627100  0.262200  0.760800  1.0
  H  H196  1  0.627100  0.737800  0.239200  1.0
  H  H197  1  0.458200  0.745500  0.795400  1.0
  H  H198  1  0.458200  0.254500  0.204600  1.0
  H  H199  1  0.541800  0.245500  0.704600  1.0
  H  H200  1  0.541800  0.754500  0.295400  1.0
  H  H201  1  0.835500  0.265400  0.137900  1.0
  H  H202  1  0.835500  0.734600  0.862100  1.0
  H  H203  1  0.164500  0.765400  0.362100  1.0
  H  H204  1  0.164500  0.234600  0.637900  1.0
  H  H205  1  0.795300  0.267900  0.080100  1.0
  H  H206  1  0.795300  0.732100  0.919900  1.0
  H  H207  1  0.204700  0.767900  0.419900  1.0
  H  H208  1  0.204700  0.232100  0.580100  1.0
  H  H209  1  0.792600  0.226700  0.897400  1.0
  H  H210  1  0.792600  0.773300  0.102600  1.0
  H  H211  1  0.207400  0.726700  0.602600  1.0
  H  H212  1  0.207400  0.273300  0.397400  1.0
  H  H213  1  0.826800  0.200500  0.839500  1.0
  H  H214  1  0.826800  0.799500  0.160500  1.0
  H  H215  1  0.173200  0.700500  0.660500  1.0
  H  H216  1  0.173200  0.299500  0.339500  1.0
  H  H217  1  0.463000  0.815200  0.157000  1.0
  H  H218  1  0.463000  0.184800  0.843000  1.0
  H  H219  1  0.537000  0.315200  0.343000  1.0
  H  H220  1  0.537000  0.684800  0.657000  1.0
  H  H221  1  0.509800  0.800100  0.101300  1.0
  H  H222  1  0.509800  0.199900  0.898700  1.0
  H  H223  1  0.490200  0.300100  0.398700  1.0
  H  H224  1  0.490200  0.699900  0.601300  1.0
  H  H225  1  0.533000  0.787300  0.915600  1.0
  H  H226  1  0.533000  0.212700  0.084400  1.0
  H  H227  1  0.467000  0.287300  0.584400  1.0
  H  H228  1  0.467000  0.712700  0.415600  1.0
  H  H229  1  0.493000  0.792200  0.857800  1.0
  H  H230  1  0.493000  0.207800  0.142200  1.0
  H  H231  1  0.507000  0.292200  0.642200  1.0
  H  H232  1  0.507000  0.707800  0.357800  1.0
  Pd  Pd233  1  0.141010  0.043430  0.206520  1.0
  Pd  Pd234  1  0.141010  0.956570  0.793480  1.0
  Pd  Pd235  1  0.858990  0.543430  0.293480  1.0
  Pd  Pd236  1  0.858990  0.456570  0.706520  1.0
  C  C237  1  0.239100  0.044700  0.367500  1
  C  C238  1  0.239100  0.955300  0.632500  1
  C  C239  1  0.760900  0.544700  0.132500  1
  C  C240  1  0.760900  0.455300  0.867500  1
  C  C241  1  0.081000  0.986000  0.358900  1
  C  C242  1  0.081000  0.014000  0.641100  1
  C  C243  1  0.919000  0.486000  0.141100  1
  C  C244  1  0.919000  0.514000  0.858900  1
  C  C245  1  0.156000  0.097000  0.050400  1
  C  C246  1  0.156000  0.903000  0.949600  1
  C  C247  1  0.844000  0.597000  0.449600  1
  C  C248  1  0.844000  0.403000  0.550400  1
  C  C249  1  0.147000  0.939000  0.057900  1
  C  C250  1  0.147000  0.061000  0.942100  1
  C  C251  1  0.853000  0.439000  0.442100  1
  C  C252  1  0.853000  0.561000  0.557900  1
  C  C253  1  0.233000  0.334000  0.809600  1
  C  C254  1  0.233000  0.666000  0.190400  1
  C  C255  1  0.767000  0.834000  0.690400  1
  C  C256  1  0.767000  0.166000  0.309600  1
  C  C257  1  0.146000  0.388000  0.817500  1
  C  C258  1  0.146000  0.612000  0.182500  1
  C  C259  1  0.854000  0.888000  0.682500  1
  C  C260  1  0.854000  0.112000  0.317500  1
  C  C261  1  0.094000  0.308000  0.869900  1
  C  C262  1  0.094000  0.692000  0.130100  1
  C  C263  1  0.906000  0.808000  0.630100  1
  C  C264  1  0.906000  0.192000  0.369900  1
  C  C265  1  0.165000  0.242000  0.856200  1
  C  C266  1  0.165000  0.758000  0.143800  1
  C  C267  1  0.835000  0.742000  0.643800  1
  C  C268  1  0.835000  0.258000  0.356200  1
  C  C269  1  0.213000  0.004000  0.048700  1
  C  C270  1  0.213000  0.996000  0.951300  1
  C  C271  1  0.787000  0.504000  0.451300  1
  C  C272  1  0.787000  0.496000  0.548700  1
  C  C273  1  0.029000  0.010000  0.056400  1
  C  C274  1  0.029000  0.990000  0.943600  1
  C  C275  1  0.971000  0.510000  0.443600  1
  C  C276  1  0.971000  0.490000  0.556400  1
  C  C277  1  0.018500  0.177500  0.238100  1.0
  C  C278  1  0.018500  0.822500  0.761900  1.0
  C  C279  1  0.981500  0.677500  0.261900  1.0
  C  C280  1  0.981500  0.322500  0.738100  1.0
  C  C281  1  0.946200  0.228100  0.238500  1.0
  C  C282  1  0.946200  0.771900  0.761500  1.0
  C  C283  1  0.053800  0.728100  0.261500  1.0
  C  C284  1  0.053800  0.271900  0.738500  1.0
  C  C285  1  0.907600  0.253100  0.202300  1.0
  C  C286  1  0.907600  0.746900  0.797700  1.0
  C  C287  1  0.092400  0.753100  0.297700  1.0
  C  C288  1  0.092400  0.246900  0.702300  1.0
  C  C289  1  0.936700  0.216900  0.171500  1.0
  C  C290  1  0.936700  0.783100  0.828500  1.0
  C  C291  1  0.063300  0.716900  0.328500  1.0
  C  C292  1  0.063300  0.283100  0.671500  1.0
  C  C293  1  0.002800  0.156700  0.172100  1.0
  C  C294  1  0.002800  0.843300  0.827900  1.0
  C  C295  1  0.997200  0.656700  0.327900  1.0
  C  C296  1  0.997200  0.343300  0.672100  1.0
  C  C297  1  0.914000  0.224600  0.099300  1.0
  C  C298  1  0.914000  0.775400  0.900700  1.0
  C  C299  1  0.086000  0.724600  0.400700  1.0
  C  C300  1  0.086000  0.275400  0.599300  1.0
  C  C301  1  0.852500  0.237300  0.030400  1.0
  C  C302  1  0.852500  0.762700  0.969600  1.0
  C  C303  1  0.147500  0.737300  0.469600  1.0
  C  C304  1  0.147500  0.262700  0.530400  1.0
  C  C305  1  0.778100  0.246500  0.008100  1.0
  C  C306  1  0.778100  0.753500  0.991900  1.0
  C  C307  1  0.221900  0.746500  0.491900  1.0
  C  C308  1  0.221900  0.253500  0.508100  1.0
  C  C309  1  0.770600  0.232100  0.969900  1.0
  C  C310  1  0.770600  0.767900  0.030100  1.0
  C  C311  1  0.229400  0.732100  0.530100  1.0
  C  C312  1  0.229400  0.267900  0.469900  1.0
  C  C313  1  0.847800  0.218500  0.949100  1.0
  C  C314  1  0.847800  0.781500  0.050900  1.0
  C  C315  1  0.152200  0.718500  0.550900  1.0
  C  C316  1  0.152200  0.281500  0.449100  1.0
  C  C317  1  0.934100  0.207700  0.970200  1.0
  C  C318  1  0.934100  0.792300  0.029800  1.0
  C  C319  1  0.065900  0.707700  0.529800  1.0
  C  C320  1  0.065900  0.292300  0.470200  1.0
  C  C321  1  0.936000  0.222500  0.009100  1.0
  C  C322  1  0.936000  0.777500  0.990900  1.0
  C  C323  1  0.064000  0.722500  0.490900  1.0
  C  C324  1  0.064000  0.277500  0.509100  1.0
  C  C325  1  0.909800  0.173000  0.885000  1.0
  C  C326  1  0.909800  0.827000  0.115000  1.0
  C  C327  1  0.090200  0.673000  0.615000  1.0
  C  C328  1  0.090200  0.327000  0.385000  1.0
  C  C329  1  0.914900  0.126300  0.815500  1.0
  C  C330  1  0.914900  0.873700  0.184500  1.0
  C  C331  1  0.085100  0.626300  0.684500  1.0
  C  C332  1  0.085100  0.373700  0.315500  1.0
  C  C333  1  0.879600  0.135900  0.779300  1.0
  C  C334  1  0.879600  0.864100  0.220700  1.0
  C  C335  1  0.120400  0.635900  0.720700  1.0
  C  C336  1  0.120400  0.364100  0.279300  1.0
  C  C337  1  0.922300  0.097700  0.748000  1.0
  C  C338  1  0.922300  0.902300  0.252000  1.0
  C  C339  1  0.077700  0.597700  0.752000  1.0
  C  C340  1  0.077700  0.402300  0.248000  1.0
  C  C341  1  0.994000  0.047100  0.752000  1.0
  C  C342  1  0.994000  0.952900  0.248000  1.0
  C  C343  1  0.006000  0.547100  0.748000  1.0
  C  C344  1  0.006000  0.452900  0.252000  1.0
  C  C345  1  0.998400  0.075600  0.818800  1.0
  C  C346  1  0.998400  0.924400  0.181200  1.0
  C  C347  1  0.001600  0.575600  0.681200  1.0
  C  C348  1  0.001600  0.424400  0.318800  1.0
  C  C349  1  0.286700  0.925700  0.178400  1.0
  C  C350  1  0.286700  0.074300  0.821600  1.0
  C  C351  1  0.713300  0.425700  0.321600  1.0
  C  C352  1  0.713300  0.574300  0.678400  1.0
  C  C353  1  0.258500  0.919400  0.246500  1.0
  C  C354  1  0.258500  0.080600  0.753500  1.0
  C  C355  1  0.741500  0.419400  0.253500  1.0
  C  C356  1  0.741500  0.580600  0.746500  1.0
  C  C357  1  0.327300  0.865600  0.251500  1.0
  C  C358  1  0.327300  0.134400  0.748500  1.0
  C  C359  1  0.672700  0.365600  0.248500  1.0
  C  C360  1  0.672700  0.634400  0.751500  1.0
  C  C361  1  0.376800  0.836400  0.218400  1.0
  C  C362  1  0.376800  0.163600  0.781600  1.0
  C  C363  1  0.623200  0.336400  0.281600  1.0
  C  C364  1  0.623200  0.663600  0.718400  1.0
  C  C365  1  0.355700  0.866400  0.183100  1.0
  C  C366  1  0.355700  0.133600  0.816900  1.0
  C  C367  1  0.644300  0.366400  0.316900  1.0
  C  C368  1  0.644300  0.633600  0.683100  1.0
  C  C369  1  0.396500  0.859900  0.112400  1.0
  C  C370  1  0.396500  0.140100  0.887600  1.0
  C  C371  1  0.603500  0.359900  0.387600  1.0
  C  C372  1  0.603500  0.640100  0.612400  1.0
  C  C373  1  0.462900  0.826000  0.047000  1.0
  C  C374  1  0.462900  0.174000  0.953000  1.0
  C  C375  1  0.537100  0.326000  0.453000  1.0
  C  C376  1  0.537100  0.674000  0.547000  1.0
  C  C377  1  0.419600  0.882000  0.027700  1.0
  C  C378  1  0.419600  0.118000  0.972300  1.0
  C  C379  1  0.580400  0.382000  0.472300  1.0
  C  C380  1  0.580400  0.618000  0.527700  1.0
  C  C381  1  0.430100  0.880400  0.984200  1.0
  C  C382  1  0.430100  0.119600  0.015800  1.0
  C  C383  1  0.569900  0.380400  0.515800  1.0
  C  C384  1  0.569900  0.619600  0.484200  1.0
  C  C385  1  0.474700  0.811100  0.966900  1.0
  C  C386  1  0.474700  0.188900  0.033100  1.0
  C  C387  1  0.525300  0.311100  0.533100  1.0
  C  C388  1  0.525300  0.688900  0.466900  1.0
  C  C389  1  0.519300  0.753300  0.988200  1.0
  C  C390  1  0.519300  0.246700  0.011800  1.0
  C  C391  1  0.480700  0.253300  0.511800  1.0
  C  C392  1  0.480700  0.746700  0.488200  1.0
  C  C393  1  0.516900  0.757200  0.031100  1.0
  C  C394  1  0.516900  0.242800  0.968900  1.0
  C  C395  1  0.483100  0.257200  0.468900  1.0
  C  C396  1  0.483100  0.742800  0.531100  1.0
  C  C397  1  0.415600  0.827900  0.901900  1.0
  C  C398  1  0.415600  0.172100  0.098100  1.0
  C  C399  1  0.584400  0.327900  0.598100  1.0
  C  C400  1  0.584400  0.672100  0.401900  1.0
  C  C401  1  0.381500  0.819900  0.830100  1.0
  C  C402  1  0.381500  0.180100  0.169900  1.0
  C  C403  1  0.618500  0.319900  0.669900  1.0
  C  C404  1  0.618500  0.680100  0.330100  1.0
  C  C405  1  0.296900  0.868300  0.830200  1.0
  C  C406  1  0.296900  0.131700  0.169800  1.0
  C  C407  1  0.703100  0.368300  0.669800  1.0
  C  C408  1  0.703100  0.631700  0.330200  1.0
  C  C409  1  0.279600  0.841400  0.764200  1.0
  C  C410  1  0.279600  0.158600  0.235800  1.0
  C  C411  1  0.720400  0.341400  0.735800  1.0
  C  C412  1  0.720400  0.658600  0.264200  1.0
  C  C413  1  0.356300  0.789300  0.762100  1.0
  C  C414  1  0.356300  0.210700  0.237900  1.0
  C  C415  1  0.643700  0.289300  0.737900  1.0
  C  C416  1  0.643700  0.710700  0.262100  1.0
  C  C417  1  0.405900  0.779900  0.795600  1.0
  C  C418  1  0.405900  0.220100  0.204400  1.0
  C  C419  1  0.594100  0.279900  0.704400  1.0
  C  C420  1  0.594100  0.720100  0.295600  1.0
  S  S421  1  0.135900  0.075900  0.346180  1
  S  S422  1  0.135900  0.924100  0.653820  1
  S  S423  1  0.864100  0.575900  0.153820  1
  S  S424  1  0.864100  0.424100  0.846180  1
  S  S425  1  0.096400  0.030600  0.078400  1
  S  S426  1  0.096400  0.969400  0.921600  1
  S  S427  1  0.903600  0.530600  0.421600  1
  S  S428  1  0.903600  0.469400  0.578400  1
  S  S429  1  0.127700  0.980300  0.081000  1
  S  S430  1  0.127700  0.019700  0.919000  1
  S  S431  1  0.872300  0.480300  0.419000  1
  S  S432  1  0.872300  0.519700  0.581000  1
  N  N433  1  0.348400  0.811600  0.364800  1
  N  N434  1  0.348400  0.188400  0.635200  1
  N  N435  1  0.651600  0.311600  0.135200  1
  N  N436  1  0.651600  0.688400  0.864800  1
  N  N437  1  0.356200  0.252800  0.343600  1
  N  N438  1  0.356200  0.747200  0.656400  1
  N  N439  1  0.643800  0.752800  0.156400  1
  N  N440  1  0.643800  0.247200  0.843600  1
  N  N441  1  0.047000  0.137100  0.204700  1.0
  N  N442  1  0.047000  0.862900  0.795300  1.0
  N  N443  1  0.953000  0.637100  0.295300  1.0
  N  N444  1  0.953000  0.362900  0.704700  1.0
  N  N445  1  0.887600  0.239400  0.135200  1.0
  N  N446  1  0.887600  0.760600  0.864800  1.0
  N  N447  1  0.112400  0.739400  0.364800  1.0
  N  N448  1  0.112400  0.260600  0.635200  1.0
  N  N449  1  0.846200  0.246500  0.071300  1.0
  N  N450  1  0.846200  0.753500  0.928700  1.0
  N  N451  1  0.153800  0.746500  0.428700  1.0
  N  N452  1  0.153800  0.253500  0.571300  1.0
  N  N453  1  0.842400  0.208800  0.908600  1.0
  N  N454  1  0.842400  0.791200  0.091400  1.0
  N  N455  1  0.157600  0.708800  0.591400  1.0
  N  N456  1  0.157600  0.291200  0.408600  1.0
  N  N457  1  0.875400  0.171200  0.844900  1.0
  N  N458  1  0.875400  0.828800  0.155100  1.0
  N  N459  1  0.124600  0.671200  0.655100  1.0
  N  N460  1  0.124600  0.328800  0.344900  1.0
  N  N461  1  0.031900  0.035700  0.788700  1.0
  N  N462  1  0.031900  0.964300  0.211300  1.0
  N  N463  1  0.968100  0.535700  0.711300  1.0
  N  N464  1  0.968100  0.464300  0.288700  1.0
  N  N465  1  0.238800  0.948700  0.211500  1.0
  N  N466  1  0.238800  0.051300  0.788500  1.0
  N  N467  1  0.761200  0.448700  0.288500  1.0
  N  N468  1  0.761200  0.551300  0.711500  1.0
  N  N469  1  0.413200  0.842700  0.151500  1.0
  N  N470  1  0.413200  0.157300  0.848500  1.0
  N  N471  1  0.586800  0.342700  0.348500  1.0
  N  N472  1  0.586800  0.657300  0.651500  1.0
  N  N473  1  0.464000  0.824600  0.089800  1.0
  N  N474  1  0.464000  0.175400  0.910200  1.0
  N  N475  1  0.536000  0.324600  0.410200  1.0
  N  N476  1  0.536000  0.675400  0.589800  1.0
  N  N477  1  0.481900  0.806000  0.925500  1.0
  N  N478  1  0.481900  0.194000  0.074500  1.0
  N  N479  1  0.518100  0.306000  0.574500  1.0
  N  N480  1  0.518100  0.694000  0.425500  1.0
  N  N481  1  0.437600  0.810700  0.862200  1.0
  N  N482  1  0.437600  0.189300  0.137800  1.0
  N  N483  1  0.562400  0.310700  0.637800  1.0
  N  N484  1  0.562400  0.689300  0.362200  1.0
  N  N485  1  0.249400  0.875600  0.797000  1.0
  N  N486  1  0.249400  0.124400  0.203000  1.0
  N  N487  1  0.750600  0.375600  0.703000  1.0
  N  N488  1  0.750600  0.624400  0.297000  1.0
  O  O489  1  0.343800  0.779600  0.397200  1
  O  O490  1  0.343800  0.220400  0.602800  1
  O  O491  1  0.656200  0.279600  0.102800  1
  O  O492  1  0.656200  0.720400  0.897200  1
  O  O493  1  0.419300  0.811900  0.346300  1
  O  O494  1  0.419300  0.188100  0.653700  1
  O  O495  1  0.580700  0.311900  0.153700  1
  O  O496  1  0.580700  0.688100  0.846300  1
  O  O497  1  0.275000  0.838400  0.349300  1
  O  O498  1  0.275000  0.161600  0.650700  1
  O  O499  1  0.725000  0.338400  0.150700  1
  O  O500  1  0.725000  0.661600  0.849300  1
  O  O501  1  0.285100  0.235300  0.325600  1
  O  O502  1  0.285100  0.764700  0.674400  1
  O  O503  1  0.714900  0.735300  0.174400  1
  O  O504  1  0.714900  0.264700  0.825600  1
  O  O505  1  0.352100  0.269200  0.378500  1
  O  O506  1  0.352100  0.730800  0.621500  1
  O  O507  1  0.647900  0.769200  0.121500  1
  O  O508  1  0.647900  0.230800  0.878500  1
  O  O509  1  0.437700  0.237600  0.330200  1
  O  O510  1  0.437700  0.762400  0.669800  1
  O  O511  1  0.562300  0.737600  0.169800  1
  O  O512  1  0.562300  0.262400  0.830200  1
  O  O513  1  0.137800  0.061800  0.303100  1
  O  O514  1  0.137800  0.938200  0.696900  1
  O  O515  1  0.862200  0.561800  0.196900  1
  O  O516  1  0.862200  0.438200  0.803100  1
  O  O517  1  0.137000  0.030000  0.119300  1
  O  O518  1  0.137000  0.970000  0.880700  1
  O  O519  1  0.863000  0.530000  0.380700  1
  O  O520  1  0.863000  0.470000  0.619300  1
  O  O521  1  0.184000  0.257000  0.815600  1
  O  O522  1  0.184000  0.743000  0.184400  1
  O  O523  1  0.816000  0.757000  0.684400  1
  O  O524  1  0.816000  0.243000  0.315600  1
  O  O525  1  0.115000  0.392000  0.857800  1
  O  O526  1  0.115000  0.608000  0.142200  1
  O  O527  1  0.885000  0.892000  0.642200  1
  O  O528  1  0.885000  0.108000  0.357800  1
  O  O529  1  0.127000  0.022000  0.120700  1
  O  O530  1  0.127000  0.978000  0.879300  1
  O  O531  1  0.873000  0.522000  0.379300  1
  O  O532  1  0.873000  0.478000  0.620700  1
  O  O533  1  0.987800  0.193500  0.090000  1.0
  O  O534  1  0.987800  0.806500  0.910000  1.0
  O  O535  1  0.012200  0.693500  0.410000  1.0
  O  O536  1  0.012200  0.306500  0.590000  1.0
  O  O537  1  0.982700  0.143300  0.894000  1.0
  O  O538  1  0.982700  0.856700  0.106000  1.0
  O  O539  1  0.017300  0.643300  0.606000  1.0
  O  O540  1  0.017300  0.356700  0.394000  1.0
  O  O541  1  0.332300  0.894600  0.099700  1.0
  O  O542  1  0.332300  0.105400  0.900300  1.0
  O  O543  1  0.667700  0.394600  0.400300  1.0
  O  O544  1  0.667700  0.605400  0.599700  1.0
  O  O545  1  0.345500  0.873600  0.908400  1.0
  O  O546  1  0.345500  0.126400  0.091600  1.0
  O  O547  1  0.654500  0.373600  0.591600  1.0
  O  O548  1  0.654500  0.626400  0.408400  1.0
