# generated using pymatgen
data_B4H62PtC46S6N4(O3F4)4
_symmetry_space_group_name_H-M   'P 1'
_cell_length_a   10.38200000
_cell_length_b   17.06100000
_cell_length_c   18.04900000
_cell_angle_alpha   114.72100000
_cell_angle_beta   91.77400000
_cell_angle_gamma   101.92400000
_symmetry_Int_Tables_number   1
_chemical_formula_structural   B4H62PtC46S6N4(O3F4)4
_chemical_formula_sum   'B8 H124 Pt2 C92 S12 N8 O24 F32'
_cell_volume   2816.44089224
_cell_formula_units_Z   2
loop_
 _symmetry_equiv_pos_site_id
 _symmetry_equiv_pos_as_xyz
  1  'x, y, z'
loop_
 _atom_site_type_symbol
 _atom_site_label
 _atom_site_symmetry_multiplicity
 _atom_site_fract_x
 _atom_site_fract_y
 _atom_site_fract_z
 _atom_site_occupancy
  B  B1  1  0.136000  0.038500  0.350600  1
  B  B2  1  0.864000  0.961500  0.649400  1
  B  B3  1  0.892000  0.799000  0.920000  1
  B  B4  1  0.108000  0.201000  0.080000  1
  B  B5  1  0.164100  0.049700  0.375000  1
  B  B6  1  0.835900  0.950300  0.625000  1
  B  B7  1  0.862000  0.778000  0.961000  1
  B  B8  1  0.138000  0.222000  0.039000  1
  H  H9  1  0.669200  0.564100  0.802000  1
  H  H10  1  0.330800  0.435900  0.198000  1
  H  H11  1  0.796100  0.546800  0.839800  1
  H  H12  1  0.203900  0.453200  0.160200  1
  H  H13  1  0.654000  0.524100  0.868100  1
  H  H14  1  0.346000  0.475900  0.131900  1
  H  H15  1  0.718700  0.289300  0.760100  1
  H  H16  1  0.281300  0.710700  0.239900  1
  H  H17  1  0.679100  0.359900  0.842100  1
  H  H18  1  0.320900  0.640100  0.157900  1
  H  H19  1  0.823300  0.381300  0.815900  1
  H  H20  1  0.176700  0.618700  0.184100  1
  H  H21  1  0.587400  0.080300  0.293200  1
  H  H22  1  0.412600  0.919700  0.706800  1
  H  H23  1  0.434700  0.030000  0.259500  1
  H  H24  1  0.565300  0.970000  0.740500  1
  H  H25  1  0.473400  0.131700  0.326500  1
  H  H26  1  0.526600  0.868300  0.673500  1
  H  H27  1  0.328400  0.124000  0.111800  1
  H  H28  1  0.671600  0.876000  0.888200  1
  H  H29  1  0.297800  0.036200  0.126600  1
  H  H30  1  0.702200  0.963800  0.873400  1
  H  H31  1  0.439400  0.069100  0.102900  1
  H  H32  1  0.560600  0.930900  0.897100  1
  H  H33  1  0.716000  0.964300  0.197800  1
  H  H34  1  0.284000  0.035700  0.802200  1
  H  H35  1  0.873100  0.989000  0.224100  1
  H  H36  1  0.126900  0.011000  0.775900  1
  H  H37  1  0.809000  0.915900  0.133400  1
  H  H38  1  0.191000  0.084100  0.866600  1
  H  H39  1  0.032500  0.074100  0.104600  1
  H  H40  1  0.967500  0.925900  0.895400  1
  H  H41  1  0.989200  0.972000  0.088000  1
  H  H42  1  0.010800  0.028000  0.912000  1
  H  H43  1  0.047100  0.047300  0.178900  1
  H  H44  1  0.952900  0.952700  0.821100  1
  H  H45  1  0.762200  0.579400  0.827200  1
  H  H46  1  0.237800  0.420600  0.172800  1
  H  H47  1  0.674100  0.532900  0.875700  1
  H  H48  1  0.325900  0.467100  0.124300  1
  H  H49  1  0.621200  0.512000  0.783600  1
  H  H50  1  0.378800  0.488000  0.216400  1
  H  H51  1  0.633400  0.298800  0.762400  1
  H  H52  1  0.366600  0.701200  0.237600  1
  H  H53  1  0.548800  0.359400  0.745400  1
  H  H54  1  0.451200  0.640600  0.254600  1
  H  H55  1  0.594700  0.377900  0.837900  1
  H  H56  1  0.405300  0.622100  0.162100  1
  H  H57  1  0.542500  0.120400  0.335500  1
  H  H58  1  0.457500  0.879600  0.664500  1
  H  H59  1  0.566100  0.064500  0.242700  1
  H  H60  1  0.433900  0.935500  0.757300  1
  H  H61  1  0.428700  0.037000  0.273700  1
  H  H62  1  0.571300  0.963000  0.726300  1
  H  H63  1  0.290600  0.129300  0.140300  1
  H  H64  1  0.709400  0.870700  0.859700  1
  H  H65  1  0.293900  0.152400  0.235900  1
  H  H66  1  0.706100  0.847600  0.764100  1
  H  H67  1  0.270800  0.051300  0.169100  1
  H  H68  1  0.729200  0.948700  0.830900  1
  H  H69  1  0.841800  0.973600  0.229700  1
  H  H70  1  0.158200  0.026400  0.770300  1
  H  H71  1  0.804200  0.915400  0.132400  1
  H  H72  1  0.195800  0.084600  0.867600  1
  H  H73  1  0.711200  0.977500  0.183200  1
  H  H74  1  0.288800  0.022500  0.816800  1
  H  H75  1  0.822800  0.083700  0.041500  1
  H  H76  1  0.177200  0.916300  0.958500  1
  H  H77  1  0.694700  0.039700  0.070400  1
  H  H78  1  0.305300  0.960300  0.929600  1
  H  H79  1  0.787300  0.979300  0.016500  1
  H  H80  1  0.212700  0.020700  0.983500  1
  H  H81  1  0.806100  0.543700  0.660200  1.0
  H  H82  1  0.193900  0.456300  0.339800  1.0
  H  H83  1  0.820200  0.694700  0.746300  1.0
  H  H84  1  0.179800  0.305300  0.253700  1.0
  H  H85  1  0.854600  0.799200  0.689600  1.0
  H  H86  1  0.145400  0.200800  0.310400  1.0
  H  H87  1  0.866900  0.750600  0.551100  1.0
  H  H88  1  0.133100  0.249400  0.448900  1.0
  H  H89  1  0.791700  0.401500  0.565100  1.0
  H  H90  1  0.208300  0.598500  0.434900  1.0
  H  H91  1  0.815000  0.251800  0.321600  1.0
  H  H92  1  0.185000  0.748200  0.678400  1.0
  H  H93  1  0.864800  0.266800  0.203700  1.0
  H  H94  1  0.135200  0.733200  0.796300  1.0
  H  H95  1  0.902900  0.294700  0.085400  1.0
  H  H96  1  0.097100  0.705300  0.914600  1.0
  H  H97  1  0.924700  0.440800  0.100700  1.0
  H  H98  1  0.075300  0.559200  0.899300  1.0
  H  H99  1  0.908200  0.555600  0.226900  1.0
  H  H100  1  0.091800  0.444400  0.773100  1.0
  H  H101  1  0.629000  0.273100  0.536400  1.0
  H  H102  1  0.371000  0.726900  0.463600  1.0
  H  H103  1  0.678900  0.028100  0.498300  1.0
  H  H104  1  0.321100  0.971900  0.501700  1.0
  H  H105  1  0.835700  0.040000  0.412000  1.0
  H  H106  1  0.164300  0.960000  0.588000  1.0
  H  H107  1  0.879600  0.161800  0.381000  1.0
  H  H108  1  0.120400  0.838200  0.619000  1.0
  H  H109  1  0.406100  0.197400  0.541900  1.0
  H  H110  1  0.593900  0.802600  0.458100  1.0
  H  H111  1  0.286100  0.146200  0.729500  1.0
  H  H112  1  0.713900  0.853800  0.270500  1.0
  H  H113  1  0.473100  0.091800  0.735100  1.0
  H  H114  1  0.526900  0.908200  0.264900  1.0
  H  H115  1  0.630300  0.093900  0.648200  1.0
  H  H116  1  0.369700  0.906100  0.351800  1.0
  H  H117  1  0.300600  0.312900  0.610800  1.0
  H  H118  1  0.699400  0.687100  0.389200  1.0
  H  H119  1  0.083100  0.695700  0.369000  1.0
  H  H120  1  0.916900  0.304300  0.631000  1.0
  H  H121  1  0.108700  0.823500  0.350900  1.0
  H  H122  1  0.891300  0.176500  0.649100  1.0
  H  H123  1  0.070100  0.111600  0.642400  1.0
  H  H124  1  0.929900  0.888400  0.357600  1.0
  H  H125  1  0.527800  0.321900  0.258300  1.0
  H  H126  1  0.472200  0.678100  0.741700  1.0
  H  H127  1  0.502600  0.335700  0.395500  1.0
  H  H128  1  0.497400  0.664300  0.604500  1.0
  H  H129  1  0.485000  0.364800  0.538200  1.0
  H  H130  1  0.515000  0.635200  0.461800  1.0
  H  H131  1  0.543200  0.538500  0.327600  1.0
  H  H132  1  0.456800  0.461500  0.672400  1.0
  Pt  Pt133  1  0.868700  0.568970  0.402440  1.0
  Pt  Pt134  1  0.131300  0.431030  0.597560  1.0
  C  C135  1  0.700000  0.524900  0.821800  1
  C  C136  1  0.300000  0.475100  0.178200  1
  C  C137  1  0.729000  0.353000  0.795000  1
  C  C138  1  0.271000  0.647000  0.205000  1
  C  C139  1  0.500100  0.087100  0.278300  1
  C  C140  1  0.499900  0.912900  0.721700  1
  C  C141  1  0.366000  0.088000  0.133000  1
  C  C142  1  0.634000  0.912000  0.867000  1
  C  C143  1  0.803000  0.972000  0.179000  1
  C  C144  1  0.197000  0.028000  0.821000  1
  C  C145  1  0.993000  0.033000  0.127000  1
  C  C146  1  0.007000  0.967000  0.873000  1
  C  C147  1  0.620000  0.359000  0.782000  1
  C  C148  1  0.380000  0.641000  0.218000  1
  C  C149  1  0.317000  0.113000  0.183000  1
  C  C150  1  0.683000  0.887000  0.817000  1
  C  C151  1  0.786000  0.038000  0.060000  1
  C  C152  1  0.214000  0.962000  0.940000  1
  C  C153  1  0.832300  0.563000  0.557100  1.0
  C  C154  1  0.167700  0.437000  0.442900  1.0
  C  C155  1  0.819800  0.586700  0.639000  1.0
  C  C156  1  0.180200  0.413300  0.361000  1.0
  C  C157  1  0.827900  0.675800  0.689400  1.0
  C  C158  1  0.172100  0.324200  0.310600  1.0
  C  C159  1  0.847800  0.738000  0.655700  1.0
  C  C160  1  0.152200  0.262000  0.344300  1.0
  C  C161  1  0.857000  0.708900  0.573800  1.0
  C  C162  1  0.143000  0.291100  0.426200  1.0
  C  C163  1  0.823400  0.471100  0.497300  1.0
  C  C164  1  0.176600  0.528900  0.502700  1.0
  C  C165  1  0.801800  0.396400  0.511200  1.0
  C  C166  1  0.198200  0.603600  0.488800  1.0
  C  C167  1  0.794600  0.311000  0.445100  1.0
  C  C168  1  0.205400  0.689000  0.554900  1.0
  C  C169  1  0.817400  0.307300  0.366700  1.0
  C  C170  1  0.182600  0.692700  0.633300  1.0
  C  C171  1  0.843300  0.384700  0.355700  1.0
  C  C172  1  0.156700  0.615300  0.644300  1.0
  C  C173  1  0.865100  0.395000  0.281100  1.0
  C  C174  1  0.134900  0.605000  0.718900  1.0
  C  C175  1  0.873900  0.324800  0.207200  1.0
  C  C176  1  0.126100  0.675200  0.792800  1.0
  C  C177  1  0.896800  0.341100  0.136800  1.0
  C  C178  1  0.103200  0.658900  0.863200  1.0
  C  C179  1  0.910000  0.428100  0.146600  1.0
  C  C180  1  0.090000  0.571900  0.853400  1.0
  C  C181  1  0.901300  0.497300  0.222200  1.0
  C  C182  1  0.098700  0.502700  0.777800  1.0
  C  C183  1  0.762100  0.231800  0.459400  1.0
  C  C184  1  0.237900  0.768200  0.540600  1.0
  C  C185  1  0.670300  0.225300  0.511000  1.0
  C  C186  1  0.329700  0.774700  0.489000  1.0
  C  C187  1  0.635200  0.151000  0.527700  1.0
  C  C188  1  0.364800  0.849000  0.472300  1.0
  C  C189  1  0.699600  0.079500  0.488500  1.0
  C  C190  1  0.300400  0.920500  0.511500  1.0
  C  C191  1  0.791400  0.086400  0.436600  1.0
  C  C192  1  0.208600  0.913600  0.563400  1.0
  C  C193  1  0.820300  0.160000  0.419600  1.0
  C  C194  1  0.179700  0.840000  0.580400  1.0
  C  C195  1  0.534000  0.146800  0.584600  1.0
  C  C196  1  0.466000  0.853200  0.415400  1.0
  C  C197  1  0.421000  0.176700  0.582100  1.0
  C  C198  1  0.579000  0.823300  0.417900  1.0
  C  C199  1  0.329000  0.177600  0.635800  1.0
  C  C200  1  0.671000  0.822400  0.364200  1.0
  C  C201  1  0.348900  0.146300  0.692400  1.0
  C  C202  1  0.651100  0.853700  0.307600  1.0
  C  C203  1  0.461100  0.114300  0.696000  1.0
  C  C204  1  0.538900  0.885700  0.304000  1.0
  C  C205  1  0.553400  0.114800  0.644400  1.0
  C  C206  1  0.446600  0.885200  0.355600  1.0
  C  C207  1  0.204000  0.208100  0.631500  1.0
  C  C208  1  0.796000  0.791900  0.368500  1.0
  C  C209  1  0.216700  0.284800  0.618800  1.0
  C  C210  1  0.783300  0.715200  0.381200  1.0
  C  C211  1  0.008800  0.720400  0.370200  1.0
  C  C212  1  0.991200  0.279600  0.629800  1.0
  C  C213  1  0.024600  0.796400  0.359500  1.0
  C  C214  1  0.975400  0.203600  0.640500  1.0
  C  C215  1  0.082100  0.166500  0.638700  1.0
  C  C216  1  0.917900  0.833500  0.361300  1.0
  C  C217  1  0.523700  0.427700  0.349100  1.0
  C  C218  1  0.476300  0.572300  0.650900  1.0
  C  C219  1  0.506700  0.396400  0.409200  1.0
  C  C220  1  0.493300  0.603600  0.590800  1.0
  C  C221  1  0.495600  0.455000  0.490100  1.0
  C  C222  1  0.504400  0.545000  0.509900  1.0
  C  C223  1  0.483800  0.424600  0.551100  1.0
  C  C224  1  0.516200  0.575400  0.448900  1.0
  C  C225  1  0.529900  0.517300  0.368500  1.0
  C  C226  1  0.470100  0.482700  0.631500  1.0
  S  S227  1  0.663600  0.406400  0.734300  1
  S  S228  1  0.336400  0.593600  0.265700  1
  S  S229  1  0.432400  0.158700  0.247400  1
  S  S230  1  0.567600  0.841300  0.752600  1
  S  S231  1  0.820400  0.045200  0.148600  1
  S  S232  1  0.179600  0.954800  0.851400  1
  S  S233  1  0.776600  0.437000  0.784200  1
  S  S234  1  0.223400  0.563000  0.215800  1
  S  S235  1  0.509300  0.124200  0.192800  1
  S  S236  1  0.490700  0.875800  0.807200  1
  S  S237  1  0.896000  0.060300  0.162200  1
  S  S238  1  0.104000  0.939700  0.837800  1
  N  N239  1  0.852600  0.624200  0.524300  1.0
  N  N240  1  0.147400  0.375800  0.475700  1.0
  N  N241  1  0.843000  0.463100  0.420500  1.0
  N  N242  1  0.157000  0.536900  0.579500  1.0
  N  N243  1  0.883300  0.480300  0.288000  1.0
  N  N244  1  0.116700  0.519700  0.712000  1.0
  N  N245  1  0.892400  0.679700  0.382100  1.0
  N  N246  1  0.107600  0.320300  0.617900  1.0
  O  O247  1  0.787300  0.420500  0.695100  1
  O  O248  1  0.212700  0.579500  0.304900  1
  O  O249  1  0.557000  0.225200  0.239300  1
  O  O250  1  0.443000  0.774800  0.760700  1
  O  O251  1  0.849300  0.138300  0.217300  1
  O  O252  1  0.150700  0.861700  0.782700  1
  O  O253  1  0.310000  0.406300  0.870800  1
  O  O254  1  0.690000  0.593700  0.129200  1
  O  O255  1  0.824000  0.203200  0.845000  1
  O  O256  1  0.176000  0.796800  0.155000  1
  O  O257  1  0.898000  0.282000  0.823000  1
  O  O258  1  0.102000  0.718000  0.177000  1
  O  O259  1  0.161000  0.318000  0.870000  1
  O  O260  1  0.839000  0.682000  0.130000  1
  O  O261  1  0.479000  0.812000  0.038000  1
  O  O262  1  0.521000  0.188000  0.962000  1
  O  O263  1  0.385000  0.498000  0.883000  1
  O  O264  1  0.615000  0.502000  0.117000  1
  O  O265  1  0.172000  0.374000  0.837000  1
  O  O266  1  0.828000  0.626000  0.163000  1
  O  O267  1  0.367000  0.424000  0.810000  1
  O  O268  1  0.633000  0.576000  0.190000  1
  O  O269  1  0.534400  0.374700  0.265700  1.0
  O  O270  1  0.465600  0.625300  0.734300  1.0
  F  F271  1  0.144000  0.112100  0.420900  1
  F  F272  1  0.856000  0.887900  0.579100  1
  F  F273  1  0.194000  0.983400  0.369300  1
  F  F274  1  0.806000  0.016600  0.630700  1
  F  F275  1  0.005100  0.001400  0.322000  1
  F  F276  1  0.994900  0.998600  0.678000  1
  F  F277  1  0.187000  0.056900  0.290800  1
  F  F278  1  0.813000  0.943100  0.709200  1
  F  F279  1  0.798000  0.846000  0.936000  1
  F  F280  1  0.202000  0.154000  0.064000  1
  F  F281  1  0.979000  0.826000  0.987000  1
  F  F282  1  0.021000  0.174000  0.013000  1
  F  F283  1  0.957000  0.810000  0.861000  1
  F  F284  1  0.043000  0.190000  0.139000  1
  F  F285  1  0.832000  0.713000  0.894000  1
  F  F286  1  0.168000  0.287000  0.106000  1
  F  F287  1  0.126200  0.040200  0.444600  1
  F  F288  1  0.873800  0.959800  0.555400  1
  F  F289  1  0.256600  0.124900  0.397800  1
  F  F290  1  0.743400  0.875100  0.602200  1
  F  F291  1  0.200600  0.973000  0.330900  1
  F  F292  1  0.799400  0.027000  0.669100  1
  F  F293  1  0.053300  0.052100  0.335600  1
  F  F294  1  0.946700  0.947900  0.664400  1
  F  F295  1  0.807000  0.758000  0.885000  1
  F  F296  1  0.193000  0.242000  0.115000  1
  F  F297  1  0.985000  0.830000  0.976000  1
  F  F298  1  0.015000  0.170000  0.024000  1
  F  F299  1  0.869000  0.704000  0.969000  1
  F  F300  1  0.131000  0.296000  0.031000  1
  F  F301  1  0.783000  0.819000  0.014000  1
  F  F302  1  0.217000  0.181000  0.986000  1
