# generated using pymatgen
data_Cu2P2H140C145N10Cl6(O5F3)4
_symmetry_space_group_name_H-M   'P 1'
_cell_length_a   18.49230000
_cell_length_b   19.64580000
_cell_length_c   20.43390000
_cell_angle_alpha   86.31100000
_cell_angle_beta   66.57300000
_cell_angle_gamma   64.10900000
_symmetry_Int_Tables_number   1
_chemical_formula_structural   Cu2P2H140C145N10Cl6(O5F3)4
_chemical_formula_sum   'Cu4 P4 H280 C290 N20 Cl12 O40 F24'
_cell_volume   6073.98246934
_cell_formula_units_Z   2
loop_
 _symmetry_equiv_pos_site_id
 _symmetry_equiv_pos_as_xyz
  1  'x, y, z'
loop_
 _atom_site_type_symbol
 _atom_site_label
 _atom_site_symmetry_multiplicity
 _atom_site_fract_x
 _atom_site_fract_y
 _atom_site_fract_z
 _atom_site_occupancy
  Cu  Cu1  1  0.554900  0.141900  0.454200  1.0
  Cu  Cu2  1  0.445100  0.858100  0.545800  1.0
  Cu  Cu3  1  0.621400  0.272700  0.770000  1.0
  Cu  Cu4  1  0.378600  0.727300  0.230000  1.0
  P  P5  1  0.769000  0.017000  0.064000  1
  P  P6  1  0.231000  0.983000  0.936000  1
  P  P7  1  0.951200  0.725600  0.607900  1
  P  P8  1  0.048800  0.274400  0.392100  1
  H  H9  1  0.905200  0.144800  0.320500  1
  H  H10  1  0.094800  0.855200  0.679500  1
  H  H11  1  0.902300  0.207800  0.369000  1
  H  H12  1  0.097700  0.792200  0.631000  1
  H  H13  1  0.070500  0.491000  0.024200  1
  H  H14  1  0.929500  0.509000  0.975800  1
  H  H15  1  0.117800  0.471600  0.938200  1
  H  H16  1  0.882200  0.528400  0.061800  1
  H  H17  1  0.809400  0.940100  0.677600  1
  H  H18  1  0.190600  0.059900  0.322400  1
  H  H19  1  0.803400  0.997800  0.734000  1
  H  H20  1  0.196600  0.002200  0.266000  1
  H  H21  1  0.920900  0.006900  0.657200  1
  H  H22  1  0.079100  0.993100  0.342800  1
  H  H23  1  0.944400  0.925400  0.620500  1
  H  H24  1  0.055600  0.074600  0.379500  1
  H  H25  1  0.901800  0.974800  0.536800  1
  H  H26  1  0.098200  0.025200  0.463200  1
  H  H27  1  0.922400  0.041500  0.553900  1
  H  H28  1  0.077600  0.958500  0.446100  1
  H  H29  1  0.783900  0.121000  0.605700  1
  H  H30  1  0.216100  0.879000  0.394300  1
  H  H31  1  0.768600  0.063700  0.565900  1
  H  H32  1  0.231400  0.936300  0.434100  1
  H  H33  1  0.195700  0.724500  0.137600  1
  H  H34  1  0.804300  0.275500  0.862400  1
  H  H35  1  0.106900  0.717900  0.149600  1
  H  H36  1  0.893100  0.282100  0.850400  1
  H  H37  1  0.182400  0.588400  0.119300  1
  H  H38  1  0.817600  0.411600  0.880700  1
  H  H39  1  0.243600  0.619300  0.058500  1
  H  H40  1  0.756400  0.380700  0.941500  1
  H  H41  1  0.284700  0.633200  0.209800  1
  H  H42  1  0.715300  0.366800  0.790200  1
  H  H43  1  0.251000  0.569500  0.237000  1
  H  H44  1  0.749000  0.430500  0.763000  1
  H  H45  1  0.119400  0.641800  0.236800  1
  H  H46  1  0.880600  0.358200  0.763200  1
  H  H47  1  0.140500  0.707500  0.256000  1
  H  H48  1  0.859500  0.292500  0.744000  1
  H  H49  1  0.143600  0.565400  0.634500  1
  H  H50  1  0.856400  0.434600  0.365500  1
  H  H51  1  0.149700  0.634600  0.666200  1
  H  H52  1  0.850300  0.365400  0.333800  1
  H  H53  1  0.139800  0.276500  0.857000  1
  H  H54  1  0.860200  0.723500  0.143000  1
  H  H55  1  0.037700  0.315800  0.911900  1
  H  H56  1  0.962300  0.684200  0.088100  1
  H  H57  1  0.075500  0.340200  0.003300  1
  H  H58  1  0.924500  0.659800  0.996700  1
  H  H59  1  0.126400  0.250400  0.975300  1
  H  H60  1  0.873600  0.749600  0.024700  1
  H  H61  1  0.267300  0.197300  0.891800  1
  H  H62  1  0.732700  0.802700  0.108200  1
  H  H63  1  0.331100  0.231600  0.890300  1
  H  H64  1  0.668900  0.768400  0.109700  1
  H  H65  1  0.329200  0.507700  0.400500  1
  H  H66  1  0.670800  0.492300  0.599500  1
  H  H67  1  0.330800  0.430100  0.427800  1
  H  H68  1  0.669200  0.569900  0.572200  1
  H  H69  1  0.192200  0.474100  0.461400  1
  H  H70  1  0.807800  0.525900  0.538600  1
  H  H71  1  0.189600  0.555900  0.444300  1
  H  H72  1  0.810400  0.444100  0.555700  1
  H  H73  1  0.220000  0.390400  0.383000  1
  H  H74  1  0.780000  0.609600  0.617000  1
  H  H75  1  0.131300  0.432800  0.369900  1
  H  H76  1  0.868700  0.567200  0.630100  1
  H  H77  1  0.917800  0.194200  0.182200  1
  H  H78  1  0.082200  0.805800  0.817800  1
  H  H79  1  0.995500  0.140100  0.109200  1
  H  H80  1  0.004500  0.859900  0.890800  1
  H  H81  1  0.040200  0.226200  0.088200  1
  H  H82  1  0.959800  0.773800  0.911800  1
  H  H83  1  0.974500  0.271400  0.167400  1
  H  H84  1  0.025500  0.728600  0.832600  1
  H  H85  1  0.081500  0.232200  0.198500  1
  H  H86  1  0.918500  0.767800  0.801500  1
  H  H87  1  0.148300  0.189300  0.117600  1
  H  H88  1  0.851700  0.810700  0.882400  1
  H  H89  1  0.149700  0.081600  0.147000  1
  H  H90  1  0.850300  0.918400  0.853000  1
  H  H91  1  0.106200  0.119200  0.228800  1
  H  H92  1  0.893800  0.880800  0.771200  1
  H  H93  1  0.920400  0.173100  0.247600  1
  H  H94  1  0.079600  0.826900  0.752400  1
  H  H95  1  0.960100  0.147600  0.162800  1
  H  H96  1  0.039900  0.852400  0.837200  1
  H  H97  1  0.939300  0.273200  0.232700  1
  H  H98  1  0.060700  0.726800  0.767300  1
  H  H99  1  0.940900  0.262000  0.154700  1
  H  H100  1  0.059100  0.738000  0.845300  1
  H  H101  1  0.078400  0.237500  0.104400  1
  H  H102  1  0.921600  0.762500  0.895600  1
  H  H103  1  0.076500  0.249500  0.182500  1
  H  H104  1  0.923500  0.750500  0.817500  1
  H  H105  1  0.160800  0.128800  0.162200  1
  H  H106  1  0.839200  0.871200  0.837800  1
  H  H107  1  0.131900  0.116000  0.101400  1
  H  H108  1  0.868100  0.884000  0.898600  1
  H  H109  1  0.724900  0.364800  0.231600  1.0
  H  H110  1  0.275100  0.635200  0.768400  1.0
  H  H111  1  0.763600  0.333333  0.148500  1.0
  H  H112  1  0.236400  0.666667  0.851500  1.0
  H  H113  1  0.699900  0.304500  0.208700  1.0
  H  H114  1  0.300100  0.695500  0.791300  1.0
  H  H115  1  0.709400  0.291400  0.087400  1.0
  H  H116  1  0.290600  0.708600  0.912600  1.0
  H  H117  1  0.653100  0.282800  0.005800  1.0
  H  H118  1  0.346900  0.717200  0.994200  1.0
  H  H119  1  0.444800  0.488100  0.096300  1.0
  H  H120  1  0.555200  0.511900  0.903700  1.0
  H  H121  1  0.502200  0.496000  0.177300  1.0
  H  H122  1  0.497800  0.504000  0.822700  1.0
  H  H123  1  0.631400  0.327800  0.904300  1.0
  H  H124  1  0.368600  0.672200  0.095700  1.0
  H  H125  1  0.333800  0.426900  0.962600  1.0
  H  H126  1  0.666200  0.573100  0.037400  1.0
  H  H127  1  0.379600  0.433700  0.051100  1.0
  H  H128  1  0.620400  0.566300  0.948900  1.0
  H  H129  1  0.278000  0.408100  0.769700  1.0
  H  H130  1  0.722000  0.591900  0.230300  1.0
  H  H131  1  0.304400  0.437000  0.862600  1.0
  H  H132  1  0.695600  0.563000  0.137400  1.0
  H  H133  1  0.616300  0.207200  0.656100  1.0
  H  H134  1  0.383700  0.792800  0.343900  1.0
  H  H135  1  0.599400  0.178600  0.558700  1.0
  H  H136  1  0.400600  0.821400  0.441300  1.0
  H  H137  1  0.249000  0.330500  0.584600  1.0
  H  H138  1  0.751000  0.669500  0.415400  1.0
  H  H139  1  0.258900  0.371500  0.683800  1.0
  H  H140  1  0.741100  0.628500  0.316200  1.0
  H  H141  1  0.510600  0.096600  0.337800  1.0
  H  H142  1  0.489400  0.903400  0.662200  1.0
  H  H143  1  0.264800  0.254600  0.374400  1.0
  H  H144  1  0.735200  0.745400  0.625600  1.0
  H  H145  1  0.253600  0.303400  0.481300  1.0
  H  H146  1  0.746400  0.696600  0.518700  1.0
  H  H147  1  0.532800  0.102300  0.220100  1.0
  H  H148  1  0.467200  0.897700  0.779900  1.0
  H  H149  1  0.552400  0.044300  0.116300  1.0
  H  H150  1  0.447600  0.955700  0.883700  1.0
  H  H151  1  0.292300  0.100000  0.200400  1.0
  H  H152  1  0.707700  0.900000  0.799600  1.0
  H  H153  1  0.273600  0.158200  0.306900  1.0
  H  H154  1  0.726400  0.841800  0.693100  1.0
  H  H155  1  0.391300  0.004400  0.027100  1.0
  H  H156  1  0.608700  0.995600  0.972900  1.0
  H  H157  1  0.326000  0.083800  0.078900  1.0
  H  H158  1  0.674000  0.916200  0.921100  1.0
  H  H159  1  0.342800  0.004900  0.111900  1.0
  H  H160  1  0.657200  0.995100  0.888100  1.0
  H  H161  1  0.438400  0.167500  0.865300  1.0
  H  H162  1  0.561600  0.832500  0.134700  1.0
  H  H163  1  0.581300  0.149100  0.807400  1.0
  H  H164  1  0.418700  0.850900  0.192600  1.0
  H  H165  1  0.592200  0.168500  0.997800  1.0
  H  H166  1  0.407800  0.831500  0.002200  1.0
  H  H167  1  0.445200  0.189600  0.056400  1.0
  H  H168  1  0.554800  0.810400  0.943600  1.0
  H  H169  1  0.892800  0.049800  0.846000  1.0
  H  H170  1  0.107200  0.950200  0.154000  1.0
  H  H171  1  0.746200  0.078800  0.921300  1.0
  H  H172  1  0.253800  0.921200  0.078700  1.0
  H  H173  1  0.833900  0.299300  0.528600  1.0
  H  H174  1  0.166100  0.700700  0.471400  1.0
  H  H175  1  0.958700  0.212800  0.543600  1.0
  H  H176  1  0.041300  0.787200  0.456400  1.0
  H  H177  1  0.698200  0.303100  0.517400  1.0
  H  H178  1  0.301800  0.696900  0.482600  1.0
  H  H179  1  0.564700  0.380200  0.508300  1.0
  H  H180  1  0.435300  0.619800  0.491700  1.0
  H  H181  1  0.472500  0.495000  0.705400  1.0
  H  H182  1  0.527500  0.505000  0.294600  1.0
  H  H183  1  0.602700  0.414100  0.715100  1.0
  H  H184  1  0.397300  0.585900  0.284900  1.0
  H  H185  1  0.405900  0.418300  0.562100  1.0
  H  H186  1  0.594100  0.581700  0.437900  1.0
  H  H187  1  0.439500  0.470300  0.505900  1.0
  H  H188  1  0.560500  0.529700  0.494100  1.0
  H  H189  1  0.296000  0.578800  0.587300  1.0
  H  H190  1  0.704000  0.421200  0.412700  1.0
  H  H191  1  0.294700  0.529100  0.529100  1.0
  H  H192  1  0.705300  0.470900  0.470900  1.0
  H  H193  1  0.212900  0.600200  0.691000  1.0
  H  H194  1  0.787100  0.399800  0.309000  1.0
  H  H195  1  0.245500  0.523000  0.725500  1.0
  H  H196  1  0.754500  0.477000  0.274500  1.0
  H  H197  1  0.088800  0.599700  0.790800  1.0
  H  H198  1  0.911200  0.400300  0.209200  1.0
  H  H199  1  0.075700  0.592200  0.718200  1.0
  H  H200  1  0.924300  0.407800  0.281800  1.0
  H  H201  1  0.001800  0.510400  0.788600  1.0
  H  H202  1  0.998200  0.489600  0.211400  1.0
  H  H203  1  0.030300  0.515900  0.852100  1.0
  H  H204  1  0.969700  0.484100  0.147900  1.0
  H  H205  1  0.022300  0.398400  0.851000  1.0
  H  H206  1  0.977700  0.601600  0.149000  1.0
  H  H207  1  0.088500  0.375300  0.767000  1.0
  H  H208  1  0.911500  0.624700  0.233000  1.0
  H  H209  1  0.199200  0.267100  0.789100  1.0
  H  H210  1  0.800800  0.732900  0.210900  1.0
  H  H211  1  0.123700  0.287400  0.869300  1.0
  H  H212  1  0.876300  0.712600  0.130700  1.0
  H  H213  1  0.269400  0.210700  0.865600  1.0
  H  H214  1  0.730600  0.789300  0.134400  1.0
  H  H215  1  0.293500  0.279500  0.837500  1.0
  H  H216  1  0.706500  0.720500  0.162500  1.0
  H  H217  1  0.164400  0.228200  0.995800  1.0
  H  H218  1  0.835600  0.771800  0.004200  1.0
  H  H219  1  0.188200  0.273600  0.040000  1.0
  H  H220  1  0.811800  0.726400  0.960000  1.0
  H  H221  1  0.295200  0.133700  0.976700  1.0
  H  H222  1  0.704800  0.866300  0.023300  1.0
  H  H223  1  0.332400  0.179900  0.915700  1.0
  H  H224  1  0.667600  0.820100  0.084300  1.0
  H  H225  1  0.326800  0.108500  0.615200  1.0
  H  H226  1  0.673200  0.891500  0.384800  1.0
  H  H227  1  0.473100  0.061500  0.527900  1.0
  H  H228  1  0.526900  0.938500  0.472100  1.0
  H  H229  1  0.561200  0.036300  0.684100  1.0
  H  H230  1  0.438800  0.963700  0.315900  1.0
  H  H231  1  0.415600  0.085600  0.770800  1.0
  H  H232  1  0.584400  0.914400  0.229200  1.0
  H  H233  1  0.824200  0.888600  0.511400  1.0
  H  H234  1  0.175800  0.111400  0.488600  1.0
  H  H235  1  0.678900  0.932800  0.595800  1.0
  H  H236  1  0.321100  0.067200  0.404200  1.0
  H  H237  1  0.761400  0.148000  0.201200  1.0
  H  H238  1  0.238600  0.852000  0.798800  1.0
  H  H239  1  0.885000  0.050200  0.207400  1.0
  H  H240  1  0.115000  0.949800  0.792600  1.0
  H  H241  1  0.606300  0.203400  0.208900  1.0
  H  H242  1  0.393700  0.796600  0.791100  1.0
  H  H243  1  0.480300  0.313800  0.218000  1.0
  H  H244  1  0.519700  0.686200  0.782000  1.0
  H  H245  1  0.448500  0.385900  0.411700  1.0
  H  H246  1  0.551500  0.614100  0.588300  1.0
  H  H247  1  0.571100  0.274700  0.406000  1.0
  H  H248  1  0.428900  0.725300  0.594000  1.0
  H  H249  1  0.324000  0.369400  0.296100  1.0
  H  H250  1  0.676000  0.630600  0.703900  1.0
  H  H251  1  0.378600  0.399800  0.229300  1.0
  H  H252  1  0.621400  0.600200  0.770700  1.0
  H  H253  1  0.265400  0.527600  0.275900  1.0
  H  H254  1  0.734600  0.472400  0.724100  1.0
  H  H255  1  0.227300  0.474700  0.258900  1.0
  H  H256  1  0.772700  0.525300  0.741100  1.0
  H  H257  1  0.248400  0.423200  0.420900  1.0
  H  H258  1  0.751600  0.576800  0.579100  1.0
  H  H259  1  0.210200  0.391200  0.378700  1.0
  H  H260  1  0.789800  0.608800  0.621300  1.0
  H  H261  1  0.072300  0.517100  0.476400  1.0
  H  H262  1  0.927700  0.482900  0.523600  1.0
  H  H263  1  0.082000  0.431300  0.475100  1.0
  H  H264  1  0.918000  0.568700  0.524900  1.0
  H  H265  1  0.028900  0.514800  0.611600  1.0
  H  H266  1  0.971100  0.485200  0.388400  1.0
  H  H267  1  0.101800  0.454700  0.637300  1.0
  H  H268  1  0.898200  0.545300  0.362700  1.0
  H  H269  1  0.985100  0.418700  0.650800  1.0
  H  H270  1  0.014900  0.581300  0.349200  1.0
  H  H271  1  0.026200  0.403200  0.564100  1.0
  H  H272  1  0.973800  0.596800  0.435900  1.0
  H  H273  1  0.143900  0.225900  0.574600  1.0
  H  H274  1  0.856100  0.774100  0.425400  1.0
  H  H275  1  0.041500  0.283100  0.597000  1.0
  H  H276  1  0.958500  0.716900  0.403000  1.0
  H  H277  1  0.044800  0.294700  0.720000  1.0
  H  H278  1  0.955200  0.705300  0.280000  1.0
  H  H279  1  0.027000  0.228500  0.697900  1.0
  H  H280  1  0.973000  0.771500  0.302100  1.0
  H  H281  1  0.089200  0.140500  0.766600  1.0
  H  H282  1  0.910800  0.859500  0.233400  1.0
  H  H283  1  0.106700  0.201300  0.799000  1.0
  H  H284  1  0.893300  0.798700  0.201000  1.0
  H  H285  1  0.207700  0.069400  0.797300  1.0
  H  H286  1  0.792300  0.930600  0.202700  1.0
  H  H287  1  0.247800  0.060900  0.711100  1.0
  H  H288  1  0.752200  0.939100  0.288900  1.0
  C  C289  1  0.868000  0.182000  0.365000  1
  C  C290  1  0.132000  0.818000  0.635000  1
  C  C291  1  0.097000  0.510000  0.979000  1
  C  C292  1  0.903000  0.490000  0.021000  1
  C  C293  1  0.813000  0.988000  0.683000  1
  C  C294  1  0.187000  0.012000  0.317000  1
  C  C295  1  0.900000  0.980000  0.635000  1
  C  C296  1  0.100000  0.020000  0.365000  1
  C  C297  1  0.886000  0.014000  0.575000  1
  C  C298  1  0.114000  0.986000  0.425000  1
  C  C299  1  0.792000  0.068000  0.600000  1
  C  C300  1  0.208000  0.932000  0.400000  1
  C  C301  1  0.165000  0.692000  0.152000  1
  C  C302  1  0.835000  0.308000  0.848000  1
  C  C303  1  0.219000  0.615000  0.111000  1
  C  C304  1  0.781000  0.385000  0.889000  1
  C  C305  1  0.251000  0.609000  0.204000  1
  C  C306  1  0.749000  0.391000  0.796000  1
  C  C307  1  0.160000  0.665000  0.219000  1
  C  C308  1  0.840000  0.335000  0.781000  1
  C  C309  1  0.162000  0.580000  0.668000  1
  C  C310  1  0.838000  0.420000  0.332000  1
  C  C311  1  0.095000  0.317000  0.898000  1
  C  C312  1  0.905000  0.683000  0.102000  1
  C  C313  1  0.121000  0.301000  0.961000  1
  C  C314  1  0.879000  0.699000  0.039000  1
  C  C315  1  0.278000  0.226000  0.922000  1
  C  C316  1  0.722000  0.774000  0.078000  1
  C  C317  1  0.315000  0.466000  0.394000  1
  C  C318  1  0.685000  0.534000  0.606000  1
  C  C319  1  0.215000  0.500000  0.423000  1
  C  C320  1  0.785000  0.500000  0.577000  1
  C  C321  1  0.166000  0.439000  0.393000  1
  C  C322  1  0.834000  0.561000  0.607000  1
  C  C323  1  0.980000  0.167000  0.150000  1
  C  C324  1  0.020000  0.833000  0.850000  1
  C  C325  1  0.020000  0.221000  0.140000  1
  C  C326  1  0.980000  0.779000  0.860000  1
  C  C327  1  0.090000  0.200000  0.160000  1
  C  C328  1  0.910000  0.800000  0.840000  1
  C  C329  1  0.098000  0.120000  0.180000  1
  C  C330  1  0.902000  0.880000  0.820000  1
  C  C331  1  0.970000  0.238000  0.190000  1
  C  C332  1  0.030000  0.762000  0.810000  1
  C  C333  1  0.063000  0.222000  0.150000  1
  C  C334  1  0.937000  0.778000  0.850000  1
  C  C335  1  0.110000  0.141000  0.150000  1
  C  C336  1  0.890000  0.859000  0.850000  1
  C  C337  1  0.050000  0.110000  0.200000  1
  C  C338  1  0.950000  0.890000  0.800000  1
  C  C339  1  0.258000  0.408000  0.169000  1
  C  C340  1  0.742000  0.592000  0.831000  1
  C  C341  1  0.928000  0.223000  0.005000  1
  C  C342  1  0.072000  0.777000  0.995000  1
  C  C343  1  0.980000  0.111000  0.899000  1
  C  C344  1  0.020000  0.889000  0.101000  1
  C  C345  1  0.961000  0.109000  0.985000  1
  C  C346  1  0.039000  0.891000  0.015000  1
  C  C347  1  0.929000  0.171000  0.925000  1
  C  C348  1  0.071000  0.829000  0.075000  1
  C  C349  1  0.908000  0.166000  0.070000  1
  C  C350  1  0.092000  0.834000  0.930000  1
  C  C351  1  0.270000  0.312000  0.194000  1
  C  C352  1  0.730000  0.688000  0.806000  1
  C  C353  1  0.180000  0.404000  0.148000  1
  C  C354  1  0.820000  0.596000  0.852000  1
  C  C355  1  0.172000  0.425000  0.204000  1
  C  C356  1  0.828000  0.575000  0.796000  1
  C  C357  1  0.160000  0.360000  0.184000  1
  C  C358  1  0.840000  0.640000  0.816000  1
  C  C359  1  0.240000  0.300000  0.172000  1
  C  C360  1  0.760000  0.700000  0.828000  1
  C  C361  1  0.310000  0.330000  0.200000  1
  C  C362  1  0.690000  0.670000  0.800000  1
  C  C363  1  0.310000  0.340000  0.140000  1
  C  C364  1  0.690000  0.660000  0.860000  1
  C  C365  1  0.820000  0.115000  0.510000  1
  C  C366  1  0.180000  0.885000  0.490000  1
  C  C367  1  0.880000  0.140000  0.030000  1
  C  C368  1  0.120000  0.860000  0.970000  1
  C  C369  1  0.880000  0.200000  0.050000  1
  C  C370  1  0.120000  0.800000  0.950000  1
  C  C371  1  0.712000  0.348000  0.195000  1.0
  C  C372  1  0.288000  0.652000  0.805000  1.0
  C  C373  1  0.612000  0.396000  0.139000  1.0
  C  C374  1  0.388000  0.604000  0.861000  1.0
  C  C375  1  0.656000  0.332000  0.089000  1.0
  C  C376  1  0.344000  0.668000  0.911000  1.0
  C  C377  1  0.622000  0.327000  0.040000  1.0
  C  C378  1  0.378000  0.673000  0.960000  1.0
  C  C379  1  0.544000  0.384000  0.041000  1.0
  C  C380  1  0.456000  0.616000  0.959000  1.0
  C  C381  1  0.499000  0.448000  0.094000  1.0
  C  C382  1  0.501000  0.552000  0.906000  1.0
  C  C383  1  0.534000  0.453000  0.142000  1.0
  C  C384  1  0.466000  0.547000  0.858000  1.0
  C  C385  1  0.512000  0.382000  0.987000  1.0
  C  C386  1  0.488000  0.618000  0.013000  1.0
  C  C387  1  0.570000  0.348000  0.917000  1.0
  C  C388  1  0.430000  0.652000  0.083000  1.0
  C  C389  1  0.457000  0.370000  0.883000  1.0
  C  C390  1  0.543000  0.630000  0.117000  1.0
  C  C391  1  0.395000  0.406000  0.952000  1.0
  C  C392  1  0.605000  0.594000  0.048000  1.0
  C  C393  1  0.422000  0.411000  0.004000  1.0
  C  C394  1  0.578000  0.589000  0.996000  1.0
  C  C395  1  0.437000  0.358000  0.823000  1.0
  C  C396  1  0.563000  0.642000  0.177000  1.0
  C  C397  1  0.488000  0.288000  0.713000  1.0
  C  C398  1  0.512000  0.712000  0.287000  1.0
  C  C399  1  0.403000  0.324000  0.712000  1.0
  C  C400  1  0.597000  0.676000  0.288000  1.0
  C  C401  1  0.335000  0.381000  0.769000  1.0
  C  C402  1  0.665000  0.619000  0.231000  1.0
  C  C403  1  0.351000  0.398000  0.824000  1.0
  C  C404  1  0.649000  0.602000  0.176000  1.0
  C  C405  1  0.560000  0.232000  0.655000  1.0
  C  C406  1  0.440000  0.768000  0.345000  1.0
  C  C407  1  0.550000  0.215000  0.598000  1.0
  C  C408  1  0.450000  0.785000  0.402000  1.0
  C  C409  1  0.465000  0.249000  0.594000  1.0
  C  C410  1  0.535000  0.751000  0.406000  1.0
  C  C411  1  0.381000  0.257000  0.532000  1.0
  C  C412  1  0.619000  0.743000  0.468000  1.0
  C  C413  1  0.304000  0.311000  0.588000  1.0
  C  C414  1  0.696000  0.689000  0.412000  1.0
  C  C415  1  0.310000  0.334000  0.646000  1.0
  C  C416  1  0.690000  0.666000  0.354000  1.0
  C  C417  1  0.392000  0.303000  0.651000  1.0
  C  C418  1  0.608000  0.697000  0.349000  1.0
  C  C419  1  0.379000  0.228000  0.468000  1.0
  C  C420  1  0.621000  0.772000  0.532000  1.0
  C  C421  1  0.458000  0.140000  0.366000  1.0
  C  C422  1  0.542000  0.860000  0.634000  1.0
  C  C423  1  0.391000  0.169000  0.342000  1.0
  C  C424  1  0.609000  0.831000  0.658000  1.0
  C  C425  1  0.313000  0.232000  0.387000  1.0
  C  C426  1  0.687000  0.768000  0.613000  1.0
  C  C427  1  0.307000  0.261000  0.451000  1.0
  C  C428  1  0.693000  0.739000  0.549000  1.0
  C  C429  1  0.402000  0.135000  0.275000  1.0
  C  C430  1  0.598000  0.865000  0.725000  1.0
  C  C431  1  0.483000  0.101000  0.217000  1.0
  C  C432  1  0.517000  0.899000  0.783000  1.0
  C  C433  1  0.496000  0.067000  0.155000  1.0
  C  C434  1  0.504000  0.933000  0.845000  1.0
  C  C435  1  0.425000  0.066000  0.149000  1.0
  C  C436  1  0.575000  0.934000  0.851000  1.0
  C  C437  1  0.341000  0.100000  0.205000  1.0
  C  C438  1  0.659000  0.900000  0.795000  1.0
  C  C439  1  0.330000  0.135000  0.268000  1.0
  C  C440  1  0.670000  0.865000  0.732000  1.0
  C  C441  1  0.370000  0.031000  0.075000  1.0
  C  C442  1  0.630000  0.969000  0.925000  1.0
  C  C443  1  0.426000  0.180000  0.964000  1.0
  C  C444  1  0.574000  0.820000  0.036000  1.0
  C  C445  1  0.468000  0.168000  0.894000  1.0
  C  C446  1  0.532000  0.832000  0.106000  1.0
  C  C447  1  0.554000  0.158000  0.859000  1.0
  C  C448  1  0.446000  0.842000  0.141000  1.0
  C  C449  1  0.601000  0.159000  0.896000  1.0
  C  C450  1  0.399000  0.841000  0.104000  1.0
  C  C451  1  0.561000  0.169000  0.970000  1.0
  C  C452  1  0.439000  0.831000  0.030000  1.0
  C  C453  1  0.473000  0.181000  0.005000  1.0
  C  C454  1  0.527000  0.819000  0.995000  1.0
  C  C455  1  0.693000  0.147000  0.857000  1.0
  C  C456  1  0.307000  0.853000  0.143000  1.0
  C  C457  1  0.794000  0.167000  0.756000  1.0
  C  C458  1  0.206000  0.833000  0.244000  1.0
  C  C459  1  0.865000  0.116000  0.770000  1.0
  C  C460  1  0.135000  0.884000  0.230000  1.0
  C  C461  1  0.846000  0.083000  0.833000  1.0
  C  C462  1  0.154000  0.917000  0.167000  1.0
  C  C463  1  0.760000  0.100000  0.877000  1.0
  C  C464  1  0.240000  0.900000  0.123000  1.0
  C  C465  1  0.808000  0.206000  0.692000  1.0
  C  C466  1  0.192000  0.794000  0.308000  1.0
  C  C467  1  0.743000  0.293000  0.625000  1.0
  C  C468  1  0.257000  0.707000  0.375000  1.0
  C  C469  1  0.828000  0.275000  0.571000  1.0
  C  C470  1  0.172000  0.725000  0.429000  1.0
  C  C471  1  0.902000  0.223000  0.579000  1.0
  C  C472  1  0.098000  0.777000  0.421000  1.0
  C  C473  1  0.893000  0.187000  0.639000  1.0
  C  C474  1  0.107000  0.813000  0.361000  1.0
  C  C475  1  0.662000  0.349000  0.619000  1.0
  C  C476  1  0.338000  0.651000  0.381000  1.0
  C  C477  1  0.651000  0.341000  0.556000  1.0
  C  C478  1  0.349000  0.659000  0.444000  1.0
  C  C479  1  0.572000  0.387000  0.550000  1.0
  C  C480  1  0.428000  0.613000  0.450000  1.0
  C  C481  1  0.506000  0.444000  0.606000  1.0
  C  C482  1  0.494000  0.556000  0.394000  1.0
  C  C483  1  0.518000  0.455000  0.668000  1.0
  C  C484  1  0.482000  0.545000  0.332000  1.0
  C  C485  1  0.595000  0.407000  0.673000  1.0
  C  C486  1  0.405000  0.593000  0.327000  1.0
  C  C487  1  0.401000  0.470000  0.556000  1.0
  C  C488  1  0.599000  0.530000  0.444000  1.0
  C  C489  1  0.306000  0.527000  0.573000  1.0
  C  C490  1  0.694000  0.473000  0.427000  1.0
  C  C491  1  0.209000  0.551000  0.699000  1.0
  C  C492  1  0.791000  0.449000  0.301000  1.0
  C  C493  1  0.114000  0.568000  0.744000  1.0
  C  C494  1  0.886000  0.432000  0.256000  1.0
  C  C495  1  0.050000  0.487000  0.805000  1.0
  C  C496  1  0.950000  0.513000  0.195000  1.0
  C  C497  1  0.073000  0.404000  0.813000  1.0
  C  C498  1  0.927000  0.596000  0.187000  1.0
  C  C499  1  0.175000  0.296000  0.837000  1.0
  C  C500  1  0.825000  0.704000  0.163000  1.0
  C  C501  1  0.245000  0.267000  0.867000  1.0
  C  C502  1  0.755000  0.733000  0.133000  1.0
  C  C503  1  0.206000  0.248000  0.992000  1.0
  C  C504  1  0.794000  0.752000  0.008000  1.0
  C  C505  1  0.299000  0.182000  0.968000  1.0
  C  C506  1  0.701000  0.818000  0.032000  1.0
  C  C507  1  0.359000  0.101000  0.701000  1.0
  C  C508  1  0.641000  0.899000  0.299000  1.0
  C  C509  1  0.374000  0.094000  0.629000  1.0
  C  C510  1  0.626000  0.906000  0.371000  1.0
  C  C511  1  0.462000  0.066000  0.577000  1.0
  C  C512  1  0.538000  0.934000  0.423000  1.0
  C  C513  1  0.531000  0.045000  0.596000  1.0
  C  C514  1  0.469000  0.955000  0.404000  1.0
  C  C515  1  0.514000  0.051000  0.670000  1.0
  C  C516  1  0.486000  0.949000  0.330000  1.0
  C  C517  1  0.428000  0.080000  0.721000  1.0
  C  C518  1  0.572000  0.920000  0.279000  1.0
  C  C519  1  0.623000  0.015000  0.542000  1.0
  C  C520  1  0.377000  0.985000  0.458000  1.0
  C  C521  1  0.724000  0.023000  0.432000  1.0
  C  C522  1  0.276000  0.977000  0.568000  1.0
  C  C523  1  0.795000  0.963000  0.440000  1.0
  C  C524  1  0.205000  0.037000  0.560000  1.0
  C  C525  1  0.778000  0.929000  0.503000  1.0
  C  C526  1  0.222000  0.071000  0.497000  1.0
  C  C527  1  0.692000  0.956000  0.553000  1.0
  C  C528  1  0.308000  0.044000  0.447000  1.0
  C  C529  1  0.738000  0.061000  0.367000  1.0
  C  C530  1  0.262000  0.939000  0.633000  1.0
  C  C531  1  0.677000  0.156000  0.306000  1.0
  C  C532  1  0.323000  0.844000  0.694000  1.0
  C  C533  1  0.758000  0.127000  0.245000  1.0
  C  C534  1  0.242000  0.873000  0.755000  1.0
  C  C535  1  0.830000  0.068000  0.248000  1.0
  C  C536  1  0.170000  0.932000  0.752000  1.0
  C  C537  1  0.822000  0.034000  0.311000  1.0
  C  C538  1  0.178000  0.966000  0.689000  1.0
  C  C539  1  0.897000  0.975000  0.321000  1.0
  C  C540  1  0.103000  0.025000  0.679000  1.0
  C  C541  1  0.954000  0.097000  0.717000  1.0
  C  C542  1  0.046000  0.903000  0.283000  1.0
  C  C543  1  0.967000  0.131000  0.653000  1.0
  C  C544  1  0.033000  0.869000  0.347000  1.0
  C  C545  1  0.884000  0.941000  0.385000  1.0
  C  C546  1  0.116000  0.059000  0.615000  1.0
  C  C547  1  0.600000  0.227000  0.308000  1.0
  C  C548  1  0.400000  0.773000  0.692000  1.0
  C  C549  1  0.573000  0.240000  0.251000  1.0
  C  C550  1  0.427000  0.760000  0.749000  1.0
  C  C551  1  0.499000  0.305000  0.256000  1.0
  C  C552  1  0.501000  0.695000  0.744000  1.0
  C  C553  1  0.453000  0.358000  0.316000  1.0
  C  C554  1  0.547000  0.642000  0.684000  1.0
  C  C555  1  0.480000  0.348000  0.371000  1.0
  C  C556  1  0.520000  0.652000  0.629000  1.0
  C  C557  1  0.553000  0.282000  0.368000  1.0
  C  C558  1  0.447000  0.718000  0.632000  1.0
  C  C559  1  0.337000  0.413000  0.281000  1.0
  C  C560  1  0.663000  0.587000  0.719000  1.0
  C  C561  1  0.253000  0.483000  0.290000  1.0
  C  C562  1  0.747000  0.517000  0.710000  1.0
  C  C563  1  0.199000  0.437000  0.407000  1.0
  C  C564  1  0.801000  0.563000  0.593000  1.0
  C  C565  1  0.112000  0.463000  0.473000  1.0
  C  C566  1  0.888000  0.537000  0.527000  1.0
  C  C567  1  0.077000  0.462000  0.601000  1.0
  C  C568  1  0.923000  0.538000  0.399000  1.0
  C  C569  1  0.039000  0.406000  0.606000  1.0
  C  C570  1  0.961000  0.594000  0.394000  1.0
  C  C571  1  0.092000  0.270000  0.609000  1.0
  C  C572  1  0.908000  0.730000  0.391000  1.0
  C  C573  1  0.071000  0.249000  0.685000  1.0
  C  C574  1  0.929000  0.751000  0.315000  1.0
  C  C575  1  0.132000  0.161000  0.759000  1.0
  C  C576  1  0.868000  0.839000  0.241000  1.0
  C  C577  1  0.219000  0.097000  0.755000  1.0
  C  C578  1  0.781000  0.903000  0.245000  1.0
  N  N579  1  0.544000  0.343000  0.866000  1.0
  N  N580  1  0.456000  0.657000  0.134000  1.0
  N  N581  1  0.504000  0.304000  0.768000  1.0
  N  N582  1  0.496000  0.696000  0.232000  1.0
  N  N583  1  0.460000  0.228000  0.535000  1.0
  N  N584  1  0.540000  0.772000  0.465000  1.0
  N  N585  1  0.454000  0.167000  0.426000  1.0
  N  N586  1  0.546000  0.833000  0.574000  1.0
  N  N587  1  0.709000  0.182000  0.797000  1.0
  N  N588  1  0.291000  0.818000  0.203000  1.0
  N  N589  1  0.734000  0.259000  0.685000  1.0
  N  N590  1  0.266000  0.741000  0.315000  1.0
  N  N591  1  0.639000  0.048000  0.481000  1.0
  N  N592  1  0.361000  0.952000  0.519000  1.0
  N  N593  1  0.668000  0.123000  0.365000  1.0
  N  N594  1  0.332000  0.877000  0.635000  1.0
  N  N595  1  0.978000  0.955000  0.269000  1.0
  N  N596  1  0.022000  0.045000  0.731000  1.0
  N  N597  1  0.048000  0.112000  0.602000  1.0
  N  N598  1  0.952000  0.888000  0.398000  1.0
  Cl  Cl599  1  0.771000  0.250000  0.359000  1
  Cl  Cl600  1  0.229000  0.750000  0.641000  1
  Cl  Cl601  1  0.841000  0.136000  0.440000  1
  Cl  Cl602  1  0.159000  0.864000  0.560000  1
  Cl  Cl603  1  0.137000  0.570000  0.927000  1
  Cl  Cl604  1  0.863000  0.430000  0.073000  1
  Cl  Cl605  1  0.156000  0.469000  0.032000  1
  Cl  Cl606  1  0.844000  0.531000  0.968000  1
  Cl  Cl607  1  0.017000  0.597000  0.972000  1
  Cl  Cl608  1  0.983000  0.403000  0.028000  1
  Cl  Cl609  1  0.185000  0.522000  0.979000  1
  Cl  Cl610  1  0.815000  0.478000  0.021000  1
  O  O611  1  0.749000  0.049000  0.667000  1
  O  O612  1  0.251000  0.951000  0.333000  1
  O  O613  1  0.288000  0.575000  0.132000  1
  O  O614  1  0.712000  0.425000  0.868000  1
  O  O615  1  0.255000  0.533000  0.649000  1
  O  O616  1  0.745000  0.467000  0.351000  1
  O  O617  1  0.088000  0.391000  0.878000  1
  O  O618  1  0.912000  0.609000  0.122000  1
  O  O619  1  0.022000  0.115000  0.195000  1
  O  O620  1  0.978000  0.885000  0.805000  1
  O  O621  1  0.969000  0.167000  0.201000  1
  O  O622  1  0.031000  0.833000  0.799000  1
  O  O623  1  0.638000  0.409000  0.189000  1.0
  O  O624  1  0.362000  0.591000  0.811000  1.0
  O  O625  1  0.442000  0.031000  0.084000  1.0
  O  O626  1  0.558000  0.969000  0.916000  1.0
  O  O627  1  0.344000  0.194000  0.007000  1.0
  O  O628  1  0.656000  0.806000  0.993000  1.0
  O  O629  1  0.426000  0.494000  0.606000  1.0
  O  O630  1  0.574000  0.506000  0.394000  1.0
  O  O631  1  0.244000  0.507000  0.630000  1.0
  O  O632  1  0.756000  0.493000  0.370000  1.0
  O  O633  1  0.129000  0.490000  0.753000  1.0
  O  O634  1  0.871000  0.510000  0.247000  1.0
  O  O635  1  0.147000  0.376000  0.832000  1.0
  O  O636  1  0.853000  0.624000  0.168000  1.0
  O  O637  1  0.205000  0.303000  0.941000  1.0
  O  O638  1  0.795000  0.697000  0.059000  1.0
  O  O639  1  0.276000  0.130000  0.755000  1.0
  O  O640  1  0.724000  0.870000  0.245000  1.0
  O  O641  1  0.379000  0.426000  0.323000  1.0
  O  O642  1  0.621000  0.574000  0.677000  1.0
  O  O643  1  0.190000  0.500000  0.365000  1.0
  O  O644  1  0.810000  0.500000  0.635000  1.0
  O  O645  1  0.145000  0.450000  0.530000  1.0
  O  O646  1  0.855000  0.550000  0.470000  1.0
  O  O647  1  0.111000  0.334000  0.607000  1.0
  O  O648  1  0.889000  0.666000  0.393000  1.0
  O  O649  1  0.150000  0.192000  0.691000  1.0
  O  O650  1  0.850000  0.808000  0.309000  1.0
  F  F651  1  0.844000  0.006000  0.986000  1
  F  F652  1  0.156000  0.994000  0.014000  1
  F  F653  1  0.812000  0.926000  0.063000  1
  F  F654  1  0.188000  0.074000  0.937000  1
  F  F655  1  0.832000  0.017000  0.098000  1
  F  F656  1  0.168000  0.983000  0.902000  1
  F  F657  1  0.698000  0.031000  0.142000  1
  F  F658  1  0.302000  0.969000  0.858000  1
  F  F659  1  0.725000  0.106000  0.064000  1
  F  F660  1  0.275000  0.894000  0.936000  1
  F  F661  1  0.711000  0.013000  0.028000  1
  F  F662  1  0.289000  0.987000  0.972000  1
  F  F663  1  0.890000  0.686000  0.621000  1
  F  F664  1  0.110000  0.314000  0.379000  1
  F  F665  1  0.001000  0.666000  0.648000  1
  F  F666  1  0.999000  0.334000  0.352000  1
  F  F667  1  0.017000  0.674000  0.532000  1
  F  F668  1  0.983000  0.326000  0.468000  1
  F  F669  1  0.011000  0.767000  0.593000  1
  F  F670  1  0.989000  0.233000  0.407000  1
  F  F671  1  0.898000  0.785000  0.570000  1
  F  F672  1  0.102000  0.215000  0.430000  1
  F  F673  1  0.887000  0.778000  0.683000  1
  F  F674  1  0.113000  0.222000  0.317000  1
