# generated using pymatgen
data_Zn4B4P3H76C132(N2F)18
_symmetry_space_group_name_H-M   'P 1'
_cell_length_a   19.63580947
_cell_length_b   19.63580947
_cell_length_c   19.63580947
_cell_angle_alpha   84.98606496
_cell_angle_beta   84.98606496
_cell_angle_gamma   84.98606496
_symmetry_Int_Tables_number   1
_chemical_formula_structural   Zn4B4P3H76C132(N2F)18
_chemical_formula_sum   'Zn8 B8 P6 H152 C264 N72 F36'
_cell_volume   7488.74548865
_cell_formula_units_Z   2
loop_
 _symmetry_equiv_pos_site_id
 _symmetry_equiv_pos_as_xyz
  1  'x, y, z'
loop_
 _atom_site_type_symbol
 _atom_site_label
 _atom_site_symmetry_multiplicity
 _atom_site_fract_x
 _atom_site_fract_y
 _atom_site_fract_z
 _atom_site_occupancy
  B  B1  1  0.210800  0.210800  0.210800  1
  B  B2  1  0.789200  0.789200  0.789200  1
  B  B3  1  0.197800  0.368600  0.339600  1.0
  B  B4  1  0.339600  0.197800  0.368600  1.0
  B  B5  1  0.368600  0.339600  0.197800  1.0
  B  B6  1  0.802200  0.631400  0.660400  1.0
  B  B7  1  0.660400  0.802200  0.631400  1.0
  B  B8  1  0.631400  0.660400  0.802200  1.0
  C  C9  1  0.838200  0.089900  0.418400  1
  C  C10  1  0.418400  0.838200  0.089900  1
  C  C11  1  0.089900  0.418400  0.838200  1
  C  C12  1  0.161800  0.910100  0.581600  1
  C  C13  1  0.581600  0.161800  0.910100  1
  C  C14  1  0.910100  0.581600  0.161800  1
  C  C15  1  0.765200  0.118100  0.434100  1
  C  C16  1  0.434100  0.765200  0.118100  1
  C  C17  1  0.118100  0.434100  0.765200  1
  C  C18  1  0.234800  0.881900  0.565900  1
  C  C19  1  0.565900  0.234800  0.881900  1
  C  C20  1  0.881900  0.565900  0.234800  1
  C  C21  1  0.720400  0.135200  0.386200  1
  C  C22  1  0.386200  0.720400  0.135200  1
  C  C23  1  0.135200  0.386200  0.720400  1
  C  C24  1  0.279600  0.864800  0.613800  1
  C  C25  1  0.613800  0.279600  0.864800  1
  C  C26  1  0.864800  0.613800  0.279600  1
  C  C27  1  0.060500  0.544200  0.481300  1
  C  C28  1  0.481300  0.060500  0.544200  1
  C  C29  1  0.544200  0.481300  0.060500  1
  C  C30  1  0.939500  0.455800  0.518700  1
  C  C31  1  0.518700  0.939500  0.455800  1
  C  C32  1  0.455800  0.518700  0.939500  1
  C  C33  1  0.102300  0.532500  0.557700  1
  C  C34  1  0.557700  0.102300  0.532500  1
  C  C35  1  0.532500  0.557700  0.102300  1
  C  C36  1  0.897700  0.467500  0.442300  1
  C  C37  1  0.442300  0.897700  0.467500  1
  C  C38  1  0.467500  0.442300  0.897700  1
  C  C39  1  0.153500  0.578200  0.515400  1
  C  C40  1  0.515400  0.153500  0.578200  1
  C  C41  1  0.578200  0.515400  0.153500  1
  C  C42  1  0.846500  0.421800  0.484600  1
  C  C43  1  0.484600  0.846500  0.421800  1
  C  C44  1  0.421800  0.484600  0.846500  1
  C  C45  1  0.052300  0.762500  0.301500  1
  C  C46  1  0.301500  0.052300  0.762500  1
  C  C47  1  0.762500  0.301500  0.052300  1
  C  C48  1  0.947700  0.237500  0.698500  1
  C  C49  1  0.698500  0.947700  0.237500  1
  C  C50  1  0.237500  0.698500  0.947700  1
  C  C51  1  0.054500  0.679700  0.333800  1
  C  C52  1  0.333800  0.054500  0.679700  1
  C  C53  1  0.679700  0.333800  0.054500  1
  C  C54  1  0.945500  0.320300  0.666200  1
  C  C55  1  0.666200  0.945500  0.320300  1
  C  C56  1  0.320300  0.666200  0.945500  1
  C  C57  1  0.021800  0.610100  0.357200  1
  C  C58  1  0.357200  0.021800  0.610100  1
  C  C59  1  0.610100  0.357200  0.021800  1
  C  C60  1  0.978200  0.389900  0.642800  1
  C  C61  1  0.642800  0.978200  0.389900  1
  C  C62  1  0.389900  0.642800  0.978200  1
  C  C63  1  0.091300  0.914600  0.720700  1
  C  C64  1  0.720700  0.091300  0.914600  1
  C  C65  1  0.914600  0.720700  0.091300  1
  C  C66  1  0.908700  0.085400  0.279300  1
  C  C67  1  0.279300  0.908700  0.085400  1
  C  C68  1  0.085400  0.279300  0.908700  1
  C  C69  1  0.153400  0.892800  0.774900  1
  C  C70  1  0.774900  0.153400  0.892800  1
  C  C71  1  0.892800  0.774900  0.153400  1
  C  C72  1  0.846600  0.107200  0.225100  1
  C  C73  1  0.225100  0.846600  0.107200  1
  C  C74  1  0.107200  0.225100  0.846600  1
  C  C75  1  0.050400  0.947700  0.782500  1
  C  C76  1  0.782500  0.050400  0.947700  1
  C  C77  1  0.947700  0.782500  0.050400  1
  C  C78  1  0.949600  0.052300  0.217500  1
  C  C79  1  0.217500  0.949600  0.052300  1
  C  C80  1  0.052300  0.217500  0.949600  1
  C  C81  1  0.145000  0.101100  0.552200  1.0
  C  C82  1  0.552200  0.145000  0.101100  1.0
  C  C83  1  0.101100  0.552200  0.145000  1.0
  C  C84  1  0.855000  0.898900  0.447800  1.0
  C  C85  1  0.447800  0.855000  0.898900  1.0
  C  C86  1  0.898900  0.447800  0.855000  1.0
  C  C87  1  0.142900  0.093000  0.620900  1.0
  C  C88  1  0.620900  0.142900  0.093000  1.0
  C  C89  1  0.093000  0.620900  0.142900  1.0
  C  C90  1  0.857100  0.907000  0.379100  1.0
  C  C91  1  0.379100  0.857100  0.907000  1.0
  C  C92  1  0.907000  0.379100  0.857100  1.0
  C  C93  1  0.145200  0.149100  0.656400  1.0
  C  C94  1  0.656400  0.145200  0.149100  1.0
  C  C95  1  0.149100  0.656400  0.145200  1.0
  C  C96  1  0.854800  0.850900  0.343600  1.0
  C  C97  1  0.343600  0.854800  0.850900  1.0
  C  C98  1  0.850900  0.343600  0.854800  1.0
  C  C99  1  0.152000  0.211700  0.619100  1.0
  C  C100  1  0.619100  0.152000  0.211700  1.0
  C  C101  1  0.211700  0.619100  0.152000  1.0
  C  C102  1  0.848000  0.788300  0.380900  1.0
  C  C103  1  0.380900  0.848000  0.788300  1.0
  C  C104  1  0.788300  0.380900  0.848000  1.0
  C  C105  1  0.154700  0.216300  0.548800  1.0
  C  C106  1  0.548800  0.154700  0.216300  1.0
  C  C107  1  0.216300  0.548800  0.154700  1.0
  C  C108  1  0.845300  0.783700  0.451200  1.0
  C  C109  1  0.451200  0.845300  0.783700  1.0
  C  C110  1  0.783700  0.451200  0.845300  1.0
  C  C111  1  0.162700  0.280600  0.507700  1.0
  C  C112  1  0.507700  0.162700  0.280600  1.0
  C  C113  1  0.280600  0.507700  0.162700  1.0
  C  C114  1  0.837300  0.719400  0.492300  1.0
  C  C115  1  0.492300  0.837300  0.719400  1.0
  C  C116  1  0.719400  0.492300  0.837300  1.0
  C  C117  1  0.162200  0.346900  0.527400  1.0
  C  C118  1  0.527400  0.162200  0.346900  1.0
  C  C119  1  0.346900  0.527400  0.162200  1.0
  C  C120  1  0.837800  0.653100  0.472600  1.0
  C  C121  1  0.472600  0.837800  0.653100  1.0
  C  C122  1  0.653100  0.472600  0.837800  1.0
  C  C123  1  0.174900  0.385100  0.467200  1.0
  C  C124  1  0.467200  0.174900  0.385100  1.0
  C  C125  1  0.385100  0.467200  0.174900  1.0
  C  C126  1  0.825100  0.614900  0.532800  1.0
  C  C127  1  0.532800  0.825100  0.614900  1.0
  C  C128  1  0.614900  0.532800  0.825100  1.0
  C  C129  1  0.001000  0.226000  0.485800  1.0
  C  C130  1  0.485800  0.001000  0.226000  1.0
  C  C131  1  0.226000  0.485800  0.001000  1.0
  C  C132  1  0.999000  0.774000  0.514200  1.0
  C  C133  1  0.514200  0.999000  0.774000  1.0
  C  C134  1  0.774000  0.514200  0.999000  1.0
  C  C135  1  0.932400  0.239200  0.493200  1.0
  C  C136  1  0.493200  0.932400  0.239200  1.0
  C  C137  1  0.239200  0.493200  0.932400  1.0
  C  C138  1  0.067600  0.760800  0.506800  1.0
  C  C139  1  0.506800  0.067600  0.760800  1.0
  C  C140  1  0.760800  0.506800  0.067600  1.0
  C  C141  1  0.896700  0.248900  0.435200  1.0
  C  C142  1  0.435200  0.896700  0.248900  1.0
  C  C143  1  0.248900  0.435200  0.896700  1.0
  C  C144  1  0.103300  0.751100  0.564800  1.0
  C  C145  1  0.564800  0.103300  0.751100  1.0
  C  C146  1  0.751100  0.564800  0.103300  1.0
  C  C147  1  0.930600  0.247200  0.371500  1.0
  C  C148  1  0.371500  0.930600  0.247200  1.0
  C  C149  1  0.247200  0.371500  0.930600  1.0
  C  C150  1  0.069400  0.752800  0.628500  1.0
  C  C151  1  0.628500  0.069400  0.752800  1.0
  C  C152  1  0.752800  0.628500  0.069400  1.0
  C  C153  1  0.001300  0.231600  0.367700  1.0
  C  C154  1  0.367700  0.001300  0.231600  1.0
  C  C155  1  0.231600  0.367700  0.001300  1.0
  C  C156  1  0.998700  0.768400  0.632300  1.0
  C  C157  1  0.632300  0.998700  0.768400  1.0
  C  C158  1  0.768400  0.632300  0.998700  1.0
  C  C159  1  0.041400  0.226000  0.302300  1.0
  C  C160  1  0.302300  0.041400  0.226000  1.0
  C  C161  1  0.226000  0.302300  0.041400  1.0
  C  C162  1  0.958600  0.774000  0.697700  1.0
  C  C163  1  0.697700  0.958600  0.774000  1.0
  C  C164  1  0.774000  0.697700  0.958600  1.0
  C  C165  1  0.020700  0.229500  0.237000  1.0
  C  C166  1  0.237000  0.020700  0.229500  1.0
  C  C167  1  0.229500  0.237000  0.020700  1.0
  C  C168  1  0.979300  0.770500  0.763000  1.0
  C  C169  1  0.763000  0.979300  0.770500  1.0
  C  C170  1  0.770500  0.763000  0.979300  1.0
  C  C171  1  0.078900  0.223500  0.195300  1.0
  C  C172  1  0.195300  0.078900  0.223500  1.0
  C  C173  1  0.223500  0.195300  0.078900  1.0
  C  C174  1  0.921100  0.776500  0.804700  1.0
  C  C175  1  0.804700  0.921100  0.776500  1.0
  C  C176  1  0.776500  0.804700  0.921100  1.0
  C  C177  1  0.046400  0.062800  0.399000  1.0
  C  C178  1  0.399000  0.046400  0.062800  1.0
  C  C179  1  0.062800  0.399000  0.046400  1.0
  C  C180  1  0.953600  0.937200  0.601000  1.0
  C  C181  1  0.601000  0.953600  0.937200  1.0
  C  C182  1  0.937200  0.601000  0.953600  1.0
  C  C183  1  0.032600  0.994100  0.401100  1.0
  C  C184  1  0.401100  0.032600  0.994100  1.0
  C  C185  1  0.994100  0.401100  0.032600  1.0
  C  C186  1  0.967400  0.005900  0.598900  1.0
  C  C187  1  0.598900  0.967400  0.005900  1.0
  C  C188  1  0.005900  0.598900  0.967400  1.0
  C  C189  1  0.085900  0.946100  0.402400  1.0
  C  C190  1  0.402400  0.085900  0.946100  1.0
  C  C191  1  0.946100  0.402400  0.085900  1.0
  C  C192  1  0.914100  0.053900  0.597600  1.0
  C  C193  1  0.597600  0.914100  0.053900  1.0
  C  C194  1  0.053900  0.597600  0.914100  1.0
  C  C195  1  0.149900  0.963800  0.399000  1.0
  C  C196  1  0.399000  0.149900  0.963800  1.0
  C  C197  1  0.963800  0.399000  0.149900  1.0
  C  C198  1  0.850100  0.036200  0.601000  1.0
  C  C199  1  0.601000  0.850100  0.036200  1.0
  C  C200  1  0.036200  0.601000  0.850100  1.0
  C  C201  1  0.161600  0.032800  0.396600  1.0
  C  C202  1  0.396600  0.161600  0.032800  1.0
  C  C203  1  0.032800  0.396600  0.161600  1.0
  C  C204  1  0.838400  0.967200  0.603400  1.0
  C  C205  1  0.603400  0.838400  0.967200  1.0
  C  C206  1  0.967200  0.603400  0.838400  1.0
  C  C207  1  0.229700  0.055300  0.394200  1.0
  C  C208  1  0.394200  0.229700  0.055300  1.0
  C  C209  1  0.055300  0.394200  0.229700  1.0
  C  C210  1  0.770300  0.944700  0.605800  1.0
  C  C211  1  0.605800  0.770300  0.944700  1.0
  C  C212  1  0.944700  0.605800  0.770300  1.0
  C  C213  1  0.292300  0.018800  0.398700  1.0
  C  C214  1  0.398700  0.292300  0.018800  1.0
  C  C215  1  0.018800  0.398700  0.292300  1.0
  C  C216  1  0.707700  0.981200  0.601300  1.0
  C  C217  1  0.601300  0.707700  0.981200  1.0
  C  C218  1  0.981200  0.601300  0.707700  1.0
  C  C219  1  0.339300  0.066400  0.390500  1.0
  C  C220  1  0.390500  0.339300  0.066400  1.0
  C  C221  1  0.066400  0.390500  0.339300  1.0
  C  C222  1  0.660700  0.933600  0.609500  1.0
  C  C223  1  0.609500  0.660700  0.933600  1.0
  C  C224  1  0.933600  0.609500  0.660700  1.0
  C  C225  1  0.306800  0.511100  0.332600  1.0
  C  C226  1  0.332600  0.306800  0.511100  1.0
  C  C227  1  0.511100  0.332600  0.306800  1.0
  C  C228  1  0.693200  0.488900  0.667400  1.0
  C  C229  1  0.667400  0.693200  0.488900  1.0
  C  C230  1  0.488900  0.667400  0.693200  1.0
  C  C231  1  0.244600  0.548500  0.324700  1.0
  C  C232  1  0.324700  0.244600  0.548500  1.0
  C  C233  1  0.548500  0.324700  0.244600  1.0
  C  C234  1  0.755400  0.451500  0.675300  1.0
  C  C235  1  0.675300  0.755400  0.451500  1.0
  C  C236  1  0.451500  0.675300  0.755400  1.0
  C  C237  1  0.198400  0.500700  0.326600  1.0
  C  C238  1  0.326600  0.198400  0.500700  1.0
  C  C239  1  0.500700  0.326600  0.198400  1.0
  C  C240  1  0.801600  0.499300  0.673400  1.0
  C  C241  1  0.673400  0.801600  0.499300  1.0
  C  C242  1  0.499300  0.673400  0.801600  1.0
  C  C243  1  0.374800  0.532700  0.332100  1.0
  C  C244  1  0.332100  0.374800  0.532700  1.0
  C  C245  1  0.532700  0.332100  0.374800  1.0
  C  C246  1  0.625200  0.467300  0.667900  1.0
  C  C247  1  0.667900  0.625200  0.467300  1.0
  C  C248  1  0.467300  0.667900  0.625200  1.0
  C  C249  1  0.389000  0.599900  0.311900  1.0
  C  C250  1  0.311900  0.389000  0.599900  1.0
  C  C251  1  0.599900  0.311900  0.389000  1.0
  C  C252  1  0.611000  0.400100  0.688100  1.0
  C  C253  1  0.688100  0.611000  0.400100  1.0
  C  C254  1  0.400100  0.688100  0.611000  1.0
  C  C255  1  0.455400  0.618100  0.310400  1.0
  C  C256  1  0.310400  0.455400  0.618100  1.0
  C  C257  1  0.618100  0.310400  0.455400  1.0
  C  C258  1  0.544600  0.381900  0.689600  1.0
  C  C259  1  0.689600  0.544600  0.381900  1.0
  C  C260  1  0.381900  0.689600  0.544600  1.0
  C  C261  1  0.504900  0.569800  0.328700  1.0
  C  C262  1  0.328700  0.504900  0.569800  1.0
  C  C263  1  0.569800  0.328700  0.504900  1.0
  C  C264  1  0.495100  0.430200  0.671300  1.0
  C  C265  1  0.671300  0.495100  0.430200  1.0
  C  C266  1  0.430200  0.671300  0.495100  1.0
  C  C267  1  0.348100  0.488400  0.503600  1.0
  C  C268  1  0.503600  0.348100  0.488400  1.0
  C  C269  1  0.488400  0.503600  0.348100  1.0
  C  C270  1  0.651900  0.511600  0.496400  1.0
  C  C271  1  0.496400  0.651900  0.511600  1.0
  C  C272  1  0.511600  0.496400  0.651900  1.0
  F  F273  1  0.335900  0.764500  0.328900  1
  F  F274  1  0.328900  0.335900  0.764500  1
  F  F275  1  0.764500  0.328900  0.335900  1
  F  F276  1  0.664100  0.235500  0.671100  1
  F  F277  1  0.671100  0.664100  0.235500  1
  F  F278  1  0.235500  0.671100  0.664100  1
  F  F279  1  0.246000  0.835000  0.310500  1
  F  F280  1  0.310500  0.246000  0.835000  1
  F  F281  1  0.835000  0.310500  0.246000  1
  F  F282  1  0.754000  0.165000  0.689500  1
  F  F283  1  0.689500  0.754000  0.165000  1
  F  F284  1  0.165000  0.689500  0.754000  1
  F  F285  1  0.189700  0.789700  0.389600  1
  F  F286  1  0.389600  0.189700  0.789700  1
  F  F287  1  0.789700  0.389600  0.189700  1
  F  F288  1  0.810300  0.210300  0.610400  1
  F  F289  1  0.610400  0.810300  0.210300  1
  F  F290  1  0.210300  0.610400  0.810300  1
  F  F291  1  0.286700  0.710300  0.406500  1
  F  F292  1  0.406500  0.286700  0.710300  1
  F  F293  1  0.710300  0.406500  0.286700  1
  F  F294  1  0.713300  0.289700  0.593500  1
  F  F295  1  0.593500  0.713300  0.289700  1
  F  F296  1  0.289700  0.593500  0.713300  1
  F  F297  1  0.242300  0.723400  0.314200  1
  F  F298  1  0.314200  0.242300  0.723400  1
  F  F299  1  0.723400  0.314200  0.242300  1
  F  F300  1  0.757700  0.276600  0.685800  1
  F  F301  1  0.685800  0.757700  0.276600  1
  F  F302  1  0.276600  0.685800  0.757700  1
  F  F303  1  0.283100  0.823300  0.406000  1
  F  F304  1  0.406000  0.283100  0.823300  1
  F  F305  1  0.823300  0.406000  0.283100  1
  F  F306  1  0.716900  0.176700  0.594000  1
  F  F307  1  0.594000  0.716900  0.176700  1
  F  F308  1  0.176700  0.594000  0.716900  1
  H  H309  1  0.243400  0.243400  0.243400  1
  H  H310  1  0.756600  0.756600  0.756600  1
  H  H311  1  0.228200  0.334000  0.316500  1.0
  H  H312  1  0.316500  0.228200  0.334000  1.0
  H  H313  1  0.334000  0.316500  0.228200  1.0
  H  H314  1  0.771800  0.666000  0.683500  1.0
  H  H315  1  0.683500  0.771800  0.666000  1.0
  H  H316  1  0.666000  0.683500  0.771800  1.0
  H  H317  1  0.142300  0.062200  0.529000  1.0
  H  H318  1  0.529000  0.142300  0.062200  1.0
  H  H319  1  0.062200  0.529000  0.142300  1.0
  H  H320  1  0.857700  0.937800  0.471000  1.0
  H  H321  1  0.471000  0.857700  0.937800  1.0
  H  H322  1  0.937800  0.471000  0.857700  1.0
  H  H323  1  0.139900  0.049900  0.643900  1.0
  H  H324  1  0.643900  0.139900  0.049900  1.0
  H  H325  1  0.049900  0.643900  0.139900  1.0
  H  H326  1  0.860100  0.950100  0.356100  1.0
  H  H327  1  0.356100  0.860100  0.950100  1.0
  H  H328  1  0.950100  0.356100  0.860100  1.0
  H  H329  1  0.142500  0.145500  0.704100  1.0
  H  H330  1  0.704100  0.142500  0.145500  1.0
  H  H331  1  0.145500  0.704100  0.142500  1.0
  H  H332  1  0.857500  0.854500  0.295900  1.0
  H  H333  1  0.295900  0.857500  0.854500  1.0
  H  H334  1  0.854500  0.295900  0.857500  1.0
  H  H335  1  0.154600  0.251000  0.641700  1.0
  H  H336  1  0.641700  0.154600  0.251000  1.0
  H  H337  1  0.251000  0.641700  0.154600  1.0
  H  H338  1  0.845400  0.749000  0.358300  1.0
  H  H339  1  0.358300  0.845400  0.749000  1.0
  H  H340  1  0.749000  0.358300  0.845400  1.0
  H  H341  1  0.154800  0.361700  0.571300  1.0
  H  H342  1  0.571300  0.154800  0.361700  1.0
  H  H343  1  0.361700  0.571300  0.154800  1.0
  H  H344  1  0.845200  0.638300  0.428700  1.0
  H  H345  1  0.428700  0.845200  0.638300  1.0
  H  H346  1  0.638300  0.428700  0.845200  1.0
  H  H347  1  0.177800  0.432300  0.463300  1.0
  H  H348  1  0.463300  0.177800  0.432300  1.0
  H  H349  1  0.432300  0.463300  0.177800  1.0
  H  H350  1  0.822200  0.567700  0.536700  1.0
  H  H351  1  0.536700  0.822200  0.567700  1.0
  H  H352  1  0.567700  0.536700  0.822200  1.0
  H  H353  1  0.025300  0.220300  0.524800  1.0
  H  H354  1  0.524800  0.025300  0.220300  1.0
  H  H355  1  0.220300  0.524800  0.025300  1.0
  H  H356  1  0.974700  0.779700  0.475200  1.0
  H  H357  1  0.475200  0.974700  0.779700  1.0
  H  H358  1  0.779700  0.475200  0.974700  1.0
  H  H359  1  0.909700  0.241500  0.536700  1.0
  H  H360  1  0.536700  0.909700  0.241500  1.0
  H  H361  1  0.241500  0.536700  0.909700  1.0
  H  H362  1  0.090300  0.758500  0.463300  1.0
  H  H363  1  0.463300  0.090300  0.758500  1.0
  H  H364  1  0.758500  0.463300  0.090300  1.0
  H  H365  1  0.849200  0.256700  0.439500  1.0
  H  H366  1  0.439500  0.849200  0.256700  1.0
  H  H367  1  0.256700  0.439500  0.849200  1.0
  H  H368  1  0.150800  0.743300  0.560500  1.0
  H  H369  1  0.560500  0.150800  0.743300  1.0
  H  H370  1  0.743300  0.560500  0.150800  1.0
  H  H371  1  0.907300  0.256000  0.332000  1.0
  H  H372  1  0.332000  0.907300  0.256000  1.0
  H  H373  1  0.256000  0.332000  0.907300  1.0
  H  H374  1  0.092700  0.744000  0.668000  1.0
  H  H375  1  0.668000  0.092700  0.744000  1.0
  H  H376  1  0.744000  0.668000  0.092700  1.0
  H  H377  1  0.976000  0.235000  0.224300  1.0
  H  H378  1  0.224300  0.976000  0.235000  1.0
  H  H379  1  0.235000  0.224300  0.976000  1.0
  H  H380  1  0.024000  0.765000  0.775700  1.0
  H  H381  1  0.775700  0.024000  0.765000  1.0
  H  H382  1  0.765000  0.775700  0.024000  1.0
  H  H383  1  0.081700  0.223400  0.147900  1.0
  H  H384  1  0.147900  0.081700  0.223400  1.0
  H  H385  1  0.223400  0.147900  0.081700  1.0
  H  H386  1  0.918300  0.776600  0.852100  1.0
  H  H387  1  0.852100  0.918300  0.776600  1.0
  H  H388  1  0.776600  0.852100  0.918300  1.0
  H  H389  1  0.009900  0.096500  0.399100  1.0
  H  H390  1  0.399100  0.009900  0.096500  1.0
  H  H391  1  0.096500  0.399100  0.009900  1.0
  H  H392  1  0.990100  0.903500  0.600900  1.0
  H  H393  1  0.600900  0.990100  0.903500  1.0
  H  H394  1  0.903500  0.600900  0.990100  1.0
  H  H395  1  0.987800  0.981800  0.401500  1.0
  H  H396  1  0.401500  0.987800  0.981800  1.0
  H  H397  1  0.981800  0.401500  0.987800  1.0
  H  H398  1  0.012200  0.018200  0.598500  1.0
  H  H399  1  0.598500  0.012200  0.018200  1.0
  H  H400  1  0.018200  0.598500  0.012200  1.0
  H  H401  1  0.077800  0.899800  0.405800  1.0
  H  H402  1  0.405800  0.077800  0.899800  1.0
  H  H403  1  0.899800  0.405800  0.077800  1.0
  H  H404  1  0.922200  0.100200  0.594200  1.0
  H  H405  1  0.594200  0.922200  0.100200  1.0
  H  H406  1  0.100200  0.594200  0.922200  1.0
  H  H407  1  0.186500  0.930500  0.398100  1.0
  H  H408  1  0.398100  0.186500  0.930500  1.0
  H  H409  1  0.930500  0.398100  0.186500  1.0
  H  H410  1  0.813500  0.069500  0.601900  1.0
  H  H411  1  0.601900  0.813500  0.069500  1.0
  H  H412  1  0.069500  0.601900  0.813500  1.0
  H  H413  1  0.300800  0.971600  0.405900  1.0
  H  H414  1  0.405900  0.300800  0.971600  1.0
  H  H415  1  0.971600  0.405900  0.300800  1.0
  H  H416  1  0.699200  0.028400  0.594100  1.0
  H  H417  1  0.594100  0.699200  0.028400  1.0
  H  H418  1  0.028400  0.594100  0.699200  1.0
  H  H419  1  0.386500  0.056900  0.391500  1.0
  H  H420  1  0.391500  0.386500  0.056900  1.0
  H  H421  1  0.056900  0.391500  0.386500  1.0
  H  H422  1  0.613500  0.943100  0.608500  1.0
  H  H423  1  0.608500  0.613500  0.943100  1.0
  H  H424  1  0.943100  0.608500  0.613500  1.0
  H  H425  1  0.236200  0.596000  0.319200  1.0
  H  H426  1  0.319200  0.236200  0.596000  1.0
  H  H427  1  0.596000  0.319200  0.236200  1.0
  H  H428  1  0.763800  0.404000  0.680800  1.0
  H  H429  1  0.680800  0.763800  0.404000  1.0
  H  H430  1  0.404000  0.680800  0.763800  1.0
  H  H431  1  0.151600  0.510400  0.322900  1.0
  H  H432  1  0.322900  0.151600  0.510400  1.0
  H  H433  1  0.510400  0.322900  0.151600  1.0
  H  H434  1  0.848400  0.489600  0.677100  1.0
  H  H435  1  0.677100  0.848400  0.489600  1.0
  H  H436  1  0.489600  0.677100  0.848400  1.0
  H  H437  1  0.354000  0.632300  0.299500  1.0
  H  H438  1  0.299500  0.354000  0.632300  1.0
  H  H439  1  0.632300  0.299500  0.354000  1.0
  H  H440  1  0.646000  0.367700  0.700500  1.0
  H  H441  1  0.700500  0.646000  0.367700  1.0
  H  H442  1  0.367700  0.700500  0.646000  1.0
  H  H443  1  0.465700  0.662900  0.297000  1.0
  H  H444  1  0.297000  0.465700  0.662900  1.0
  H  H445  1  0.662900  0.297000  0.465700  1.0
  H  H446  1  0.534300  0.337100  0.703000  1.0
  H  H447  1  0.703000  0.534300  0.337100  1.0
  H  H448  1  0.337100  0.703000  0.534300  1.0
  H  H449  1  0.550000  0.581000  0.328200  1.0
  H  H450  1  0.328200  0.550000  0.581000  1.0
  H  H451  1  0.581000  0.328200  0.550000  1.0
  H  H452  1  0.450000  0.419000  0.671800  1.0
  H  H453  1  0.671800  0.450000  0.419000  1.0
  H  H454  1  0.419000  0.671800  0.450000  1.0
  H  H455  1  0.360700  0.523000  0.470800  1.0
  H  H456  1  0.470800  0.360700  0.523000  1.0
  H  H457  1  0.523000  0.470800  0.360700  1.0
  H  H458  1  0.639300  0.477000  0.529200  1.0
  H  H459  1  0.529200  0.639300  0.477000  1.0
  H  H460  1  0.477000  0.529200  0.639300  1.0
  N  N461  1  0.150800  0.161100  0.514600  1.0
  N  N462  1  0.514600  0.150800  0.161100  1.0
  N  N463  1  0.161100  0.514600  0.150800  1.0
  N  N464  1  0.849200  0.838900  0.485400  1.0
  N  N465  1  0.485400  0.849200  0.838900  1.0
  N  N466  1  0.838900  0.485400  0.849200  1.0
  N  N467  1  0.182600  0.346200  0.415300  1.0
  N  N468  1  0.415300  0.182600  0.346200  1.0
  N  N469  1  0.346200  0.415300  0.182600  1.0
  N  N470  1  0.817400  0.653800  0.584700  1.0
  N  N471  1  0.584700  0.817400  0.653800  1.0
  N  N472  1  0.653800  0.584700  0.817400  1.0
  N  N473  1  0.174400  0.279500  0.440100  1.0
  N  N474  1  0.440100  0.174400  0.279500  1.0
  N  N475  1  0.279500  0.440100  0.174400  1.0
  N  N476  1  0.825600  0.720500  0.559900  1.0
  N  N477  1  0.559900  0.825600  0.720500  1.0
  N  N478  1  0.720500  0.559900  0.825600  1.0
  N  N479  1  0.035700  0.221200  0.423800  1.0
  N  N480  1  0.423800  0.035700  0.221200  1.0
  N  N481  1  0.221200  0.423800  0.035700  1.0
  N  N482  1  0.964300  0.778800  0.576200  1.0
  N  N483  1  0.576200  0.964300  0.778800  1.0
  N  N484  1  0.778800  0.576200  0.964300  1.0
  N  N485  1  0.133000  0.217600  0.234700  1.0
  N  N486  1  0.234700  0.133000  0.217600  1.0
  N  N487  1  0.217600  0.234700  0.133000  1.0
  N  N488  1  0.867000  0.782400  0.765300  1.0
  N  N489  1  0.765300  0.867000  0.782400  1.0
  N  N490  1  0.782400  0.765300  0.867000  1.0
  N  N491  1  0.109700  0.218800  0.301800  1.0
  N  N492  1  0.301800  0.109700  0.218800  1.0
  N  N493  1  0.218800  0.301800  0.109700  1.0
  N  N494  1  0.890300  0.781200  0.698200  1.0
  N  N495  1  0.698200  0.890300  0.781200  1.0
  N  N496  1  0.781200  0.698200  0.890300  1.0
  N  N497  1  0.110300  0.081800  0.396800  1.0
  N  N498  1  0.396800  0.110300  0.081800  1.0
  N  N499  1  0.081800  0.396800  0.110300  1.0
  N  N500  1  0.889700  0.918200  0.603200  1.0
  N  N501  1  0.603200  0.889700  0.918200  1.0
  N  N502  1  0.918200  0.603200  0.889700  1.0
  N  N503  1  0.128900  0.380700  0.307000  1.0
  N  N504  1  0.307000  0.128900  0.380700  1.0
  N  N505  1  0.380700  0.307000  0.128900  1.0
  N  N506  1  0.871100  0.619300  0.693000  1.0
  N  N507  1  0.693000  0.871100  0.619300  1.0
  N  N508  1  0.619300  0.693000  0.871100  1.0
  N  N509  1  0.238400  0.123300  0.382300  1.0
  N  N510  1  0.382300  0.238400  0.123300  1.0
  N  N511  1  0.123300  0.382300  0.238400  1.0
  N  N512  1  0.761600  0.876700  0.617700  1.0
  N  N513  1  0.617700  0.761600  0.876700  1.0
  N  N514  1  0.876700  0.617700  0.761600  1.0
  N  N515  1  0.230000  0.437100  0.334900  1.0
  N  N516  1  0.334900  0.230000  0.437100  1.0
  N  N517  1  0.437100  0.334900  0.230000  1.0
  N  N518  1  0.770000  0.562900  0.665100  1.0
  N  N519  1  0.665100  0.770000  0.562900  1.0
  N  N520  1  0.562900  0.665100  0.770000  1.0
  N  N521  1  0.298430  0.443130  0.339430  1.0
  N  N522  1  0.339430  0.298430  0.443130  1.0
  N  N523  1  0.443130  0.339430  0.298430  1.0
  N  N524  1  0.701570  0.556870  0.660570  1.0
  N  N525  1  0.660570  0.701570  0.556870  1.0
  N  N526  1  0.556870  0.660570  0.701570  1.0
  N  N527  1  0.349500  0.423900  0.485100  1.0
  N  N528  1  0.485100  0.349500  0.423900  1.0
  N  N529  1  0.423900  0.485100  0.349500  1.0
  N  N530  1  0.650500  0.576100  0.514900  1.0
  N  N531  1  0.514900  0.650500  0.576100  1.0
  N  N532  1  0.576100  0.514900  0.650500  1.0
  P  P533  1  0.262420  0.773420  0.362920  1
  P  P534  1  0.362920  0.262420  0.773420  1
  P  P535  1  0.773420  0.362920  0.262420  1
  P  P536  1  0.737580  0.226580  0.637080  1
  P  P537  1  0.637080  0.737580  0.226580  1
  P  P538  1  0.226580  0.637080  0.737580  1
  Zn  Zn539  1  0.382090  0.382090  0.382090  1
  Zn  Zn540  1  0.617910  0.617910  0.617910  1
  Zn  Zn541  1  0.147000  0.187970  0.400150  1.0
  Zn  Zn542  1  0.400150  0.147000  0.187970  1.0
  Zn  Zn543  1  0.187970  0.400150  0.147000  1.0
  Zn  Zn544  1  0.853000  0.812030  0.599850  1.0
  Zn  Zn545  1  0.599850  0.853000  0.812030  1.0
  Zn  Zn546  1  0.812030  0.599850  0.853000  1.0
