# generated using pymatgen
data_AgP4H68Pt2C62S3N3(OF)9
_symmetry_space_group_name_H-M   'P 1'
_cell_length_a   12.37190000
_cell_length_b   17.16000000
_cell_length_c   18.93200000
_cell_angle_alpha   89.10800000
_cell_angle_beta   82.87300000
_cell_angle_gamma   89.96900000
_symmetry_Int_Tables_number   1
_chemical_formula_structural   AgP4H68Pt2C62S3N3(OF)9
_chemical_formula_sum   'Ag2 P8 H136 Pt4 C124 S6 N6 O18 F18'
_cell_volume   3987.75575076
_cell_formula_units_Z   2
loop_
 _symmetry_equiv_pos_site_id
 _symmetry_equiv_pos_as_xyz
  1  'x, y, z'
loop_
 _atom_site_type_symbol
 _atom_site_label
 _atom_site_symmetry_multiplicity
 _atom_site_fract_x
 _atom_site_fract_y
 _atom_site_fract_z
 _atom_site_occupancy
  Ag  Ag1  1  0.554500  0.918740  0.323100  1.0
  Ag  Ag2  1  0.445500  0.081260  0.676900  1.0
  P  P3  1  0.811300  0.943500  0.098100  1.0
  P  P4  1  0.188700  0.056500  0.901900  1.0
  P  P5  1  0.838200  0.780300  0.189300  1.0
  P  P6  1  0.161800  0.219700  0.810700  1.0
  P  P7  1  0.234200  0.397200  0.360100  1.0
  P  P8  1  0.765800  0.602800  0.639900  1.0
  P  P9  1  0.390100  0.368700  0.209300  1.0
  P  P10  1  0.609900  0.631300  0.790700  1.0
  H  H11  1  0.425700  0.050100  0.244800  1.0
  H  H12  1  0.574300  0.949900  0.755200  1.0
  H  H13  1  0.328200  0.154200  0.275800  1.0
  H  H14  1  0.671800  0.845800  0.724200  1.0
  H  H15  1  0.595100  0.286700  0.320300  1.0
  H  H16  1  0.404900  0.713300  0.679700  1.0
  H  H17  1  0.704800  0.187300  0.294900  1.0
  H  H18  1  0.295200  0.812700  0.705100  1.0
  H  H19  1  0.535700  0.728800  0.431700  1.0
  H  H20  1  0.464300  0.271200  0.568300  1.0
  H  H21  1  0.470000  0.326600  0.455100  1.0
  H  H22  1  0.530000  0.673400  0.544900  1.0
  H  H23  1  0.210700  0.187800  0.406300  1.0
  H  H24  1  0.789300  0.812200  0.593700  1.0
  H  H25  1  0.810400  0.870700  0.478500  1.0
  H  H26  1  0.189600  0.129300  0.521500  1.0
  H  H27  1  0.708300  0.066000  0.029200  1.0
  H  H28  1  0.291700  0.934000  0.970800  1.0
  H  H29  1  0.739700  0.204400  0.025500  1.0
  H  H30  1  0.260300  0.795600  0.974500  1.0
  H  H31  1  0.878200  0.265600  0.095200  1.0
  H  H32  1  0.121800  0.734400  0.904800  1.0
  H  H33  1  0.963700  0.196100  0.174100  1.0
  H  H34  1  0.036300  0.803900  0.825900  1.0
  H  H35  1  0.948600  0.058700  0.161800  1.0
  H  H36  1  0.051400  0.941300  0.838200  1.0
  H  H37  1  0.580400  0.897500  0.108700  1.0
  H  H38  1  0.419600  0.102500  0.891300  1.0
  H  H39  1  0.451800  0.865800  0.023700  1.0
  H  H40  1  0.548200  0.134200  0.976300  1.0
  H  H41  1  0.492000  0.871000  0.902300  1.0
  H  H42  1  0.508000  0.129000  0.097700  1.0
  H  H43  1  0.674900  0.907600  0.863900  1.0
  H  H44  1  0.325100  0.092400  0.136100  1.0
  H  H45  1  0.813100  0.928700  0.944800  1.0
  H  H46  1  0.186900  0.071300  0.055200  1.0
  H  H47  1  0.952700  0.938300  0.013800  1.0
  H  H48  1  0.047300  0.061700  0.986200  1.0
  H  H49  1  0.998400  0.944100  0.088400  1.0
  H  H50  1  0.001600  0.055900  0.911600  1.0
  H  H51  1  0.012900  0.819900  0.031400  1.0
  H  H52  1  0.987100  0.180100  0.968600  1.0
  H  H53  1  0.887400  0.801900  0.043800  1.0
  H  H54  1  0.112600  0.198100  0.956200  1.0
  H  H55  1  0.016900  0.830600  0.157000  1.0
  H  H56  1  0.983100  0.169400  0.843000  1.0
  H  H57  1  0.992900  0.746200  0.128900  1.0
  H  H58  1  0.007100  0.253800  0.871100  1.0
  H  H59  1  0.864600  0.647400  0.097800  1.0
  H  H60  1  0.135400  0.352600  0.902200  1.0
  H  H61  1  0.738900  0.556000  0.043200  1.0
  H  H62  1  0.261100  0.444000  0.956800  1.0
  H  H63  1  0.566700  0.563000  0.048500  1.0
  H  H64  1  0.433300  0.437000  0.951500  1.0
  H  H65  1  0.494400  0.667800  0.109200  1.0
  H  H66  1  0.505600  0.332200  0.890800  1.0
  H  H67  1  0.609200  0.751200  0.179800  1.0
  H  H68  1  0.390800  0.248800  0.820200  1.0
  H  H69  1  0.749800  0.632700  0.267300  1.0
  H  H70  1  0.250200  0.367300  0.732700  1.0
  H  H71  1  0.825300  0.572000  0.371600  1.0
  H  H72  1  0.174700  0.428000  0.628400  1.0
  H  H73  1  0.948600  0.635500  0.435300  1.0
  H  H74  1  0.051400  0.364500  0.564700  1.0
  H  H75  1  0.045200  0.752200  0.392000  1.0
  H  H76  1  0.954800  0.247800  0.608000  1.0
  H  H77  1  0.992000  0.818200  0.296600  1.0
  H  H78  1  0.008000  0.181800  0.703400  1.0
  H  H79  1  0.046000  0.373000  0.399700  1.0
  H  H80  1  0.954000  0.627000  0.600300  1.0
  H  H81  1  0.105400  0.304900  0.426800  1.0
  H  H82  1  0.894600  0.695100  0.573200  1.0
  H  H83  1  0.986600  0.260500  0.348700  1.0
  H  H84  1  0.013400  0.739500  0.651300  1.0
  H  H85  1  0.104100  0.253800  0.318700  1.0
  H  H86  1  0.895900  0.746200  0.681300  1.0
  H  H87  1  0.042800  0.321300  0.292500  1.0
  H  H88  1  0.957200  0.678700  0.707500  1.0
  H  H89  1  0.285100  0.401600  0.478300  1.0
  H  H90  1  0.714900  0.598400  0.521700  1.0
  H  H91  1  0.221300  0.471700  0.463200  1.0
  H  H92  1  0.778700  0.528300  0.536800  1.0
  H  H93  1  0.412500  0.522600  0.473800  1.0
  H  H94  1  0.587500  0.477400  0.526200  1.0
  H  H95  1  0.445800  0.469500  0.412800  1.0
  H  H96  1  0.554200  0.530500  0.587200  1.0
  H  H97  1  0.382000  0.539500  0.397200  1.0
  H  H98  1  0.618000  0.460500  0.602800  1.0
  H  H99  1  0.160500  0.452300  0.266400  1.0
  H  H100  1  0.839500  0.547700  0.733600  1.0
  H  H101  1  0.257500  0.509300  0.291300  1.0
  H  H102  1  0.742500  0.490700  0.708700  1.0
  H  H103  1  0.095100  0.563400  0.315400  1.0
  H  H104  1  0.904900  0.436600  0.684600  1.0
  H  H105  1  0.048800  0.489600  0.361000  1.0
  H  H106  1  0.951200  0.510400  0.639000  1.0
  H  H107  1  0.145700  0.546300  0.386300  1.0
  H  H108  1  0.854300  0.453700  0.613700  1.0
  H  H109  1  0.404700  0.502400  0.229200  1.0
  H  H110  1  0.595300  0.497600  0.770800  1.0
  H  H111  1  0.475000  0.486900  0.161600  1.0
  H  H112  1  0.525000  0.513100  0.838400  1.0
  H  H113  1  0.606800  0.454500  0.228500  1.0
  H  H114  1  0.393200  0.545500  0.771500  1.0
  H  H115  1  0.536400  0.468300  0.296500  1.0
  H  H116  1  0.463600  0.531700  0.703500  1.0
  H  H117  1  0.580500  0.538400  0.245900  1.0
  H  H118  1  0.419500  0.461600  0.754100  1.0
  H  H119  1  0.223800  0.397500  0.176200  1.0
  H  H120  1  0.776200  0.602500  0.823800  1.0
  H  H121  1  0.303700  0.397700  0.110100  1.0
  H  H122  1  0.696300  0.602300  0.889900  1.0
  H  H123  1  0.202800  0.256900  0.180600  1.0
  H  H124  1  0.797200  0.743100  0.819400  1.0
  H  H125  1  0.283100  0.256900  0.114700  1.0
  H  H126  1  0.716900  0.743100  0.885300  1.0
  H  H127  1  0.169800  0.284700  0.107400  1.0
  H  H128  1  0.830200  0.715300  0.892600  1.0
  H  H129  1  0.457100  0.262000  0.155400  1.0
  H  H130  1  0.542900  0.738000  0.844600  1.0
  H  H131  1  0.552900  0.317600  0.183400  1.0
  H  H132  1  0.447100  0.682400  0.816600  1.0
  H  H133  1  0.569300  0.318400  0.060100  1.0
  H  H134  1  0.430700  0.681600  0.939900  1.0
  H  H135  1  0.454900  0.345600  0.056800  1.0
  H  H136  1  0.545100  0.654400  0.943200  1.0
  H  H137  1  0.550200  0.401500  0.085000  1.0
  H  H138  1  0.449800  0.598500  0.915000  1.0
  H  H139  1  0.169100  0.895900  0.429400  1.0
  H  H140  1  0.830900  0.104100  0.570600  1.0
  H  H141  1  0.341700  0.917300  0.376400  1.0
  H  H142  1  0.658300  0.082700  0.623600  1.0
  H  H143  1  0.727200  0.012800  0.385300  1.0
  H  H144  1  0.272800  0.987200  0.614700  1.0
  H  H145  1  0.137400  0.929500  0.545900  1.0
  H  H146  1  0.862600  0.070500  0.454100  1.0
  Pt  Pt147  1  0.760550  0.893160  0.209760  1.0
  Pt  Pt148  1  0.239450  0.106840  0.790240  1.0
  Pt  Pt149  1  0.355430  0.316040  0.320550  1.0
  Pt  Pt150  1  0.644570  0.683960  0.679450  1.0
  C  C151  1  0.249000  0.703000  0.524000  1
  C  C152  1  0.751000  0.297000  0.476000  1
  C  C153  1  0.969000  0.978000  0.667000  1
  C  C154  1  0.031000  0.022000  0.333000  1
  C  C155  1  0.140000  0.576000  0.068000  1
  C  C156  1  0.860000  0.424000  0.932000  1
  C  C157  1  0.907000  0.089600  0.135100  1.0
  C  C158  1  0.093000  0.910400  0.864900  1.0
  C  C159  1  0.709000  0.915500  0.032200  1.0
  C  C160  1  0.291000  0.084500  0.967800  1.0
  C  C161  1  0.601000  0.894000  0.056300  1.0
  C  C162  1  0.399000  0.106000  0.943700  1.0
  C  C163  1  0.523000  0.881000  0.006000  1.0
  C  C164  1  0.477000  0.119000  0.994000  1.0
  C  C165  1  0.547000  0.885000  0.937000  1.0
  C  C166  1  0.453000  0.115000  0.063000  1.0
  C  C167  1  0.651000  0.902000  0.915100  1.0
  C  C168  1  0.349000  0.098000  0.084900  1.0
  C  C169  1  0.737000  0.917000  0.961200  1.0
  C  C170  1  0.263000  0.083000  0.038800  1.0
  C  C171  1  0.942000  0.916000  0.061600  1.0
  C  C172  1  0.058000  0.084000  0.938400  1.0
  C  C173  1  0.951000  0.829700  0.060500  1.0
  C  C174  1  0.049000  0.170300  0.939500  1.0
  C  C175  1  0.963000  0.794400  0.132800  1.0
  C  C176  1  0.037000  0.205600  0.867200  1.0
  C  C177  1  0.750000  0.709000  0.143000  1.0
  C  C178  1  0.250000  0.291000  0.857000  1.0
  C  C179  1  0.790000  0.649000  0.103000  1.0
  C  C180  1  0.210000  0.351000  0.897000  1.0
  C  C181  1  0.728000  0.597000  0.071000  1.0
  C  C182  1  0.272000  0.403000  0.929000  1.0
  C  C183  1  0.628000  0.599000  0.070000  1.0
  C  C184  1  0.372000  0.401000  0.930000  1.0
  C  C185  1  0.570000  0.658000  0.109000  1.0
  C  C186  1  0.430000  0.342000  0.891000  1.0
  C  C187  1  0.641000  0.712000  0.146000  1.0
  C  C188  1  0.359000  0.288000  0.854000  1.0
  C  C189  1  0.877000  0.730500  0.268600  1.0
  C  C190  1  0.123000  0.269500  0.731400  1.0
  C  C191  1  0.821000  0.659000  0.293000  1.0
  C  C192  1  0.179000  0.341000  0.707000  1.0
  C  C193  1  0.855000  0.624000  0.354000  1.0
  C  C194  1  0.145000  0.376000  0.646000  1.0
  C  C195  1  0.930000  0.659000  0.390000  1.0
  C  C196  1  0.070000  0.341000  0.610000  1.0
  C  C197  1  0.985000  0.729000  0.366000  1.0
  C  C198  1  0.015000  0.271000  0.634000  1.0
  C  C199  1  0.957000  0.764000  0.309000  1.0
  C  C200  1  0.043000  0.236000  0.691000  1.0
  C  C201  1  0.103000  0.338000  0.386000  1.0
  C  C202  1  0.897000  0.662000  0.614000  1.0
  C  C203  1  0.064000  0.288000  0.323000  1.0
  C  C204  1  0.936000  0.712000  0.677000  1.0
  C  C205  1  0.280000  0.443000  0.439000  1.0
  C  C206  1  0.720000  0.557000  0.561000  1.0
  C  C207  1  0.389000  0.494000  0.430000  1.0
  C  C208  1  0.611000  0.506000  0.570000  1.0
  C  C209  1  0.200000  0.476000  0.306000  1.0
  C  C210  1  0.800000  0.524000  0.694000  1.0
  C  C211  1  0.121000  0.529000  0.341000  1.0
  C  C212  1  0.879000  0.471000  0.659000  1.0
  C  C213  1  0.450000  0.468000  0.209000  1.0
  C  C214  1  0.550000  0.532000  0.791000  1.0
  C  C215  1  0.548000  0.482000  0.249000  1.0
  C  C216  1  0.452000  0.518000  0.751000  1.0
  C  C217  1  0.277000  0.369000  0.154200  1.0
  C  C218  1  0.723000  0.631000  0.845800  1.0
  C  C219  1  0.226000  0.287000  0.139000  1.0
  C  C220  1  0.774000  0.713000  0.861000  1.0
  C  C221  1  0.485000  0.315000  0.157400  1.0
  C  C222  1  0.515000  0.685000  0.842600  1.0
  C  C223  1  0.515000  0.346000  0.085000  1.0
  C  C224  1  0.485000  0.654000  0.915000  1.0
  C  C225  1  0.228000  0.919000  0.455000  1.0
  C  C226  1  0.772000  0.081000  0.545000  1.0
  C  C227  1  0.329000  0.933000  0.421700  1.0
  C  C228  1  0.671000  0.067000  0.578300  1.0
  C  C229  1  0.416000  0.965600  0.460600  1.0
  C  C230  1  0.584000  0.034400  0.539400  1.0
  C  C231  1  0.602000  0.012600  0.465600  1.0
  C  C232  1  0.398000  0.987400  0.534400  1.0
  C  C233  1  0.711000  0.027000  0.434700  1.0
  C  C234  1  0.289000  0.973000  0.565300  1.0
  C  C235  1  0.209000  0.940000  0.526000  1.0
  C  C236  1  0.791000  0.060000  0.474000  1.0
  C  C237  1  0.688000  0.989600  0.230200  1.0
  C  C238  1  0.312000  0.010400  0.769800  1.0
  C  C239  1  0.640000  0.043000  0.246500  1.0
  C  C240  1  0.360000  0.957000  0.753500  1.0
  C  C241  1  0.578000  0.107800  0.266100  1.0
  C  C242  1  0.422000  0.892200  0.733900  1.0
  C  C243  1  0.462000  0.099500  0.262300  1.0
  C  C244  1  0.538000  0.900500  0.737700  1.0
  C  C245  1  0.406000  0.160300  0.278700  1.0
  C  C246  1  0.594000  0.839700  0.721300  1.0
  C  C247  1  0.561000  0.236900  0.303900  1.0
  C  C248  1  0.439000  0.763100  0.696100  1.0
  C  C249  1  0.624000  0.179300  0.287900  1.0
  C  C250  1  0.376000  0.820700  0.712100  1.0
  C  C251  1  0.720000  0.853900  0.309900  1.0
  C  C252  1  0.280000  0.146100  0.690100  1.0
  C  C253  1  0.694000  0.831200  0.369900  1.0
  C  C254  1  0.306000  0.168800  0.630100  1.0
  C  C255  1  0.678000  0.799500  0.441400  1.0
  C  C256  1  0.322000  0.200500  0.558600  1.0
  C  C257  1  0.594000  0.744000  0.463700  1.0
  C  C258  1  0.406000  0.256000  0.536300  1.0
  C  C259  1  0.412000  0.286000  0.469600  1.0
  C  C260  1  0.588000  0.714000  0.530400  1.0
  C  C261  1  0.262000  0.205900  0.441500  1.0
  C  C262  1  0.738000  0.794100  0.558500  1.0
  C  C263  1  0.749000  0.826000  0.491400  1.0
  C  C264  1  0.251000  0.174000  0.508600  1.0
  C  C265  1  0.830000  0.050700  0.093800  1.0
  C  C266  1  0.170000  0.949300  0.906200  1.0
  C  C267  1  0.768000  0.093100  0.055200  1.0
  C  C268  1  0.232000  0.906900  0.944800  1.0
  C  C269  1  0.785000  0.174000  0.054000  1.0
  C  C270  1  0.215000  0.826000  0.946000  1.0
  C  C271  1  0.858000  0.210000  0.093000  1.0
  C  C272  1  0.142000  0.790000  0.907000  1.0
  C  C273  1  0.921000  0.169000  0.136000  1.0
  C  C274  1  0.079000  0.831000  0.864000  1.0
  S  S275  1  0.241400  0.624300  0.583300  1
  S  S276  1  0.758600  0.375700  0.416700  1
  S  S277  1  0.875100  0.985700  0.739200  1
  S  S278  1  0.124900  0.014300  0.260800  1
  S  S279  1  0.262600  0.602400  0.087000  1
  S  S280  1  0.737400  0.397600  0.913000  1
  N  N281  1  0.453000  0.230000  0.297400  1.0
  N  N282  1  0.547000  0.770000  0.702600  1.0
  N  N283  1  0.340000  0.264100  0.421900  1.0
  N  N284  1  0.660000  0.735900  0.578100  1.0
  N  N285  1  0.519000  0.979300  0.428500  1.0
  N  N286  1  0.481000  0.020700  0.571500  1.0
  O  O287  1  0.350000  0.609300  0.584700  1
  O  O288  1  0.650000  0.390700  0.415300  1
  O  O289  1  0.163000  0.565900  0.557000  1
  O  O290  1  0.837000  0.434100  0.443000  1
  O  O291  1  0.205000  0.667000  0.643600  1
  O  O292  1  0.795000  0.333000  0.356400  1
  O  O293  1  0.851000  0.903000  0.763400  1
  O  O294  1  0.149000  0.097000  0.236600  1
  O  O295  1  0.936000  0.031100  0.788700  1
  O  O296  1  0.064000  0.968900  0.211300  1
  O  O297  1  0.791000  0.016000  0.710500  1
  O  O298  1  0.209000  0.984000  0.289500  1
  O  O299  1  0.324000  0.542000  0.058000  1
  O  O300  1  0.676000  0.458000  0.942000  1
  O  O301  1  0.287000  0.683800  0.069300  1
  O  O302  1  0.713000  0.316200  0.930700  1
  O  O303  1  0.245000  0.588000  0.157300  1
  O  O304  1  0.755000  0.412000  0.842700  1
  F  F305  1  0.155000  0.733300  0.515100  1
  F  F306  1  0.845000  0.266700  0.484900  1
  F  F307  1  0.320000  0.765000  0.540500  1
  F  F308  1  0.680000  0.235000  0.459500  1
  F  F309  1  0.290000  0.684000  0.460500  1
  F  F310  1  0.710000  0.316000  0.539500  1
  F  F311  1  0.931000  0.935300  0.615500  1
  F  F312  1  0.069000  0.064700  0.384500  1
  F  F313  1  0.056000  0.946000  0.687500  1
  F  F314  1  0.944000  0.054000  0.312500  1
  F  F315  1  0.010000  0.044500  0.635400  1
  F  F316  1  0.990000  0.955500  0.364600  1
  F  F317  1  0.100000  0.506000  0.065000  1
  F  F318  1  0.900000  0.494000  0.935000  1
  F  F319  1  0.067000  0.625000  0.076000  1
  F  F320  1  0.933000  0.375000  0.924000  1
  F  F321  1  0.162000  0.590000  0.986000  1
  F  F322  1  0.838000  0.410000  0.014000  1
