# generated using pymatgen
data_K4Ti2H78C109N15O31
_symmetry_space_group_name_H-M   'P 1'
_cell_length_a   11.91750000
_cell_length_b   22.08240000
_cell_length_c   25.54704561
_cell_angle_alpha   112.88329941
_cell_angle_beta   103.48826177
_cell_angle_gamma   90.00000000
_symmetry_Int_Tables_number   1
_chemical_formula_structural   K4Ti2H78C109N15O31
_chemical_formula_sum   'K8 Ti4 H156 C218 N30 O62'
_cell_volume   5992.22855179
_cell_formula_units_Z   2
loop_
 _symmetry_equiv_pos_site_id
 _symmetry_equiv_pos_as_xyz
  1  'x, y, z'
loop_
 _atom_site_type_symbol
 _atom_site_label
 _atom_site_symmetry_multiplicity
 _atom_site_fract_x
 _atom_site_fract_y
 _atom_site_fract_z
 _atom_site_occupancy
  C  C1  1  0.395300  0.026200  0.353600  1
  C  C2  1  0.958300  0.526200  0.353600  1
  C  C3  1  0.381600  0.041000  0.409600  1
  C  C4  1  0.028000  0.541000  0.409600  1
  C  C5  1  0.354200  0.098000  0.443000  1
  C  C6  1  0.088800  0.598000  0.443000  1
  C  C7  1  0.343900  0.152700  0.420200  1
  C  C8  1  0.076300  0.652700  0.420200  1
  C  C9  1  0.355600  0.139900  0.364800  1
  C  C10  1  0.009200  0.639900  0.364800  1
  C  C11  1  0.386500  0.075100  0.329200  1
  C  C12  1  0.942700  0.575100  0.329200  1
  C  C13  1  0.386800  0.063500  0.269000  1
  C  C14  1  0.882200  0.563500  0.269000  1
  C  C15  1  0.407400  0.981900  0.174800  1
  C  C16  1  0.767400  0.481900  0.174800  1
  C  C17  1  0.488400  0.016100  0.163600  1
  C  C18  1  0.675200  0.516100  0.163600  1
  C  C19  1  0.498200  0.996600  0.107600  1
  C  C20  1  0.609400  0.496600  0.107600  1
  C  C21  1  0.423600  0.941300  0.061400  1
  C  C22  1  0.637800  0.441300  0.061400  1
  C  C23  1  0.340700  0.910500  0.073800  1
  C  C24  1  0.733100  0.410500  0.073800  1
  C  C25  1  0.328100  0.931700  0.131000  1
  C  C26  1  0.802900  0.431700  0.131000  1
  C  C27  1  0.258200  0.858400  0.026600  1
  C  C28  1  0.768400  0.358400  0.026600  1
  C  C29  1  0.270100  0.839700  0.971400  1
  C  C30  1  0.701300  0.339700  0.971400  1
  C  C31  1  0.354100  0.866400  0.955200  1
  C  C32  1  0.601100  0.366400  0.955200  1
  C  C33  1  0.433600  0.920400  0.001400  1
  C  C34  1  0.567800  0.420400  0.001400  1
  C  C35  1  0.364500  0.845500  0.894800  1
  C  C36  1  0.530300  0.345500  0.894800  1
  C  C37  1  0.286500  0.793500  0.851800  1
  C  C38  1  0.565300  0.293500  0.851800  1
  C  C39  1  0.201900  0.768300  0.869000  1
  C  C40  1  0.667100  0.268300  0.869000  1
  C  C41  1  0.190200  0.786100  0.923200  1
  C  C42  1  0.733000  0.286100  0.923200  1
  C  C43  1  0.371300  0.775500  0.773800  1
  C  C44  1  0.402500  0.275500  0.773800  1
  C  C45  1  0.359800  0.728900  0.707600  1
  C  C46  1  0.347800  0.228900  0.707600  1
  C  C47  1  0.454700  0.738100  0.684600  1
  C  C48  1  0.229900  0.238100  0.684600  1
  C  C49  1  0.459000  0.691100  0.622800  1
  C  C50  1  0.163800  0.191100  0.622800  1
  C  C51  1  0.369100  0.641100  0.596000  1
  C  C52  1  0.226900  0.141100  0.596000  1
  C  C53  1  0.287200  0.632600  0.616400  1
  C  C54  1  0.329200  0.132600  0.616400  1
  C  C55  1  0.275300  0.683200  0.678000  1
  C  C56  1  0.402700  0.183200  0.678000  1
  C  C57  1  0.561400  0.815800  0.329800  1
  C  C58  1  0.768400  0.315800  0.329800  1
  C  C59  1  0.611200  0.855500  0.394000  1
  C  C60  1  0.782800  0.355500  0.394000  1
  C  C61  1  0.701400  0.834400  0.427200  1
  C  C62  1  0.725800  0.334400  0.427200  1
  C  C63  1  0.744600  0.774500  0.393800  1
  C  C64  1  0.649200  0.274500  0.393800  1
  C  C65  1  0.708100  0.740500  0.333400  1
  C  C66  1  0.625300  0.240500  0.333400  1
  C  C67  1  0.612700  0.758100  0.302600  1
  C  C68  1  0.689900  0.258100  0.302600  1
  C  C69  1  0.583100  0.723800  0.238000  1
  C  C70  1  0.654900  0.223800  0.238000  1
  C  C71  1  0.428500  0.716100  0.147000  1
  C  C72  1  0.718500  0.216100  0.147000  1
  C  C73  1  0.332300  0.747600  0.135600  1
  C  C74  1  0.803300  0.247600  0.135600  1
  C  C75  1  0.270000  0.725700  0.077200  1
  C  C76  1  0.807200  0.225700  0.077200  1
  C  C77  1  0.305800  0.674900  0.033200  1
  C  C78  1  0.727400  0.174900  0.033200  1
  C  C79  1  0.399800  0.642500  0.047800  1
  C  C80  1  0.648000  0.142500  0.047800  1
  C  C81  1  0.461100  0.663400  0.105600  1
  C  C82  1  0.644500  0.163400  0.105600  1
  C  C83  1  0.440300  0.590300  0.003400  1
  C  C84  1  0.563100  0.090300  0.003400  1
  C  C85  1  0.368300  0.566200  0.945600  1
  C  C86  1  0.577300  0.066200  0.945600  1
  C  C87  1  0.269700  0.596600  0.930200  1
  C  C88  1  0.660500  0.096600  0.930200  1
  C  C89  1  0.239100  0.647900  0.971000  1
  C  C90  1  0.731900  0.147900  0.971000  1
  C  C91  1  0.400800  0.511300  0.899200  1
  C  C92  1  0.498400  0.011300  0.899200  1
  C  C93  1  0.333900  0.489800  0.843200  1
  C  C94  1  0.509300  0.989800  0.843200  1
  C  C95  1  0.242200  0.523400  0.827600  1
  C  C96  1  0.585400  0.023400  0.827600  1
  C  C97  1  0.209400  0.574900  0.867800  1
  C  C98  1  0.658400  0.074900  0.867800  1
  C  C99  1  0.151600  0.437600  0.728600  1
  C  C100  1  0.577000  0.937600  0.728600  1
  C  C101  1  0.095500  0.424300  0.666800  1
  C  C102  1  0.571300  0.924300  0.666800  1
  C  C103  1  0.028400  0.461400  0.584600  1
  C  C104  1  0.556200  0.961400  0.584600  1
  C  C105  1  0.073900  0.475400  0.646400  1
  C  C106  1  0.572500  0.975400  0.646400  1
  C  C107  1  0.005700  0.390400  0.543400  1
  C  C108  1  0.537700  0.890400  0.543400  1
  C  C109  1  0.033800  0.344200  0.567600  1
  C  C110  1  0.533800  0.844200  0.567600  1
  C  C111  1  0.075300  0.357000  0.626000  1
  C  C112  1  0.550700  0.857000  0.626000  1
  C  C113  1  0.171100  0.844400  0.332000  1
  C  C114  1  0.160900  0.344400  0.332000  1
  C  C115  1  0.226000  0.841800  0.387000  1
  C  C116  1  0.161000  0.341800  0.387000  1
  C  C117  1  0.156800  0.819500  0.413000  1
  C  C118  1  0.256200  0.319500  0.413000  1
  C  C119  1  0.043500  0.800400  0.387600  1
  C  C120  1  0.344100  0.300400  0.387600  1
  C  C121  1  0.991100  0.804700  0.335000  1
  C  C122  1  0.343900  0.304700  0.335000  1
  C  C123  1  0.058800  0.824600  0.305400  1
  C  C124  1  0.246600  0.324600  0.305400  1
  C  C125  1  0.997300  0.816200  0.242000  1
  C  C126  1  0.244700  0.316200  0.242000  1
  C  C127  1  0.026000  0.833700  0.158800  1
  C  C128  1  0.132800  0.333700  0.158800  1
  C  C129  1  0.028400  0.891900  0.149600  1
  C  C130  1  0.121200  0.391900  0.149600  1
  C  C131  1  0.997100  0.889700  0.090200  1
  C  C132  1  0.093100  0.389700  0.090200  1
  C  C133  1  0.962500  0.823800  0.043600  1
  C  C134  1  0.081100  0.323800  0.043600  1
  C  C135  1  0.969400  0.770100  0.052400  1
  C  C136  1  0.083000  0.270100  0.052400  1
  C  C137  1  0.000600  0.776800  0.116400  1
  C  C138  1  0.115800  0.276800  0.116400  1
  C  C139  1  0.940200  0.707900  0.007000  1
  C  C140  1  0.066800  0.207900  0.007000  1
  C  C141  1  0.924100  0.703600  0.946200  1
  C  C142  1  0.022100  0.203600  0.946200  1
  C  C143  1  0.913900  0.758100  0.939000  1
  C  C144  1  0.025100  0.258100  0.939000  1
  C  C145  1  0.929800  0.818900  0.983800  1
  C  C146  1  0.054000  0.318900  0.983800  1
  C  C147  1  0.895600  0.756100  0.881000  1
  C  C148  1  0.985400  0.256100  0.881000  1
  C  C149  1  0.895700  0.694900  0.835400  1
  C  C150  1  0.939700  0.194900  0.835400  1
  C  C151  1  0.901400  0.636000  0.840800  1
  C  C152  1  0.939400  0.136000  0.840800  1
  C  C153  1  0.919100  0.637700  0.898800  1
  C  C154  1  0.979700  0.137700  0.898800  1
  C  C155  1  0.818500  0.734000  0.755000  1
  C  C156  1  0.936500  0.234000  0.755000  1
  C  C157  1  0.830100  0.721800  0.690200  1
  C  C158  1  0.860100  0.221800  0.690200  1
  C  C159  1  0.769600  0.766000  0.667800  1
  C  C160  1  0.898200  0.266000  0.667800  1
  C  C161  1  0.786300  0.761300  0.615200  1
  C  C162  1  0.828900  0.261300  0.615200  1
  C  C163  1  0.848500  0.720000  0.585400  1
  C  C164  1  0.736900  0.220000  0.585400  1
  C  C165  1  0.910200  0.677500  0.606800  1
  C  C166  1  0.696600  0.177500  0.606800  1
  C  C167  1  0.901900  0.682600  0.666200  1
  C  C168  1  0.764300  0.182600  0.666200  1
  C  C169  1  0.353000  0.371700  0.590200  1
  C  C170  1  0.237200  0.871700  0.590200  1
  C  C171  1  0.431700  0.277900  0.594600  1
  C  C172  1  0.162900  0.777900  0.594600  1
  C  C173  1  0.525400  0.340400  0.553000  1
  C  C174  1  0.027600  0.840400  0.553000  1
  C  C175  1  0.428100  0.476000  0.447800  1
  C  C176  1  0.019700  0.976000  0.447800  1
  C  C177  1  0.353900  0.498000  0.363600  1
  C  C178  1  0.009700  0.998000  0.363600  1
  C  C179  1  0.528000  0.437200  0.370600  1
  C  C180  1  0.842600  0.937200  0.370600  1
  C  C181  1  0.138500  0.682700  0.210000  1
  C  C182  1  0.071500  0.182700  0.210000  1
  C  C183  1  0.304600  0.687100  0.284600  1
  C  C184  1  0.980000  0.187100  0.284600  1
  C  C185  1  0.160300  0.587300  0.235400  1
  C  C186  1  0.075100  0.087300  0.235400  1
  C  C187  1  0.662800  0.623800  0.408000  1
  C  C188  1  0.745200  0.123800  0.408000  1
  C  C189  1  0.558100  0.641900  0.483000  1
  C  C190  1  0.924900  0.141900  0.483000  1
  C  C191  1  0.497700  0.690100  0.412200  1
  C  C192  1  0.914500  0.190100  0.412200  1
  C  C193  1  0.699600  0.006500  0.274000  1
  C  C194  1  0.574400  0.506500  0.274000  1
  C  C195  1  0.628700  0.892400  0.229800  1
  C  C196  1  0.601100  0.392400  0.229800  1
  C  C197  1  0.763000  0.925800  0.189200  1
  C  C198  1  0.426200  0.425800  0.189200  1
  C  C199  1  0.864800  0.441400  0.771000  1
  C  C200  1  0.906200  0.941400  0.771000  1
  C  C201  1  0.713800  0.357000  0.758800  1
  C  C202  1  0.045000  0.857000  0.758800  1
  C  C203  1  0.872200  0.376800  0.829400  1
  C  C204  1  0.957200  0.876800  0.829400  1
  C  C205  1  0.728800  0.547900  0.967600  1
  C  C206  1  0.238800  0.047900  0.967600  1
  C  C207  1  0.242800  0.474600  0.029600  1
  C  C208  1  0.786800  0.974600  0.029600  1
  C  C209  1  0.118400  0.493800  0.972800  1
  C  C210  1  0.854400  0.993800  0.972800  1
  C  C211  1  0.440400  0.282100  0.034800  1
  C  C212  1  0.594400  0.782100  0.034800  1
  C  C213  1  0.450600  0.209200  0.929800  1
  C  C214  1  0.479200  0.709200  0.929800  1
  C  C215  1  0.321300  0.290900  0.942800  1
  C  C216  1  0.621500  0.790900  0.942800  1
  C  C217  1  0.564900  0.521900  0.777400  1
  C  C218  1  0.212500  0.021900  0.777400  1
  H  H219  1  0.410300  0.974100  0.251800  1
  H  H220  1  0.841500  0.474100  0.251800  1
  H  H221  1  0.232000  0.739700  0.769200  1
  H  H222  1  0.537200  0.239700  0.769200  1
  H  H223  1  0.457600  0.771200  0.232800  1
  H  H224  1  0.775200  0.271200  0.232800  1
  H  H225  1  0.158200  0.534600  0.755000  1
  H  H226  1  0.596800  0.034600  0.755000  1
  H  H227  1  0.131800  0.859200  0.239800  1
  H  H228  1  0.108000  0.359200  0.239800  1
  H  H229  1  0.912200  0.662000  0.751200  1
  H  H230  1  0.839000  0.162000  0.751200  1
  H  H231  1  0.341300  0.104900  0.479200  1
  H  H232  1  0.137900  0.604900  0.479200  1
  H  H233  1  0.329900  0.194700  0.444000  1
  H  H234  1  0.114100  0.694700  0.444000  1
  H  H235  1  0.343800  0.172200  0.349600  1
  H  H236  1  0.005800  0.672200  0.349600  1
  H  H237  1  0.535600  0.052200  0.193800  1
  H  H238  1  0.658200  0.552200  0.193800  1
  H  H239  1  0.553300  0.018800  0.099200  1
  H  H240  1  0.545900  0.518800  0.099200  1
  H  H241  1  0.268800  0.912700  0.139600  1
  H  H242  1  0.870800  0.412700  0.139600  1
  H  H243  1  0.198900  0.838400  0.034400  1
  H  H244  1  0.835500  0.338400  0.034400  1
  H  H245  1  0.490200  0.941300  0.992800  1
  H  H246  1  0.502600  0.441300  0.992800  1
  H  H247  1  0.420700  0.866000  0.885600  1
  H  H248  1  0.464900  0.366000  0.885600  1
  H  H249  1  0.147500  0.735300  0.839400  1
  H  H250  1  0.691900  0.235300  0.839400  1
  H  H251  1  0.131900  0.764900  0.930400  1
  H  H252  1  0.798500  0.264900  0.930400  1
  H  H253  1  0.513300  0.772300  0.707400  1
  H  H254  1  0.194100  0.272300  0.707400  1
  H  H255  1  0.516500  0.695800  0.605200  1
  H  H256  1  0.088700  0.195800  0.605200  1
  H  H257  1  0.369000  0.610600  0.558600  1
  H  H258  1  0.189600  0.110600  0.558600  1
  H  H259  1  0.730800  0.857200  0.467600  1
  H  H260  1  0.736800  0.357200  0.467600  1
  H  H261  1  0.801300  0.757200  0.414400  1
  H  H262  1  0.613100  0.257200  0.414400  1
  H  H263  1  0.747800  0.706200  0.313800  1
  H  H264  1  0.566000  0.206200  0.313800  1
  H  H265  1  0.310000  0.781800  0.165400  1
  H  H266  1  0.855400  0.281800  0.165400  1
  H  H267  1  0.203700  0.745100  0.067200  1
  H  H268  1  0.863500  0.245100  0.067200  1
  H  H269  1  0.523900  0.641900  0.116400  1
  H  H270  1  0.592500  0.141900  0.116400  1
  H  H271  1  0.510200  0.573500  0.012200  1
  H  H272  1  0.502000  0.073500  0.012200  1
  H  H273  1  0.173600  0.667500  0.960000  1
  H  H274  1  0.786400  0.167500  0.960000  1
  H  H275  1  0.466900  0.491000  0.907800  1
  H  H276  1  0.440900  0.991000  0.907800  1
  H  H277  1  0.349900  0.451700  0.814600  1
  H  H278  1  0.464700  0.951700  0.814600  1
  H  H279  1  0.148500  0.597100  0.856200  1
  H  H280  1  0.707700  0.097100  0.856200  1
  H  H281  1  0.974300  0.377700  0.503400  1
  H  H282  1  0.529100  0.877700  0.503400  1
  H  H283  1  0.023400  0.300100  0.541400  1
  H  H284  1  0.518000  0.800100  0.541400  1
  H  H285  1  0.089800  0.322900  0.638800  1
  H  H286  1  0.549000  0.822900  0.638800  1
  H  H287  1  0.189100  0.817600  0.449200  1
  H  H288  1  0.260100  0.317600  0.449200  1
  H  H289  1  0.999400  0.784000  0.405800  1
  H  H290  1  0.406400  0.284000  0.405800  1
  H  H291  1  0.911400  0.794400  0.319200  1
  H  H292  1  0.407800  0.294400  0.319200  1
  H  H293  1  0.050100  0.932400  0.181600  1
  H  H294  1  0.131500  0.432400  0.181600  1
  H  H295  1  0.998800  0.927500  0.082400  1
  H  H296  1  0.083600  0.427500  0.082400  1
  H  H297  1  0.001100  0.739100  0.124400  1
  H  H298  1  0.123300  0.239100  0.124400  1
  H  H299  1  0.931200  0.670400  0.014400  1
  H  H300  1  0.083200  0.170400  0.014400  1
  H  H301  1  0.919800  0.856700  0.976000  1
  H  H302  1  0.056200  0.356700  0.976000  1
  H  H303  1  0.883900  0.794100  0.873800  1
  H  H304  1  0.989900  0.294100  0.873800  1
  H  H305  1  0.894300  0.596400  0.808400  1
  H  H306  1  0.914100  0.096400  0.808400  1
  H  H307  1  0.926900  0.599600  0.906200  1
  H  H308  1  0.979300  0.099600  0.906200  1
  H  H309  1  0.722800  0.795600  0.687400  1
  H  H310  1  0.964600  0.295600  0.687400  1
  H  H311  1  0.750200  0.790000  0.599600  1
  H  H312  1  0.849400  0.290000  0.599600  1
  H  H313  1  0.851900  0.718700  0.549000  1
  H  H314  1  0.697100  0.218700  0.549000  1
  H  H315  1  0.492200  0.250400  0.584400  1
  H  H316  1  0.092200  0.750400  0.584400  1
  H  H317  1  0.357800  0.252200  0.575400  1
  H  H318  1  0.217600  0.752200  0.575400  1
  H  H319  1  0.441800  0.295200  0.636400  1
  H  H320  1  0.194600  0.795200  0.636400  1
  H  H321  1  0.573400  0.304700  0.547600  1
  H  H322  1  0.974200  0.804700  0.547600  1
  H  H323  1  0.571400  0.381200  0.579000  1
  H  H324  1  0.007600  0.881200  0.579000  1
  H  H325  1  0.492000  0.342400  0.515600  1
  H  H326  1  0.023600  0.842400  0.515600  1
  H  H327  1  0.368300  0.491500  0.326400  1
  H  H328  1  0.958100  0.991500  0.326400  1
  H  H329  1  0.357200  0.544500  0.386800  1
  H  H330  1  0.029600  0.044500  0.386800  1
  H  H331  1  0.278500  0.477100  0.357400  1
  H  H332  1  0.078900  0.977100  0.357400  1
  H  H333  1  0.523100  0.437500  0.332600  1
  H  H334  1  0.809500  0.937500  0.332600  1
  H  H335  1  0.521100  0.392400  0.367200  1
  H  H336  1  0.846100  0.892400  0.367200  1
  H  H337  1  0.601500  0.459200  0.396800  1
  H  H338  1  0.795300  0.959200  0.396800  1
  H  H339  1  0.314800  0.728100  0.280600  1
  H  H340  1  0.965800  0.228100  0.280600  1
  H  H341  1  0.370400  0.662900  0.277800  1
  H  H342  1  0.907400  0.162900  0.277800  1
  H  H343  1  0.297300  0.695800  0.323400  1
  H  H344  1  0.026100  0.195800  0.323400  1
  H  H345  1  0.090500  0.573100  0.204200  1
  H  H346  1  0.113700  0.073100  0.204200  1
  H  H347  1  0.143400  0.589400  0.271000  1
  H  H348  1  0.127600  0.089400  0.271000  1
  H  H349  1  0.216500  0.556600  0.225400  1
  H  H350  1  0.008900  0.056600  0.225400  1
  H  H351  1  0.495000  0.665600  0.495400  1
  H  H352  1  0.000400  0.165600  0.495400  1
  H  H353  1  0.626900  0.657400  0.514800  1
  H  H354  1  0.887900  0.157400  0.514800  1
  H  H355  1  0.539300  0.595500  0.472000  1
  H  H356  1  0.932700  0.095500  0.472000  1
  H  H357  1  0.445000  0.705500  0.436800  1
  H  H358  1  0.991800  0.205500  0.436800  1
  H  H359  1  0.454900  0.663000  0.372800  1
  H  H360  1  0.917900  0.163000  0.372800  1
  H  H361  1  0.539700  0.727200  0.412200  1
  H  H362  1  0.872500  0.227200  0.412200  1
  H  H363  1  0.637200  0.852500  0.198200  1
  H  H364  1  0.561000  0.352500  0.198200  1
  H  H365  1  0.549100  0.901500  0.223200  1
  H  H366  1  0.674100  0.401500  0.223200  1
  H  H367  1  0.652100  0.887100  0.266200  1
  H  H368  1  0.614100  0.387100  0.266200  1
  H  H369  1  0.744600  0.879300  0.165600  1
  H  H370  1  0.421000  0.379300  0.165600  1
  H  H371  1  0.844500  0.934800  0.208200  1
  H  H372  1  0.363700  0.434800  0.208200  1
  H  H373  1  0.743500  0.949800  0.164800  1
  H  H374  1  0.421300  0.449800  0.164800  1
  K  K375  1  0.857250  0.536300  0.486500  1
  K  K376  1  0.629250  0.036300  0.486500  1
  K  K377  1  0.826960  0.662600  0.176520  1
  K  K378  1  0.349560  0.162600  0.176520  1
  K  K379  1  0.175220  0.366900  0.842640  1
  K  K380  1  0.667420  0.866900  0.842640  1
  K  K381  1  0.193380  0.468400  0.510160  1
  K  K382  1  0.316780  0.968400  0.510160  1
  N  N383  1  0.402500  0.002800  0.236400  1
  N  N384  1  0.833900  0.502800  0.236400  1
  N  N385  1  0.291100  0.766100  0.794000  1
  N  N386  1  0.502900  0.266100  0.794000  1
  N  N387  1  0.489600  0.740400  0.210200  1
  N  N388  1  0.720600  0.240400  0.210200  1
  N  N389  1  0.179500  0.504400  0.767600  1
  N  N390  1  0.588100  0.004400  0.767600  1
  N  N391  1  0.064200  0.839800  0.219000  1
  N  N392  1  0.154800  0.339800  0.219000  1
  N  N393  1  0.880400  0.691800  0.774800  1
  N  N394  1  0.894400  0.191800  0.774800  1
  N  N395  1  0.436800  0.330000  0.577000  1
  N  N396  1  0.140200  0.830000  0.577000  1
  N  N397  1  0.437900  0.470300  0.393000  1
  N  N398  1  0.955100  0.970300  0.393000  1
  N  N399  1  0.204700  0.649900  0.243600  1
  N  N400  1  0.038900  0.149900  0.243600  1
  N  N401  1  0.577300  0.652200  0.434200  1
  N  N402  1  0.856900  0.152200  0.434200  1
  N  N403  1  0.699100  0.945400  0.232200  1
  N  N404  1  0.533100  0.445400  0.232200  1
  N  N405  1  0.824800  0.392400  0.786400  1
  N  N406  1  0.961600  0.892400  0.786400  1
  N  N407  1  0.406500  0.260100  0.972200  1
  N  N408  1  0.565700  0.760100  0.972200  1
  N  N409  1  0.179700  0.514900  0.034800  1
  N  N410  1  0.855100  0.014900  0.034800  1
  N  N411  1  0.744700  0.492700  0.921000  1
  N  N412  1  0.176300  0.992700  0.921000  1
  O  O413  1  0.385400  0.991000  0.425200  1
  O  O414  1  0.039800  0.491000  0.425200  1
  O  O415  1  0.413500  0.964300  0.323600  1
  O  O416  1  0.910100  0.464300  0.323600  1
  O  O417  1  0.386100  0.108700  0.254000  1
  O  O418  1  0.867900  0.608700  0.254000  1
  O  O419  1  0.454200  0.821300  0.798200  1
  O  O420  1  0.344000  0.321300  0.798200  1
  O  O421  1  0.187000  0.669700  0.693800  1
  O  O422  1  0.506800  0.169700  0.693800  1
  O  O423  1  0.201800  0.589100  0.594600  1
  O  O424  1  0.392800  0.089100  0.594600  1
  O  O425  1  0.556500  0.908600  0.416200  1
  O  O426  1  0.859700  0.408600  0.416200  1
  O  O427  1  0.475500  0.837000  0.308000  1
  O  O428  1  0.832500  0.337000  0.308000  1
  O  O429  1  0.635600  0.677500  0.213800  1
  O  O430  1  0.578200  0.177500  0.213800  1
  O  O431  1  0.150500  0.393000  0.748400  1
  O  O432  1  0.597900  0.893000  0.748400  1
  O  O433  1  0.105500  0.539500  0.676800  1
  O  O434  1  0.571300  0.039500  0.676800  1
  O  O435  1  0.006900  0.511400  0.571800  1
  O  O436  1  0.564900  0.011400  0.571800  1
  O  O437  1  0.339800  0.864800  0.407200  1
  O  O438  1  0.067400  0.364800  0.407200  1
  O  O439  1  0.246600  0.871100  0.312400  1
  O  O440  1  0.065800  0.371100  0.312400  1
  O  O441  1  0.901100  0.790700  0.218800  1
  O  O442  1  0.317700  0.290700  0.218800  1
  O  O443  1  0.758100  0.773700  0.778600  1
  O  O444  1  0.020500  0.273700  0.778600  1
  O  O445  1  0.963600  0.638100  0.680400  1
  O  O446  1  0.716800  0.138100  0.680400  1
  O  O447  1  0.982200  0.637000  0.585000  1
  O  O448  1  0.602800  0.137000  0.585000  1
  O  O449  1  0.336400  0.412100  0.567000  1
  O  O450  1  0.230600  0.912100  0.567000  1
  O  O451  1  0.353800  0.501000  0.471400  1
  O  O452  1  0.117600  0.001000  0.471400  1
  O  O453  1  0.040400  0.654200  0.173000  1
  O  O454  1  0.132600  0.154200  0.173000  1
  O  O455  1  0.723000  0.590600  0.426200  1
  O  O456  1  0.703200  0.090600  0.426200  1
  O  O457  1  0.757500  0.051200  0.276000  1
  O  O458  1  0.518500  0.551200  0.276000  1
  O  O459  1  0.971900  0.404700  0.864600  1
  O  O460  1  0.892700  0.904700  0.864600  1
  O  O461  1  0.244300  0.437100  0.966000  1
  O  O462  1  0.721700  0.937100  0.966000  1
  O  O463  1  0.507600  0.569100  0.764800  1
  O  O464  1  0.257200  0.069100  0.764800  1
  O  O465  1  0.695400  0.510700  0.536200  1
  O  O466  1  0.840800  0.010700  0.536200  1
  O  O467  1  0.290100  0.283700  0.902200  1
  O  O468  1  0.612100  0.783700  0.902200  1
  O  O469  1  0.764000  0.594900  0.055800  1
  O  O470  1  0.291800  0.094900  0.055800  1
  O  O471  1  0.735000  0.648800  0.065800  1
  O  O472  1  0.330800  0.148800  0.065800  1
  O  O473  1  0.693200  0.514700  0.614000  1
  O  O474  1  0.920800  0.014700  0.614000  1
  Ti  Ti475  1  0.404620  0.906400  0.365840  1
  Ti  Ti476  1  0.961220  0.406400  0.365840  1
  Ti  Ti477  1  0.074280  0.596700  0.633360  1
  Ti  Ti478  1  0.559080  0.096700  0.633360  1
