# generated using pymatgen
data_P2H43PtC26S2N3(O2F)6
_symmetry_space_group_name_H-M   'P 1'
_cell_length_a   11.79340000
_cell_length_b   17.45470000
_cell_length_c   20.68650000
_cell_angle_alpha   111.96240000
_cell_angle_beta   90.00000000
_cell_angle_gamma   90.00000000
_symmetry_Int_Tables_number   1
_chemical_formula_structural   P2H43PtC26S2N3(O2F)6
_chemical_formula_sum   'P8 H172 Pt4 C104 S8 N12 O48 F24'
_cell_volume   3949.29282007
_cell_formula_units_Z   4
loop_
 _symmetry_equiv_pos_site_id
 _symmetry_equiv_pos_as_xyz
  1  'x, y, z'
loop_
 _atom_site_type_symbol
 _atom_site_label
 _atom_site_symmetry_multiplicity
 _atom_site_fract_x
 _atom_site_fract_y
 _atom_site_fract_z
 _atom_site_occupancy
  P  P1  1  0.763900  0.500000  0.297900  1.0
  P  P2  1  0.263900  0.000000  0.202100  1.0
  P  P3  1  0.236100  0.500000  0.702100  1.0
  P  P4  1  0.736100  0.000000  0.797900  1.0
  P  P5  1  0.901200  0.353900  0.166600  1.0
  P  P6  1  0.401200  0.146100  0.333400  1.0
  P  P7  1  0.098800  0.646100  0.833400  1.0
  P  P8  1  0.598800  0.853900  0.666600  1.0
  H  H9  1  0.600900  0.026100  0.083700  1
  H  H10  1  0.100900  0.473900  0.416300  1
  H  H11  1  0.399100  0.973900  0.916300  1
  H  H12  1  0.899100  0.526100  0.583700  1
  H  H13  1  0.639400  0.956100  0.011600  1
  H  H14  1  0.139400  0.543900  0.488400  1
  H  H15  1  0.360600  0.043900  0.988400  1
  H  H16  1  0.860600  0.456100  0.511600  1
  H  H17  1  0.661500  0.051400  0.025400  1
  H  H18  1  0.161500  0.448600  0.474600  1
  H  H19  1  0.338500  0.948600  0.974600  1
  H  H20  1  0.838500  0.551400  0.525400  1
  H  H21  1  0.814000  0.343000  0.823000  1.0
  H  H22  1  0.314000  0.157000  0.677000  1.0
  H  H23  1  0.186000  0.657000  0.177000  1.0
  H  H24  1  0.686000  0.843000  0.323000  1.0
  H  H25  1  0.637000  0.244000  0.786000  1.0
  H  H26  1  0.137000  0.256000  0.714000  1.0
  H  H27  1  0.363000  0.756000  0.214000  1.0
  H  H28  1  0.863000  0.744000  0.286000  1.0
  H  H29  1  0.583100  0.287800  0.946300  1.0
  H  H30  1  0.083100  0.212200  0.553700  1.0
  H  H31  1  0.416900  0.712200  0.053700  1.0
  H  H32  1  0.916900  0.787800  0.446300  1.0
  H  H33  1  0.625800  0.321600  0.062700  1.0
  H  H34  1  0.125800  0.178400  0.437300  1.0
  H  H35  1  0.374200  0.678400  0.937300  1.0
  H  H36  1  0.874200  0.821600  0.562700  1.0
  H  H37  1  0.844700  0.490600  0.057600  1.0
  H  H38  1  0.344700  0.009400  0.442400  1.0
  H  H39  1  0.155300  0.509400  0.942400  1.0
  H  H40  1  0.655300  0.990600  0.557600  1.0
  H  H41  1  0.807600  0.460100  0.940900  1.0
  H  H42  1  0.307600  0.039900  0.559100  1.0
  H  H43  1  0.192400  0.539900  0.059100  1.0
  H  H44  1  0.692400  0.960100  0.440900  1.0
  H  H45  1  0.446800  0.309400  0.840800  1.0
  H  H46  1  0.946800  0.190600  0.659200  1.0
  H  H47  1  0.553200  0.690600  0.159200  1.0
  H  H48  1  0.053200  0.809400  0.340800  1.0
  H  H49  1  0.706200  0.615300  0.174900  1.0
  H  H50  1  0.206200  0.884700  0.325100  1.0
  H  H51  1  0.293800  0.384700  0.825100  1.0
  H  H52  1  0.793800  0.115300  0.674900  1.0
  H  H53  1  0.503800  0.435500  0.174200  1.0
  H  H54  1  0.003800  0.064500  0.325800  1.0
  H  H55  1  0.496200  0.564500  0.825800  1.0
  H  H56  1  0.996200  0.935500  0.674200  1.0
  H  H57  1  0.653700  0.494200  0.841000  1.0
  H  H58  1  0.153700  0.005800  0.659000  1.0
  H  H59  1  0.346300  0.505800  0.159000  1.0
  H  H60  1  0.846300  0.994200  0.341000  1.0
  H  H61  1  0.827600  0.251200  0.066500  1.0
  H  H62  1  0.327600  0.248800  0.433500  1.0
  H  H63  1  0.172400  0.748800  0.933500  1.0
  H  H64  1  0.672400  0.751200  0.566500  1.0
  H  H65  1  0.921800  0.303400  0.045300  1.0
  H  H66  1  0.421800  0.196600  0.454700  1.0
  H  H67  1  0.078200  0.696600  0.954700  1.0
  H  H68  1  0.578200  0.803400  0.545300  1.0
  H  H69  1  0.987600  0.166600  0.019300  1.0
  H  H70  1  0.487600  0.333400  0.480700  1.0
  H  H71  1  0.012400  0.833400  0.980700  1.0
  H  H72  1  0.512400  0.666600  0.519300  1.0
  H  H73  1  0.973300  0.177600  0.099200  1.0
  H  H74  1  0.473300  0.322400  0.400800  1.0
  H  H75  1  0.026700  0.822400  0.900800  1.0
  H  H76  1  0.526700  0.677600  0.599200  1.0
  H  H77  1  0.067400  0.229700  0.077600  1.0
  H  H78  1  0.567400  0.270300  0.422400  1.0
  H  H79  1  0.932600  0.770300  0.922400  1.0
  H  H80  1  0.432600  0.729700  0.577600  1.0
  H  H81  1  0.052000  0.434400  0.229400  1.0
  H  H82  1  0.552000  0.065600  0.270600  1.0
  H  H83  1  0.948000  0.565600  0.770600  1.0
  H  H84  1  0.448000  0.934400  0.729400  1.0
  H  H85  1  0.099300  0.352800  0.169300  1.0
  H  H86  1  0.599300  0.147200  0.330700  1.0
  H  H87  1  0.900700  0.647200  0.830700  1.0
  H  H88  1  0.400700  0.852800  0.669300  1.0
  H  H89  1  0.145900  0.469700  0.144100  1.0
  H  H90  1  0.645900  0.030300  0.355900  1.0
  H  H91  1  0.854100  0.530300  0.855900  1.0
  H  H92  1  0.354100  0.969700  0.644100  1.0
  H  H93  1  0.014500  0.493400  0.145500  1.0
  H  H94  1  0.514500  0.006600  0.354500  1.0
  H  H95  1  0.985500  0.506600  0.854500  1.0
  H  H96  1  0.485500  0.993400  0.645500  1.0
  H  H97  1  0.061800  0.411800  0.085400  1.0
  H  H98  1  0.561800  0.088200  0.414600  1.0
  H  H99  1  0.938200  0.588200  0.914600  1.0
  H  H100  1  0.438200  0.911800  0.585400  1.0
  H  H101  1  0.962400  0.260200  0.215600  1.0
  H  H102  1  0.462400  0.239800  0.284400  1.0
  H  H103  1  0.037600  0.739800  0.784400  1.0
  H  H104  1  0.537600  0.760200  0.715600  1.0
  H  H105  1  0.891400  0.332900  0.271600  1.0
  H  H106  1  0.391400  0.167100  0.228400  1.0
  H  H107  1  0.108600  0.667100  0.728400  1.0
  H  H108  1  0.608600  0.832900  0.771600  1.0
  H  H109  1  0.790800  0.208300  0.239800  1.0
  H  H110  1  0.290800  0.291700  0.260200  1.0
  H  H111  1  0.209200  0.791700  0.760200  1.0
  H  H112  1  0.709200  0.708300  0.739800  1.0
  H  H113  1  0.792300  0.199000  0.159800  1.0
  H  H114  1  0.292300  0.301000  0.340200  1.0
  H  H115  1  0.207700  0.801000  0.840200  1.0
  H  H116  1  0.707700  0.699000  0.659800  1.0
  H  H117  1  0.721200  0.271800  0.215800  1.0
  H  H118  1  0.221200  0.228200  0.284200  1.0
  H  H119  1  0.278800  0.728200  0.784200  1.0
  H  H120  1  0.778800  0.771800  0.715800  1.0
  H  H121  1  0.892600  0.538100  0.390300  1.0
  H  H122  1  0.392600  0.961900  0.109700  1.0
  H  H123  1  0.107400  0.461900  0.609700  1.0
  H  H124  1  0.607400  0.038100  0.890300  1.0
  H  H125  1  0.945600  0.466700  0.323800  1.0
  H  H126  1  0.445600  0.033300  0.176200  1.0
  H  H127  1  0.054400  0.533300  0.676200  1.0
  H  H128  1  0.554400  0.966700  0.823800  1.0
  H  H129  1  0.045800  0.591800  0.346800  1.0
  H  H130  1  0.545800  0.908200  0.153200  1.0
  H  H131  1  0.954200  0.408200  0.653200  1.0
  H  H132  1  0.454200  0.091800  0.846800  1.0
  H  H133  1  0.931400  0.636500  0.338500  1.0
  H  H134  1  0.431400  0.863500  0.161500  1.0
  H  H135  1  0.068600  0.363500  0.661500  1.0
  H  H136  1  0.568600  0.136500  0.838500  1.0
  H  H137  1  0.985400  0.564900  0.272300  1.0
  H  H138  1  0.485400  0.935100  0.227700  1.0
  H  H139  1  0.014600  0.435100  0.727700  1.0
  H  H140  1  0.514600  0.064900  0.772300  1.0
  H  H141  1  0.729600  0.385600  0.328300  1.0
  H  H142  1  0.229600  0.114400  0.171700  1.0
  H  H143  1  0.270400  0.614400  0.671700  1.0
  H  H144  1  0.770400  0.885600  0.828300  1.0
  H  H145  1  0.689200  0.468400  0.389800  1.0
  H  H146  1  0.189200  0.031600  0.110200  1.0
  H  H147  1  0.310800  0.531600  0.610200  1.0
  H  H148  1  0.810800  0.968400  0.889800  1.0
  H  H149  1  0.530600  0.387200  0.337800  1.0
  H  H150  1  0.030600  0.112800  0.162200  1.0
  H  H151  1  0.469400  0.612800  0.662200  1.0
  H  H152  1  0.969400  0.887200  0.837800  1.0
  H  H153  1  0.565700  0.388700  0.263600  1.0
  H  H154  1  0.065700  0.111300  0.236400  1.0
  H  H155  1  0.434300  0.611300  0.736400  1.0
  H  H156  1  0.934300  0.888700  0.763600  1.0
  H  H157  1  0.525300  0.471900  0.324700  1.0
  H  H158  1  0.025300  0.028100  0.175300  1.0
  H  H159  1  0.474700  0.528100  0.675300  1.0
  H  H160  1  0.974700  0.971900  0.824700  1.0
  H  H161  1  0.731800  0.636900  0.311200  1.0
  H  H162  1  0.231800  0.863100  0.188800  1.0
  H  H163  1  0.268200  0.363100  0.688800  1.0
  H  H164  1  0.768200  0.136900  0.811200  1.0
  H  H165  1  0.614400  0.592800  0.314300  1.0
  H  H166  1  0.114400  0.907200  0.185700  1.0
  H  H167  1  0.385600  0.407200  0.685700  1.0
  H  H168  1  0.885600  0.092800  0.814300  1.0
  H  H169  1  0.653900  0.695900  0.423700  1.0
  H  H170  1  0.153900  0.804100  0.076300  1.0
  H  H171  1  0.346100  0.304100  0.576300  1.0
  H  H172  1  0.846100  0.195900  0.923700  1.0
  H  H173  1  0.771600  0.651900  0.427600  1.0
  H  H174  1  0.271600  0.848100  0.072400  1.0
  H  H175  1  0.228400  0.348100  0.572400  1.0
  H  H176  1  0.728400  0.151900  0.927600  1.0
  H  H177  1  0.653600  0.607800  0.430800  1.0
  H  H178  1  0.153600  0.892200  0.069200  1.0
  H  H179  1  0.346400  0.392200  0.569200  1.0
  H  H180  1  0.846400  0.107800  0.930800  1.0
  Pt  Pt181  1  0.758700  0.445900  0.179200  1.0
  Pt  Pt182  1  0.258700  0.054100  0.320800  1.0
  Pt  Pt183  1  0.241300  0.554100  0.820800  1.0
  Pt  Pt184  1  0.741300  0.945900  0.679200  1.0
  C  C185  1  0.353800  0.251100  0.063200  1
  C  C186  1  0.853800  0.248900  0.436800  1
  C  C187  1  0.646200  0.748900  0.936800  1
  C  C188  1  0.146200  0.751100  0.563200  1
  C  C189  1  0.134400  0.237600  0.879800  1
  C  C190  1  0.634400  0.262400  0.620200  1
  C  C191  1  0.865600  0.762400  0.120200  1
  C  C192  1  0.365600  0.737600  0.379800  1
  C  C193  1  0.658700  0.010100  0.047000  1
  C  C194  1  0.158700  0.489900  0.453000  1
  C  C195  1  0.341300  0.989900  0.953000  1
  C  C196  1  0.841300  0.510100  0.547000  1
  C  C197  1  0.669700  0.344800  0.852300  1.0
  C  C198  1  0.169700  0.155200  0.647700  1.0
  C  C199  1  0.330300  0.655200  0.147700  1.0
  C  C200  1  0.830300  0.844800  0.352300  1.0
  C  C201  1  0.693200  0.368700  0.930000  1.0
  C  C202  1  0.193200  0.131300  0.570000  1.0
  C  C203  1  0.306800  0.631300  0.070000  1.0
  C  C204  1  0.806800  0.868700  0.430000  1.0
  C  C205  1  0.638200  0.329100  0.968100  1.0
  C  C206  1  0.138200  0.170900  0.531900  1.0
  C  C207  1  0.361800  0.670900  0.031900  1.0
  C  C208  1  0.861800  0.829100  0.468100  1.0
  C  C209  1  0.663600  0.349700  0.037500  1.0
  C  C210  1  0.163600  0.150300  0.462500  1.0
  C  C211  1  0.336400  0.650300  0.962500  1.0
  C  C212  1  0.836400  0.849700  0.537500  1.0
  C  C213  1  0.791500  0.448400  0.034400  1.0
  C  C214  1  0.291500  0.051600  0.465600  1.0
  C  C215  1  0.208500  0.551600  0.965600  1.0
  C  C216  1  0.708500  0.948400  0.534400  1.0
  C  C217  1  0.770000  0.430400  0.964800  1.0
  C  C218  1  0.270000  0.069600  0.535200  1.0
  C  C219  1  0.230000  0.569600  0.035200  1.0
  C  C220  1  0.730000  0.930400  0.464800  1.0
  C  C221  1  0.567800  0.393100  0.841800  1.0
  C  C222  1  0.067800  0.106900  0.658200  1.0
  C  C223  1  0.432200  0.606900  0.158200  1.0
  C  C224  1  0.932200  0.893100  0.341800  1.0
  C  C225  1  0.459000  0.361600  0.837400  1.0
  C  C226  1  0.959000  0.138400  0.662600  1.0
  C  C227  1  0.541000  0.638400  0.162600  1.0
  C  C228  1  0.041000  0.861600  0.337400  1.0
  C  C229  1  0.631900  0.593300  0.172100  1.0
  C  C230  1  0.131900  0.906700  0.327900  1.0
  C  C231  1  0.368100  0.406700  0.827900  1.0
  C  C232  1  0.868100  0.093300  0.672100  1.0
  C  C233  1  0.513600  0.488400  0.171700  1.0
  C  C234  1  0.013600  0.011600  0.328300  1.0
  C  C235  1  0.486400  0.511600  0.828300  1.0
  C  C236  1  0.986400  0.988400  0.671700  1.0
  C  C237  1  0.580600  0.470200  0.837500  1.0
  C  C238  1  0.080600  0.029800  0.662500  1.0
  C  C239  1  0.419400  0.529800  0.162500  1.0
  C  C240  1  0.919400  0.970200  0.337500  1.0
  C  C241  1  0.904100  0.275900  0.078200  1.0
  C  C242  1  0.404100  0.224100  0.421800  1.0
  C  C243  1  0.095900  0.724100  0.921800  1.0
  C  C244  1  0.595900  0.775900  0.578200  1.0
  C  C245  1  0.991100  0.206100  0.067600  1.0
  C  C246  1  0.491100  0.293900  0.432400  1.0
  C  C247  1  0.008900  0.793900  0.932400  1.0
  C  C248  1  0.508900  0.706100  0.567600  1.0
  C  C249  1  0.043100  0.398000  0.179800  1.0
  C  C250  1  0.543100  0.102000  0.320200  1.0
  C  C251  1  0.956900  0.602000  0.820200  1.0
  C  C252  1  0.456900  0.898000  0.679800  1.0
  C  C253  1  0.068600  0.447700  0.134600  1.0
  C  C254  1  0.568600  0.052300  0.365400  1.0
  C  C255  1  0.931400  0.552300  0.865400  1.0
  C  C256  1  0.431400  0.947700  0.634600  1.0
  C  C257  1  0.893100  0.294300  0.222400  1.0
  C  C258  1  0.393100  0.205700  0.277600  1.0
  C  C259  1  0.106900  0.705700  0.777600  1.0
  C  C260  1  0.606900  0.794300  0.722400  1.0
  C  C261  1  0.790300  0.238400  0.208200  1.0
  C  C262  1  0.290300  0.261600  0.291800  1.0
  C  C263  1  0.209700  0.761600  0.791800  1.0
  C  C264  1  0.709700  0.738400  0.708200  1.0
  C  C265  1  0.902700  0.519200  0.339200  1.0
  C  C266  1  0.402700  0.980800  0.160800  1.0
  C  C267  1  0.097300  0.480800  0.660800  1.0
  C  C268  1  0.597300  0.019200  0.839200  1.0
  C  C269  1  0.972700  0.584000  0.322700  1.0
  C  C270  1  0.472700  0.916000  0.177300  1.0
  C  C271  1  0.027300  0.416000  0.677300  1.0
  C  C272  1  0.527300  0.084000  0.822700  1.0
  C  C273  1  0.688700  0.438400  0.338600  1.0
  C  C274  1  0.188700  0.061600  0.161400  1.0
  C  C275  1  0.311300  0.561600  0.661400  1.0
  C  C276  1  0.811300  0.938400  0.838600  1.0
  C  C277  1  0.566800  0.419900  0.314000  1.0
  C  C278  1  0.066800  0.080100  0.186000  1.0
  C  C279  1  0.433200  0.580100  0.686000  1.0
  C  C280  1  0.933200  0.919900  0.814000  1.0
  C  C281  1  0.693800  0.600100  0.331100  1.0
  C  C282  1  0.193800  0.899900  0.168900  1.0
  C  C283  1  0.306200  0.399900  0.668900  1.0
  C  C284  1  0.806200  0.100100  0.831100  1.0
  C  C285  1  0.693100  0.642700  0.410400  1.0
  C  C286  1  0.193100  0.857300  0.089600  1.0
  C  C287  1  0.306900  0.357300  0.589600  1.0
  C  C288  1  0.806900  0.142700  0.910400  1.0
  S  S289  1  0.474300  0.205500  0.086500  1
  S  S290  1  0.974300  0.294500  0.413500  1
  S  S291  1  0.525700  0.794500  0.913500  1
  S  S292  1  0.025700  0.705500  0.586500  1
  S  S293  1  0.050900  0.318800  0.866900  1
  S  S294  1  0.550900  0.181200  0.633100  1
  S  S295  1  0.949100  0.681200  0.133100  1
  S  S296  1  0.449100  0.818800  0.366900  1
  N  N297  1  0.766100  0.005500  0.076400  1
  N  N298  1  0.266100  0.494500  0.423600  1
  N  N299  1  0.233900  0.994500  0.923600  1
  N  N300  1  0.733900  0.505500  0.576400  1
  N  N301  1  0.740100  0.408300  0.070600  1.0
  N  N302  1  0.240100  0.091700  0.429400  1.0
  N  N303  1  0.259900  0.591700  0.929400  1.0
  N  N304  1  0.759900  0.908300  0.570600  1.0
  N  N305  1  0.618600  0.519900  0.177400  1.0
  N  N306  1  0.118600  0.980100  0.322600  1.0
  N  N307  1  0.381400  0.480100  0.822600  1.0
  N  N308  1  0.881400  0.019900  0.677400  1.0
  O  O309  1  0.521800  0.274700  0.141000  1
  O  O310  1  0.021800  0.225300  0.359000  1
  O  O311  1  0.478200  0.725300  0.859000  1
  O  O312  1  0.978200  0.774700  0.641000  1
  O  O313  1  0.426300  0.142300  0.106300  1
  O  O314  1  0.926300  0.357700  0.393700  1
  O  O315  1  0.573700  0.857700  0.893700  1
  O  O316  1  0.073700  0.642300  0.606300  1
  O  O317  1  0.538600  0.177100  0.022500  1
  O  O318  1  0.038600  0.322900  0.477500  1
  O  O319  1  0.461400  0.822900  0.977500  1
  O  O320  1  0.961400  0.677100  0.522500  1
  O  O321  1  0.111500  0.333800  0.812200  1
  O  O322  1  0.611500  0.166200  0.687800  1
  O  O323  1  0.888500  0.666200  0.187800  1
  O  O324  1  0.388500  0.833800  0.312200  1
  O  O325  1  0.943100  0.280000  0.846100  1
  O  O326  1  0.443100  0.220000  0.653900  1
  O  O327  1  0.056900  0.720000  0.153900  1
  O  O328  1  0.556900  0.780000  0.346100  1
  O  O329  1  0.053200  0.385800  0.932600  1
  O  O330  1  0.553200  0.114200  0.567400  1
  O  O331  1  0.946800  0.614200  0.067400  1
  O  O332  1  0.446800  0.885800  0.432600  1
  O  O333  1  0.854000  0.989000  0.033000  1
  O  O334  1  0.354000  0.511000  0.467000  1
  O  O335  1  0.146000  0.011000  0.967000  1
  O  O336  1  0.646000  0.489000  0.533000  1
  O  O337  1  0.729000  0.027000  0.156000  1
  O  O338  1  0.229000  0.473000  0.344000  1
  O  O339  1  0.271000  0.973000  0.844000  1
  O  O340  1  0.771000  0.527000  0.656000  1
  O  O341  1  0.780000  0.993000  0.126000  1
  O  O342  1  0.280000  0.507000  0.374000  1
  O  O343  1  0.220000  0.007000  0.874000  1
  O  O344  1  0.720000  0.493000  0.626000  1
  O  O345  1  0.838000  0.026000  0.048000  1
  O  O346  1  0.338000  0.474000  0.452000  1
  O  O347  1  0.162000  0.974000  0.952000  1
  O  O348  1  0.662000  0.526000  0.548000  1
  O  O349  1  0.647200  0.259700  0.826700  1.0
  O  O350  1  0.147200  0.240300  0.673300  1.0
  O  O351  1  0.352800  0.740300  0.173300  1.0
  O  O352  1  0.852800  0.759700  0.326700  1.0
  O  O353  1  0.760900  0.364400  0.818300  1.0
  O  O354  1  0.260900  0.135600  0.681700  1.0
  O  O355  1  0.239100  0.635600  0.181700  1.0
  O  O356  1  0.739100  0.864400  0.318300  1.0
  F  F357  1  0.292400  0.197900  0.012900  1
  F  F358  1  0.792400  0.302100  0.487100  1
  F  F359  1  0.707600  0.802100  0.987100  1
  F  F360  1  0.207600  0.697900  0.512900  1
  F  F361  1  0.382100  0.312100  0.040800  1
  F  F362  1  0.882100  0.187900  0.459200  1
  F  F363  1  0.617900  0.687900  0.959200  1
  F  F364  1  0.117900  0.812100  0.540800  1
  F  F365  1  0.285100  0.283000  0.119000  1
  F  F366  1  0.785100  0.217000  0.381000  1
  F  F367  1  0.714900  0.717000  0.881000  1
  F  F368  1  0.214900  0.783000  0.619000  1
  F  F369  1  0.240600  0.261000  0.892900  1
  F  F370  1  0.740600  0.239000  0.607100  1
  F  F371  1  0.759400  0.739000  0.107100  1
  F  F372  1  0.259400  0.761000  0.392900  1
  F  F373  1  0.130200  0.168200  0.823300  1
  F  F374  1  0.630200  0.331800  0.676700  1
  F  F375  1  0.869800  0.831800  0.176700  1
  F  F376  1  0.369800  0.668200  0.323300  1
  F  F377  1  0.095000  0.220500  0.932300  1
  F  F378  1  0.595000  0.279500  0.567700  1
  F  F379  1  0.905000  0.779500  0.067700  1
  F  F380  1  0.405000  0.720500  0.432300  1
