# generated using pymatgen
data_P2H54PtC33S4N2O13F12
_symmetry_space_group_name_H-M   'P 1'
_cell_length_a   16.35745746
_cell_length_b   16.35745746
_cell_length_c   17.69830000
_cell_angle_alpha   74.30200227
_cell_angle_beta   74.30200227
_cell_angle_gamma   68.17015120
_symmetry_Int_Tables_number   1
_chemical_formula_structural   P2H54PtC33S4N2O13F12
_chemical_formula_sum   'P8 H216 Pt4 C132 S16 N8 O52 F48'
_cell_volume   4154.70424897
_cell_formula_units_Z   4
loop_
 _symmetry_equiv_pos_site_id
 _symmetry_equiv_pos_as_xyz
  1  'x, y, z'
loop_
 _atom_site_type_symbol
 _atom_site_label
 _atom_site_symmetry_multiplicity
 _atom_site_fract_x
 _atom_site_fract_y
 _atom_site_fract_z
 _atom_site_occupancy
  C  C1  1  0.745000  0.077400  0.851500  1
  C  C2  1  0.922600  0.255000  0.648500  1
  C  C3  1  0.255000  0.922600  0.148500  1
  C  C4  1  0.077400  0.745000  0.351500  1
  C  C5  1  0.478100  0.667900  0.734700  1
  C  C6  1  0.332100  0.521900  0.765300  1
  C  C7  1  0.521900  0.332100  0.265300  1
  C  C8  1  0.667900  0.478100  0.234700  1
  C  C9  1  0.512400  0.107000  0.644700  1
  C  C10  1  0.893000  0.487600  0.855300  1
  C  C11  1  0.487600  0.893000  0.355300  1
  C  C12  1  0.107000  0.512400  0.144700  1
  C  C13  1  0.352400  0.261400  0.655300  1
  C  C14  1  0.738600  0.647600  0.844700  1
  C  C15  1  0.647600  0.738600  0.344700  1
  C  C16  1  0.261400  0.352400  0.155300  1
  C  C17  1  0.254200  0.306000  0.650000  1
  C  C18  1  0.694000  0.745800  0.850000  1
  C  C19  1  0.745800  0.694000  0.350000  1
  C  C20  1  0.306000  0.254200  0.150000  1
  C  C21  1  0.379900  0.142900  0.550100  1
  C  C22  1  0.857100  0.620100  0.949900  1
  C  C23  1  0.620100  0.857100  0.449900  1
  C  C24  1  0.142900  0.379900  0.050100  1
  C  C25  1  0.426000  0.200200  0.482500  1
  C  C26  1  0.799800  0.574000  0.017500  1
  C  C27  1  0.574000  0.799800  0.517500  1
  C  C28  1  0.200200  0.426000  0.982500  1
  C  C29  1  0.684400  0.122000  0.836000  1
  C  C30  1  0.878000  0.315600  0.664000  1
  C  C31  1  0.315600  0.878000  0.164000  1
  C  C32  1  0.122000  0.684400  0.336000  1
  C  C33  1  0.198700  0.897500  0.519600  1.0
  C  C34  1  0.102500  0.801300  0.980400  1.0
  C  C35  1  0.801300  0.102500  0.480400  1.0
  C  C36  1  0.897500  0.198700  0.019600  1.0
  C  C37  1  0.250400  0.847600  0.402500  1.0
  C  C38  1  0.152400  0.749600  0.097500  1.0
  C  C39  1  0.749600  0.152400  0.597500  1.0
  C  C40  1  0.847600  0.250400  0.902500  1.0
  C  C41  1  0.176200  0.930000  0.393500  1.0
  C  C42  1  0.070000  0.823800  0.106500  1.0
  C  C43  1  0.823800  0.070000  0.606500  1.0
  C  C44  1  0.930000  0.176200  0.893500  1.0
  C  C45  1  0.231500  0.939300  0.567700  1.0
  C  C46  1  0.060700  0.768500  0.932300  1.0
  C  C47  1  0.768500  0.060700  0.432300  1.0
  C  C48  1  0.939300  0.231500  0.067700  1.0
  C  C49  1  0.311100  0.895300  0.594100  1.0
  C  C50  1  0.104700  0.688900  0.905900  1.0
  C  C51  1  0.688900  0.104700  0.405900  1.0
  C  C52  1  0.895300  0.311100  0.094100  1.0
  C  C53  1  0.337200  0.934400  0.640300  1.0
  C  C54  1  0.065600  0.662800  0.859700  1.0
  C  C55  1  0.662800  0.065600  0.359700  1.0
  C  C56  1  0.934400  0.337200  0.140300  1.0
  C  C57  1  0.209000  0.056600  0.634000  1.0
  C  C58  1  0.943400  0.791000  0.866000  1.0
  C  C59  1  0.791000  0.943400  0.366000  1.0
  C  C60  1  0.056600  0.209000  0.134000  1.0
  C  C61  1  0.179500  0.022100  0.588500  1.0
  C  C62  1  0.977900  0.820500  0.911500  1.0
  C  C63  1  0.820500  0.977900  0.411500  1.0
  C  C64  1  0.022100  0.179500  0.088500  1.0
  C  C65  1  0.138200  0.844400  0.575600  1.0
  C  C66  1  0.155600  0.861800  0.924400  1.0
  C  C67  1  0.861800  0.155600  0.424400  1.0
  C  C68  1  0.844400  0.138200  0.075600  1.0
  C  C69  1  0.172200  0.754800  0.605500  1.0
  C  C70  1  0.245200  0.827800  0.894500  1.0
  C  C71  1  0.827800  0.245200  0.394500  1.0
  C  C72  1  0.754800  0.172200  0.105500  1.0
  C  C73  1  0.291100  0.885500  0.845700  1.0
  C  C74  1  0.114500  0.708900  0.654300  1.0
  C  C75  1  0.708900  0.114500  0.154300  1.0
  C  C76  1  0.885500  0.291100  0.345700  1.0
  C  C77  1  0.161100  0.006100  0.851900  1.0
  C  C78  1  0.993900  0.838900  0.648100  1.0
  C  C79  1  0.838900  0.993900  0.148100  1.0
  C  C80  1  0.006100  0.161100  0.351900  1.0
  C  C81  1  0.046900  0.887300  0.598400  1.0
  C  C82  1  0.112700  0.953100  0.901600  1.0
  C  C83  1  0.953100  0.112700  0.401600  1.0
  C  C84  1  0.887300  0.046900  0.098400  1.0
  C  C85  1  0.479400  0.067600  0.577400  1.0
  C  C86  1  0.932400  0.520600  0.922600  1.0
  C  C87  1  0.520600  0.932400  0.422600  1.0
  C  C88  1  0.067600  0.479400  0.077400  1.0
  C  C89  1  0.559200  0.009200  0.621300  1.0
  C  C90  1  0.990800  0.440800  0.878700  1.0
  C  C91  1  0.440800  0.990800  0.378700  1.0
  C  C92  1  0.009200  0.559200  0.121300  1.0
  C  C93  1  0.448300  0.211700  0.656400  1.0
  C  C94  1  0.788300  0.551700  0.843600  1.0
  C  C95  1  0.551700  0.788300  0.343600  1.0
  C  C96  1  0.211700  0.448300  0.156400  1.0
  C  C97  1  0.490400  0.264600  0.578300  1.0
  C  C98  1  0.735400  0.509600  0.921700  1.0
  C  C99  1  0.509600  0.735400  0.421700  1.0
  C  C100  1  0.264600  0.490400  0.078300  1.0
  C  C101  1  0.315600  0.215800  0.578900  1.0
  C  C102  1  0.784200  0.684400  0.921100  1.0
  C  C103  1  0.684400  0.784200  0.421100  1.0
  C  C104  1  0.215800  0.315600  0.078900  1.0
  C  C105  1  0.239100  0.282900  0.622100  1.0
  C  C106  1  0.717100  0.760900  0.877900  1.0
  C  C107  1  0.760900  0.717100  0.377900  1.0
  C  C108  1  0.282900  0.239100  0.122100  1.0
  C  C109  1  0.238000  0.135400  0.917800  1.0
  C  C110  1  0.864600  0.762000  0.582200  1.0
  C  C111  1  0.762000  0.864600  0.082200  1.0
  C  C112  1  0.135400  0.238000  0.417800  1.0
  C  C113  1  0.176000  0.221600  0.875800  1.0
  C  C114  1  0.778400  0.824000  0.624200  1.0
  C  C115  1  0.824000  0.778400  0.124200  1.0
  C  C116  1  0.221600  0.176000  0.375800  1.0
  C  C117  1  0.412400  0.155800  0.846100  1.0
  C  C118  1  0.844200  0.587600  0.653900  1.0
  C  C119  1  0.587600  0.844200  0.153900  1.0
  C  C120  1  0.155800  0.412400  0.346100  1.0
  C  C121  1  0.419800  0.169800  0.925900  1.0
  C  C122  1  0.830200  0.580200  0.574100  1.0
  C  C123  1  0.580200  0.830200  0.074100  1.0
  C  C124  1  0.169800  0.419800  0.425900  1.0
  C  C125  1  0.395300  0.981700  0.918800  1.0
  C  C126  1  0.018300  0.604700  0.581200  1.0
  C  C127  1  0.604700  0.018300  0.081200  1.0
  C  C128  1  0.981700  0.395300  0.418800  1.0
  C  C129  1  0.486300  0.926300  0.880500  1.0
  C  C130  1  0.073700  0.513700  0.619500  1.0
  C  C131  1  0.513700  0.073700  0.119500  1.0
  C  C132  1  0.926300  0.486300  0.380500  1.0
  F  F133  1  0.796900  0.043100  0.916800  1
  F  F134  1  0.956900  0.203100  0.583200  1
  F  F135  1  0.203100  0.956900  0.083200  1
  F  F136  1  0.043100  0.796900  0.416800  1
  F  F137  1  0.684800  0.122600  0.898500  1
  F  F138  1  0.877400  0.315200  0.601500  1
  F  F139  1  0.315200  0.877400  0.101500  1
  F  F140  1  0.122600  0.684800  0.398500  1
  F  F141  1  0.782700  0.121500  0.793000  1
  F  F142  1  0.878500  0.217300  0.707000  1
  F  F143  1  0.217300  0.878500  0.207000  1
  F  F144  1  0.121500  0.782700  0.293000  1
  F  F145  1  0.390700  0.708700  0.703000  1
  F  F146  1  0.291300  0.609300  0.797000  1
  F  F147  1  0.609300  0.291300  0.297000  1
  F  F148  1  0.708700  0.390700  0.203000  1
  F  F149  1  0.477300  0.633300  0.798000  1
  F  F150  1  0.366700  0.522700  0.702000  1
  F  F151  1  0.522700  0.366700  0.202000  1
  F  F152  1  0.633300  0.477300  0.298000  1
  F  F153  1  0.514700  0.600500  0.689000  1
  F  F154  1  0.399500  0.485300  0.811000  1
  F  F155  1  0.485300  0.399500  0.311000  1
  F  F156  1  0.600500  0.514700  0.189000  1
  F  F157  1  0.628700  0.154100  0.899900  1
  F  F158  1  0.845900  0.371300  0.600100  1
  F  F159  1  0.371300  0.845900  0.100100  1
  F  F160  1  0.154100  0.628700  0.399900  1
  F  F161  1  0.732100  0.171900  0.792800  1
  F  F162  1  0.828100  0.267900  0.707200  1
  F  F163  1  0.267900  0.828100  0.207200  1
  F  F164  1  0.171900  0.732100  0.292800  1
  F  F165  1  0.640800  0.115400  0.784000  1
  F  F166  1  0.884600  0.359200  0.716000  1
  F  F167  1  0.359200  0.884600  0.216000  1
  F  F168  1  0.115400  0.640800  0.284000  1
  F  F169  1  0.391800  0.704000  0.761000  1
  F  F170  1  0.296000  0.608200  0.739000  1
  F  F171  1  0.608200  0.296000  0.239000  1
  F  F172  1  0.704000  0.391800  0.261000  1
  F  F173  1  0.494500  0.669900  0.670300  1
  F  F174  1  0.330100  0.505500  0.829700  1
  F  F175  1  0.505500  0.330100  0.329700  1
  F  F176  1  0.669900  0.494500  0.170300  1
  F  F177  1  0.509400  0.585400  0.780000  1
  F  F178  1  0.414600  0.490600  0.720000  1
  F  F179  1  0.490600  0.414600  0.220000  1
  F  F180  1  0.585400  0.509400  0.280000  1
  H  H181  1  0.538700  0.150500  0.605100  1
  H  H182  1  0.849500  0.461300  0.894900  1
  H  H183  1  0.461300  0.849500  0.394900  1
  H  H184  1  0.150500  0.538700  0.105100  1
  H  H185  1  0.522700  0.104900  0.697900  1
  H  H186  1  0.895100  0.477300  0.802100  1
  H  H187  1  0.477300  0.895100  0.302100  1
  H  H188  1  0.104900  0.522700  0.197900  1
  H  H189  1  0.361100  0.265700  0.707100  1
  H  H190  1  0.734300  0.638900  0.792900  1
  H  H191  1  0.638900  0.734300  0.292900  1
  H  H192  1  0.265700  0.361100  0.207100  1
  H  H193  1  0.388400  0.293800  0.612200  1
  H  H194  1  0.706200  0.611600  0.887800  1
  H  H195  1  0.611600  0.706200  0.387800  1
  H  H196  1  0.293800  0.388400  0.112200  1
  H  H197  1  0.235300  0.368700  0.655800  1
  H  H198  1  0.631300  0.764700  0.844200  1
  H  H199  1  0.764700  0.631300  0.344200  1
  H  H200  1  0.368700  0.235300  0.155800  1
  H  H201  1  0.218200  0.274400  0.692800  1
  H  H202  1  0.725600  0.781800  0.807200  1
  H  H203  1  0.781800  0.725600  0.307200  1
  H  H204  1  0.274400  0.218200  0.192800  1
  H  H205  1  0.245400  0.303800  0.598100  1
  H  H206  1  0.696200  0.754600  0.901900  1
  H  H207  1  0.754600  0.696200  0.401900  1
  H  H208  1  0.303800  0.245400  0.098100  1
  H  H209  1  0.404100  0.080500  0.540700  1
  H  H210  1  0.919500  0.595900  0.959300  1
  H  H211  1  0.595900  0.919500  0.459300  1
  H  H212  1  0.080500  0.404100  0.040700  1
  H  H213  1  0.315100  0.165300  0.548800  1
  H  H214  1  0.834700  0.684900  0.951200  1
  H  H215  1  0.684900  0.834700  0.451200  1
  H  H216  1  0.165300  0.315100  0.048800  1
  H  H217  1  0.415700  0.197300  0.431400  1
  H  H218  1  0.802700  0.584300  0.068600  1
  H  H219  1  0.584300  0.802700  0.568600  1
  H  H220  1  0.197300  0.415700  0.931400  1
  H  H221  1  0.490500  0.177700  0.482300  1
  H  H222  1  0.822300  0.509500  0.017700  1
  H  H223  1  0.509500  0.822300  0.517700  1
  H  H224  1  0.177700  0.490500  0.982300  1
  H  H225  1  0.401400  0.262400  0.490300  1
  H  H226  1  0.737600  0.598600  0.009700  1
  H  H227  1  0.598600  0.737600  0.509700  1
  H  H228  1  0.262400  0.401400  0.990300  1
  H  H229  1  0.232200  0.795800  0.404000  1.0
  H  H230  1  0.204200  0.767800  0.096000  1.0
  H  H231  1  0.767800  0.204200  0.596000  1.0
  H  H232  1  0.795800  0.232200  0.904000  1.0
  H  H233  1  0.301400  0.849800  0.357500  1.0
  H  H234  1  0.150200  0.698600  0.142500  1.0
  H  H235  1  0.698600  0.150200  0.642500  1.0
  H  H236  1  0.849800  0.301400  0.857500  1.0
  H  H237  1  0.194100  0.973500  0.346800  1.0
  H  H238  1  0.026500  0.805900  0.153200  1.0
  H  H239  1  0.805900  0.026500  0.653200  1.0
  H  H240  1  0.973500  0.194100  0.846800  1.0
  H  H241  1  0.124900  0.918100  0.384400  1.0
  H  H242  1  0.081900  0.875100  0.115600  1.0
  H  H243  1  0.875100  0.081900  0.615600  1.0
  H  H244  1  0.918100  0.124900  0.884400  1.0
  H  H245  1  0.348000  0.838600  0.580900  1.0
  H  H246  1  0.161400  0.652000  0.919100  1.0
  H  H247  1  0.652000  0.161400  0.419100  1.0
  H  H248  1  0.838600  0.348000  0.080900  1.0
  H  H249  1  0.392300  0.903500  0.658500  1.0
  H  H250  1  0.096500  0.607700  0.841500  1.0
  H  H251  1  0.607700  0.096500  0.341500  1.0
  H  H252  1  0.903500  0.392300  0.158500  1.0
  H  H253  1  0.172900  0.112900  0.648200  1.0
  H  H254  1  0.887100  0.827100  0.851800  1.0
  H  H255  1  0.827100  0.887100  0.351800  1.0
  H  H256  1  0.112900  0.172900  0.148200  1.0
  H  H257  1  0.124000  0.054200  0.571100  1.0
  H  H258  1  0.945800  0.876000  0.928900  1.0
  H  H259  1  0.876000  0.945800  0.428900  1.0
  H  H260  1  0.054200  0.124000  0.071100  1.0
  H  H261  1  0.234800  0.724200  0.593000  1.0
  H  H262  1  0.275800  0.765200  0.907000  1.0
  H  H263  1  0.765200  0.275800  0.407000  1.0
  H  H264  1  0.724200  0.234800  0.093000  1.0
  H  H265  1  0.353700  0.861700  0.826500  1.0
  H  H266  1  0.138300  0.646300  0.673500  1.0
  H  H267  1  0.646300  0.138300  0.173500  1.0
  H  H268  1  0.861700  0.353700  0.326500  1.0
  H  H269  1  0.131000  0.068200  0.836000  1.0
  H  H270  1  0.931800  0.869000  0.664000  1.0
  H  H271  1  0.869000  0.931800  0.164000  1.0
  H  H272  1  0.068200  0.131000  0.336000  1.0
  H  H273  1  0.021500  0.949700  0.579600  1.0
  H  H274  1  0.050300  0.978500  0.920400  1.0
  H  H275  1  0.978500  0.050300  0.420400  1.0
  H  H276  1  0.949700  0.021500  0.079600  1.0
  H  H277  1  0.453100  0.028700  0.564500  1.0
  H  H278  1  0.971300  0.546900  0.935500  1.0
  H  H279  1  0.546900  0.971300  0.435500  1.0
  H  H280  1  0.028700  0.453100  0.064500  1.0
  H  H281  1  0.500600  0.104600  0.526900  1.0
  H  H282  1  0.895400  0.499400  0.973100  1.0
  H  H283  1  0.499400  0.895400  0.473100  1.0
  H  H284  1  0.104600  0.500600  0.026900  1.0
  H  H285  1  0.604800  0.969000  0.587100  1.0
  H  H286  1  0.031000  0.395200  0.912900  1.0
  H  H287  1  0.395200  0.031000  0.412900  1.0
  H  H288  1  0.969000  0.604800  0.087100  1.0
  H  H289  1  0.537300  0.973500  0.671500  1.0
  H  H290  1  0.026500  0.462700  0.828500  1.0
  H  H291  1  0.462700  0.026500  0.328500  1.0
  H  H292  1  0.973500  0.537300  0.171500  1.0
  H  H293  1  0.585500  0.048300  0.632800  1.0
  H  H294  1  0.951700  0.414500  0.867200  1.0
  H  H295  1  0.414500  0.951700  0.367200  1.0
  H  H296  1  0.048300  0.585500  0.132800  1.0
  H  H297  1  0.404600  0.255600  0.689100  1.0
  H  H298  1  0.744400  0.595400  0.810900  1.0
  H  H299  1  0.595400  0.744400  0.310900  1.0
  H  H300  1  0.255600  0.404600  0.189100  1.0
  H  H301  1  0.496500  0.174100  0.686800  1.0
  H  H302  1  0.825900  0.503500  0.813200  1.0
  H  H303  1  0.503500  0.825900  0.313200  1.0
  H  H304  1  0.174100  0.496500  0.186800  1.0
  H  H305  1  0.519100  0.300500  0.591800  1.0
  H  H306  1  0.699500  0.480900  0.908200  1.0
  H  H307  1  0.480900  0.699500  0.408200  1.0
  H  H308  1  0.300500  0.519100  0.091800  1.0
  H  H309  1  0.443400  0.304400  0.548300  1.0
  H  H310  1  0.695600  0.556600  0.951700  1.0
  H  H311  1  0.556600  0.695600  0.451700  1.0
  H  H312  1  0.304400  0.443400  0.048300  1.0
  H  H313  1  0.535400  0.222400  0.545700  1.0
  H  H314  1  0.777600  0.464600  0.954300  1.0
  H  H315  1  0.464600  0.777600  0.454300  1.0
  H  H316  1  0.222400  0.535400  0.045700  1.0
  H  H317  1  0.348300  0.247700  0.532000  1.0
  H  H318  1  0.752300  0.651700  0.968000  1.0
  H  H319  1  0.651700  0.752300  0.468000  1.0
  H  H320  1  0.247700  0.348300  0.032000  1.0
  H  H321  1  0.291900  0.179300  0.559400  1.0
  H  H322  1  0.820700  0.708100  0.940600  1.0
  H  H323  1  0.708100  0.820700  0.440600  1.0
  H  H324  1  0.179300  0.291900  0.059400  1.0
  H  H325  1  0.197600  0.320800  0.586100  1.0
  H  H326  1  0.679200  0.802400  0.913900  1.0
  H  H327  1  0.802400  0.679200  0.413900  1.0
  H  H328  1  0.320800  0.197600  0.086100  1.0
  H  H329  1  0.262600  0.320200  0.639600  1.0
  H  H330  1  0.679800  0.737400  0.860400  1.0
  H  H331  1  0.737400  0.679800  0.360400  1.0
  H  H332  1  0.320200  0.262600  0.139600  1.0
  H  H333  1  0.207400  0.251000  0.668800  1.0
  H  H334  1  0.749000  0.792600  0.831200  1.0
  H  H335  1  0.792600  0.749000  0.331200  1.0
  H  H336  1  0.251000  0.207400  0.168800  1.0
  H  H337  1  0.205600  0.090800  0.937300  1.0
  H  H338  1  0.909200  0.794400  0.562700  1.0
  H  H339  1  0.794400  0.909200  0.062700  1.0
  H  H340  1  0.090800  0.205600  0.437300  1.0
  H  H341  1  0.249900  0.147300  0.965100  1.0
  H  H342  1  0.852700  0.750100  0.534900  1.0
  H  H343  1  0.750100  0.852700  0.034900  1.0
  H  H344  1  0.147300  0.249900  0.465100  1.0
  H  H345  1  0.121100  0.244500  0.913300  1.0
  H  H346  1  0.755500  0.878900  0.586700  1.0
  H  H347  1  0.878900  0.755500  0.086700  1.0
  H  H348  1  0.244500  0.121100  0.413300  1.0
  H  H349  1  0.163500  0.211300  0.829700  1.0
  H  H350  1  0.788700  0.836500  0.670300  1.0
  H  H351  1  0.836500  0.788700  0.170300  1.0
  H  H352  1  0.211300  0.163500  0.329700  1.0
  H  H353  1  0.207600  0.267800  0.857700  1.0
  H  H354  1  0.732200  0.792400  0.642300  1.0
  H  H355  1  0.792400  0.732200  0.142300  1.0
  H  H356  1  0.267800  0.207600  0.357700  1.0
  H  H357  1  0.473400  0.127800  0.817200  1.0
  H  H358  1  0.872200  0.526600  0.682800  1.0
  H  H359  1  0.526600  0.872200  0.182800  1.0
  H  H360  1  0.127800  0.473400  0.317200  1.0
  H  H361  1  0.386700  0.215100  0.813300  1.0
  H  H362  1  0.784900  0.613300  0.686700  1.0
  H  H363  1  0.613300  0.784900  0.186700  1.0
  H  H364  1  0.215100  0.386700  0.313300  1.0
  H  H365  1  0.457600  0.207600  0.915700  1.0
  H  H366  1  0.792400  0.542400  0.584300  1.0
  H  H367  1  0.542400  0.792400  0.084300  1.0
  H  H368  1  0.207600  0.457600  0.415700  1.0
  H  H369  1  0.446800  0.111600  0.958400  1.0
  H  H370  1  0.888400  0.553200  0.541600  1.0
  H  H371  1  0.553200  0.888400  0.041600  1.0
  H  H372  1  0.111600  0.446800  0.458400  1.0
  H  H373  1  0.360000  0.199200  0.954500  1.0
  H  H374  1  0.800800  0.640000  0.545500  1.0
  H  H375  1  0.640000  0.800800  0.045500  1.0
  H  H376  1  0.199200  0.360000  0.454500  1.0
  H  H377  1  0.401100  0.994900  0.968000  1.0
  H  H378  1  0.005100  0.598900  0.532000  1.0
  H  H379  1  0.598900  0.005100  0.032000  1.0
  H  H380  1  0.994900  0.401100  0.468000  1.0
  H  H381  1  0.354500  0.945300  0.934700  1.0
  H  H382  1  0.054700  0.645500  0.565300  1.0
  H  H383  1  0.645500  0.054700  0.065300  1.0
  H  H384  1  0.945300  0.354500  0.434700  1.0
  H  H385  1  0.508900  0.871100  0.918300  1.0
  H  H386  1  0.128900  0.491100  0.581700  1.0
  H  H387  1  0.491100  0.128900  0.081700  1.0
  H  H388  1  0.871100  0.508900  0.418300  1.0
  H  H389  1  0.528000  0.960800  0.865900  1.0
  H  H390  1  0.039200  0.472000  0.634100  1.0
  H  H391  1  0.472000  0.039200  0.134100  1.0
  H  H392  1  0.960800  0.528000  0.365900  1.0
  H  H393  1  0.481200  0.911200  0.832400  1.0
  H  H394  1  0.088800  0.518800  0.667600  1.0
  H  H395  1  0.518800  0.088800  0.167600  1.0
  H  H396  1  0.911200  0.481200  0.332400  1.0
  N  N397  1  0.287200  0.013800  0.659700  1.0
  N  N398  1  0.986200  0.712800  0.840300  1.0
  N  N399  1  0.712800  0.986200  0.340300  1.0
  N  N400  1  0.013800  0.287200  0.159700  1.0
  N  N401  1  0.249400  0.973400  0.825100  1.0
  N  N402  1  0.026600  0.750600  0.674900  1.0
  N  N403  1  0.750600  0.026600  0.174900  1.0
  N  N404  1  0.973400  0.249400  0.325100  1.0
  O  O405  1  0.687700  0.940100  0.902400  1
  O  O406  1  0.059900  0.312300  0.597600  1
  O  O407  1  0.312300  0.059900  0.097600  1
  O  O408  1  0.940100  0.687700  0.402400  1
  O  O409  1  0.646500  0.045300  0.781700  1
  O  O410  1  0.954700  0.353500  0.718300  1
  O  O411  1  0.353500  0.954700  0.218300  1
  O  O412  1  0.045300  0.646500  0.281700  1
  O  O413  1  0.794100  0.941700  0.776500  1
  O  O414  1  0.058300  0.205900  0.723500  1
  O  O415  1  0.205900  0.058300  0.223500  1
  O  O416  1  0.941700  0.794100  0.276500  1
  O  O417  1  0.632000  0.689600  0.694900  1
  O  O418  1  0.310400  0.368000  0.805100  1
  O  O419  1  0.368000  0.310400  0.305100  1
  O  O420  1  0.689600  0.632000  0.194900  1
  O  O421  1  0.528500  0.788100  0.599400  1
  O  O422  1  0.211900  0.471500  0.900600  1
  O  O423  1  0.471500  0.211900  0.400600  1
  O  O424  1  0.788100  0.528500  0.099400  1
  O  O425  1  0.497200  0.810200  0.734600  1
  O  O426  1  0.189800  0.502800  0.765400  1
  O  O427  1  0.502800  0.189800  0.265400  1
  O  O428  1  0.810200  0.497200  0.234600  1
  O  O429  1  0.813500  0.984100  0.793900  1
  O  O430  1  0.015900  0.186500  0.706100  1
  O  O431  1  0.186500  0.015900  0.206100  1
  O  O432  1  0.984100  0.813500  0.293900  1
  O  O433  1  0.819500  0.019300  0.891900  1
  O  O434  1  0.980700  0.180500  0.608100  1
  O  O435  1  0.180500  0.980700  0.108100  1
  O  O436  1  0.019300  0.819500  0.391900  1
  O  O437  1  0.706600  0.960600  0.901000  1
  O  O438  1  0.039400  0.293400  0.599000  1
  O  O439  1  0.293400  0.039400  0.099000  1
  O  O440  1  0.960600  0.706600  0.401000  1
  O  O441  1  0.627400  0.699800  0.736900  1
  O  O442  1  0.300200  0.372600  0.763100  1
  O  O443  1  0.372600  0.300200  0.263100  1
  O  O444  1  0.699800  0.627400  0.236900  1
  O  O445  1  0.516600  0.715000  0.856300  1
  O  O446  1  0.285000  0.483400  0.643700  1
  O  O447  1  0.483400  0.285000  0.143700  1
  O  O448  1  0.715000  0.516600  0.356300  1
  O  O449  1  0.274900  0.840100  0.477000  1.0
  O  O450  1  0.159900  0.725100  0.023000  1.0
  O  O451  1  0.725100  0.159900  0.523000  1.0
  O  O452  1  0.840100  0.274900  0.977000  1.0
  O  O453  1  0.151200  0.965400  0.463300  1.0
  O  O454  1  0.034600  0.848800  0.036700  1.0
  O  O455  1  0.848800  0.034600  0.536700  1.0
  O  O456  1  0.965400  0.151200  0.963300  1.0
  P  P457  1  0.344400  0.086800  0.855400  1.0
  P  P458  1  0.913200  0.655600  0.644600  1.0
  P  P459  1  0.655600  0.913200  0.144600  1.0
  P  P460  1  0.086800  0.344400  0.355400  1.0
  P  P461  1  0.393200  0.141800  0.646500  1.0
  P  P462  1  0.858200  0.606800  0.853500  1.0
  P  P463  1  0.606800  0.858200  0.353500  1.0
  P  P464  1  0.141800  0.393200  0.146500  1.0
  Pt  Pt465  1  0.320900  0.056900  0.745600  1.0
  Pt  Pt466  1  0.943100  0.679100  0.754400  1.0
  Pt  Pt467  1  0.679100  0.943100  0.254400  1.0
  Pt  Pt468  1  0.056900  0.320900  0.245600  1.0
  S  S469  1  0.715100  0.991900  0.826300  1
  S  S470  1  0.008100  0.284900  0.673700  1
  S  S471  1  0.284900  0.008100  0.173700  1
  S  S472  1  0.991900  0.715100  0.326300  1
  S  S473  1  0.545600  0.744000  0.680400  1
  S  S474  1  0.256000  0.454400  0.819600  1
  S  S475  1  0.454400  0.256000  0.319600  1
  S  S476  1  0.744000  0.545600  0.180400  1
  S  S477  1  0.762500  0.017100  0.865800  1
  S  S478  1  0.982900  0.237500  0.634200  1
  S  S479  1  0.237500  0.982900  0.134200  1
  S  S480  1  0.017100  0.762500  0.365800  1
  S  S481  1  0.537800  0.728800  0.768700  1
  S  S482  1  0.271200  0.462200  0.731300  1
  S  S483  1  0.462200  0.271200  0.231300  1
  S  S484  1  0.728800  0.537800  0.268700  1
