# generated using pymatgen
data_AgH16C18S2N2ClO4
_symmetry_space_group_name_H-M   'P 1'
_cell_length_a   8.15870000
_cell_length_b   8.44470000
_cell_length_c   14.74500000
_cell_angle_alpha   87.30700000
_cell_angle_beta   82.63800000
_cell_angle_gamma   72.71600000
_symmetry_Int_Tables_number   1
_chemical_formula_structural   AgH16C18S2N2ClO4
_chemical_formula_sum   'Ag2 H32 C36 S4 N4 Cl2 O8'
_cell_volume   961.98446319
_cell_formula_units_Z   2
loop_
 _symmetry_equiv_pos_site_id
 _symmetry_equiv_pos_as_xyz
  1  'x, y, z'
loop_
 _atom_site_type_symbol
 _atom_site_label
 _atom_site_symmetry_multiplicity
 _atom_site_fract_x
 _atom_site_fract_y
 _atom_site_fract_z
 _atom_site_occupancy
  Ag  Ag1  1  0.358150  0.916590  0.458740  1.0
  Ag  Ag2  1  0.641850  0.083410  0.541260  1.0
  H  H3  1  0.165300  0.728200  0.587200  1.0
  H  H4  1  0.834700  0.271800  0.412800  1.0
  H  H5  1  0.964300  0.757100  0.712300  1.0
  H  H6  1  0.035700  0.242900  0.287700  1.0
  H  H7  1  0.876700  0.250500  0.691200  1.0
  H  H8  1  0.123300  0.749500  0.308800  1.0
  H  H9  1  0.083000  0.204000  0.567000  1.0
  H  H10  1  0.917000  0.796000  0.433000  1.0
  H  H11  1  0.620100  0.605200  0.387600  1.0
  H  H12  1  0.379900  0.394800  0.612400  1.0
  H  H13  1  0.829600  0.497900  0.267400  1.0
  H  H14  1  0.170400  0.502100  0.732600  1.0
  H  H15  1  0.731300  0.955800  0.157000  1.0
  H  H16  1  0.268700  0.044200  0.843000  1.0
  H  H17  1  0.533000  0.050300  0.283100  1.0
  H  H18  1  0.467000  0.949700  0.716900  1.0
  H  H19  1  0.758300  0.294100  0.823300  1.0
  H  H20  1  0.241700  0.705900  0.176700  1.0
  H  H21  1  0.568500  0.282200  0.831300  1.0
  H  H22  1  0.431500  0.717800  0.168700  1.0
  H  H23  1  0.403700  0.297800  0.974000  1.0
  H  H24  1  0.596300  0.702200  0.026000  1.0
  H  H25  1  0.365700  0.343700  0.130600  1.0
  H  H26  1  0.634300  0.656300  0.869400  1.0
  H  H27  1  0.602600  0.332700  0.204900  1.0
  H  H28  1  0.397400  0.667300  0.795100  1.0
  H  H29  1  0.873800  0.272300  0.124800  1.0
  H  H30  1  0.126200  0.727700  0.875200  1.0
  H  H31  1  0.998300  0.890900  0.090900  1.0
  H  H32  1  0.001700  0.109100  0.909100  1.0
  H  H33  1  0.930600  0.842800  0.004200  1.0
  H  H34  1  0.069400  0.157200  0.995800  1.0
  C  C35  1  0.109700  0.834000  0.609870  1.0
  C  C36  1  0.890300  0.166000  0.390130  1.0
  C  C37  1  0.988600  0.850600  0.685320  1.0
  C  C38  1  0.011400  0.149400  0.314680  1.0
  C  C39  1  0.901500  0.007360  0.721950  1.0
  C  C40  1  0.098500  0.992640  0.278050  1.0
  C  C41  1  0.936400  0.142600  0.673240  1.0
  C  C42  1  0.063600  0.857400  0.326760  1.0
  C  C43  1  0.060700  0.113000  0.598310  1.0
  C  C44  1  0.939300  0.887000  0.401690  1.0
  C  C45  1  0.644500  0.676600  0.341450  1.0
  C  C46  1  0.355500  0.323400  0.658550  1.0
  C  C47  1  0.770800  0.610700  0.268720  1.0
  C  C48  1  0.229200  0.389300  0.731280  1.0
  C  C49  1  0.808000  0.714940  0.198270  1.0
  C  C50  1  0.192000  0.285060  0.801730  1.0
  C  C51  1  0.713600  0.882300  0.203530  1.0
  C  C52  1  0.286400  0.117700  0.796470  1.0
  C  C53  1  0.592600  0.937800  0.279390  1.0
  C  C54  1  0.407400  0.062200  0.720610  1.0
  C  C55  1  0.680400  0.235200  0.853010  1.0
  C  C56  1  0.319600  0.764800  0.146990  1.0
  C  C57  1  0.662700  0.256100  0.954170  1.0
  C  C58  1  0.337300  0.743900  0.045830  1.0
  C  C59  1  0.499000  0.292200  0.003930  1.0
  C  C60  1  0.501000  0.707800  0.996070  1.0
  C  C61  1  0.475500  0.320300  0.098120  1.0
  C  C62  1  0.524500  0.679700  0.901880  1.0
  C  C63  1  0.617300  0.313000  0.142410  1.0
  C  C64  1  0.382700  0.687000  0.857590  1.0
  C  C65  1  0.779500  0.276600  0.094390  1.0
  C  C66  1  0.220500  0.723400  0.905610  1.0
  C  C67  1  0.805000  0.246070  0.000710  1.0
  C  C68  1  0.195000  0.753930  0.999290  1.0
  C  C69  1  0.012440  0.802340  0.048360  1.0
  C  C70  1  0.987560  0.197660  0.951640  1.0
  S  S71  1  0.764030  0.015540  0.823500  1.0
  S  S72  1  0.235970  0.984460  0.176500  1.0
  S  S73  1  0.968470  0.624180  0.110250  1.0
  S  S74  1  0.031530  0.375820  0.889750  1.0
  N  N75  1  0.151300  0.961400  0.567690  1.0
  N  N76  1  0.848700  0.038600  0.432310  1.0
  N  N77  1  0.557500  0.837000  0.347520  1.0
  N  N78  1  0.442500  0.163000  0.652480  1.0
  Cl  Cl79  1  0.688580  0.598190  0.604690  1
  Cl  Cl80  1  0.311420  0.401810  0.395310  1
  O  O81  1  0.747580  0.563930  0.691630  1
  O  O82  1  0.252420  0.436070  0.308370  1
  O  O83  1  0.705520  0.458180  0.554210  1
  O  O84  1  0.294480  0.541820  0.445790  1
  O  O85  1  0.713080  0.738950  0.562870  1
  O  O86  1  0.286920  0.261050  0.437130  1
  O  O87  1  0.495270  0.665730  0.622300  1
  O  O88  1  0.504730  0.334270  0.377700  1
