# generated using pymatgen
data_AgH16C18S2N2ClO8
_symmetry_space_group_name_H-M   'P 1'
_cell_length_a   8.15870000
_cell_length_b   8.44470000
_cell_length_c   14.74500000
_cell_angle_alpha   87.30700000
_cell_angle_beta   82.63800000
_cell_angle_gamma   72.71600000
_symmetry_Int_Tables_number   1
_chemical_formula_structural   AgH16C18S2N2ClO8
_chemical_formula_sum   'Ag2 H32 C36 S4 N4 Cl2 O16'
_cell_volume   961.98446319
_cell_formula_units_Z   2
loop_
 _symmetry_equiv_pos_site_id
 _symmetry_equiv_pos_as_xyz
  1  'x, y, z'
loop_
 _atom_site_type_symbol
 _atom_site_label
 _atom_site_symmetry_multiplicity
 _atom_site_fract_x
 _atom_site_fract_y
 _atom_site_fract_z
 _atom_site_occupancy
  Ag  Ag1  1  0.415528  0.602707  0.629728  1
  Ag  Ag2  1  0.699231  0.769226  0.712307  1
  H  H3  1  0.689900  0.298700  0.564100  1
  H  H4  1  0.881900  0.180000  0.435900  1
  H  H5  1  0.793100  0.638700  0.329400  1
  H  H6  1  0.596200  0.733800  0.449500  1
  H  H7  1  0.987200  0.527300  0.175600  1
  H  H8  1  0.055400  0.575300  0.262100  1
  H  H9  1  0.183100  0.422000  0.046200  1
  H  H10  1  0.461800  0.340600  0.965500  1
  H  H11  1  0.692000  0.341800  0.044000  1
  H  H12  1  0.648500  0.389600  0.198500  1
  H  H13  1  0.490200  0.406700  0.338700  1
  H  H14  1  0.301700  0.392300  0.346200  1
  H  H15  1  0.179900  0.434200  0.477200  1
  H  H16  1  0.979600  0.477000  0.602700  1
  H  H17  1  0.889100  0.960900  0.578800  1
  H  H18  1  0.098100  0.924400  0.463700  1
  H  H19  1  0.444700  0.090600  0.791300  1
  H  H20  1  0.226900  0.182500  0.900000  1
  H  H21  1  0.329500  0.726400  0.014200  1
  H  H22  1  0.526500  0.636100  0.885100  1
  H  H23  1  0.059200  0.793300  0.081000  1
  H  H24  1  0.124600  0.843100  0.168100  1
  H  H25  1  0.931800  0.961800  0.295800  1
  H  H26  1  0.662900  0.008300  0.374400  1
  H  H27  1  0.427300  0.028200  0.305500  1
  H  H28  1  0.455500  0.981800  0.147700  1
  H  H29  1  0.822100  0.978100  0.993600  1
  H  H30  1  0.630600  0.971100  0.000100  1
  H  H31  1  0.935800  0.935700  0.860300  1
  H  H32  1  0.145000  0.884700  0.736600  1
  H  H33  1  0.220900  0.415400  0.756600  1
  H  H34  1  0.044000  0.418000  0.887200  1
  C  C35  1  0.705200  0.366400  0.514110  1
  C  C36  1  0.827900  0.293600  0.439020  1
  C  C37  1  0.862100  0.400500  0.371400  1
  C  C38  1  0.772000  0.566100  0.375700  1
  C  C39  1  0.654800  0.621100  0.446650  1
  C  C40  1  0.069500  0.486800  0.219510  1
  C  C41  1  0.246600  0.440800  0.171360  1
  C  C42  1  0.277600  0.411500  0.077700  1
  C  C43  1  0.444800  0.366700  0.027250  1
  C  C44  1  0.580900  0.364000  0.074850  1
  C  C45  1  0.553400  0.394100  0.168650  1
  C  C46  1  0.398100  0.429000  0.217970  1
  C  C47  1  0.378600  0.452500  0.316570  1
  C  C48  1  0.159000  0.679100  0.447940  1
  C  C49  1  0.121700  0.541800  0.496300  1
  C  C50  1  0.999100  0.569200  0.571390  1
  C  C51  1  0.947100  0.853700  0.558880  1
  C  C52  1  0.069700  0.831200  0.488260  1
  C  C53  1  0.413800  0.015500  0.833070  1
  C  C54  1  0.289700  0.070800  0.900600  1
  C  C55  1  0.246000  0.970000  0.974510  1
  C  C56  1  0.344300  0.801500  0.967930  1
  C  C57  1  0.466600  0.748500  0.889160  1
  C  C58  1  0.043900  0.882700  0.123260  1
  C  C59  1  0.856900  0.933000  0.171910  1
  C  C60  1  0.837700  0.962900  0.265950  1
  C  C61  1  0.676500  0.993400  0.311530  1
  C  C62  1  0.535400  0.003500  0.271100  1
  C  C63  1  0.551400  0.976600  0.176990  1
  C  C64  1  0.721800  0.940600  0.127080  1
  C  C65  1  0.741300  0.921600  0.022590  1
  C  C66  1  0.961800  0.695600  0.891220  1
  C  C67  1  0.995400  0.827300  0.843110  1
  C  C68  1  0.120700  0.794800  0.768150  1
  C  C69  1  0.166100  0.520400  0.780690  1
  C  C70  1  0.045500  0.531400  0.859510  1
  S  S71  1  0.025840  0.309850  0.281140  1
  S  S72  1  0.292840  0.669020  0.347640  1
  S  S73  1  0.088980  0.061750  0.060520  1
  S  S74  1  0.820800  0.700050  0.994500  1
  N  N75  1  0.615000  0.517900  0.517420  1
  N  N76  1  0.903800  0.722400  0.603430  1
  N  N77  1  0.501100  0.843800  0.822800  1
  N  N78  1  0.207200  0.645700  0.738620  1
  Cl  Cl79  1  0.744290  0.283980  0.775340  1
  Cl  Cl80  1  0.366560  0.087740  0.566050  1
  O  O81  1  0.560200  0.332000  0.808900  1
  O  O82  1  0.793400  0.404800  0.722300  1
  O  O83  1  0.812200  0.261800  0.864900  1
  O  O84  1  0.748200  0.145000  0.722700  1
  O  O85  1  0.269600  0.123200  0.490400  1
  O  O86  1  0.401400  0.221300  0.608600  1
  O  O87  1  0.560000  0.006000  0.550300  1
  O  O88  1  0.306000  0.955900  0.605000  1
  O  O89  1  0.557600  0.346600  0.773700  1
  O  O90  1  0.746600  0.446700  0.747600  1
  O  O91  1  0.742800  0.235200  0.863900  1
  O  O92  1  0.841500  0.179500  0.711600  1
  O  O93  1  0.330600  0.127600  0.476000  1
  O  O94  1  0.321000  0.234100  0.619700  1
  O  O95  1  0.434100  0.931300  0.594200  1
  O  O96  1  0.175000  0.122400  0.615800  1
