# generated using pymatgen
data_B7H138Pd3C171I3N18(O9F16)2
_symmetry_space_group_name_H-M   'P 1'
_cell_length_a   20.32930000
_cell_length_b   24.72550000
_cell_length_c   24.72550000
_cell_angle_alpha   120.00000000
_cell_angle_beta   90.00000000
_cell_angle_gamma   90.00000000
_symmetry_Int_Tables_number   1
_chemical_formula_structural   B7H138Pd3C171I3N18(O9F16)2
_chemical_formula_sum   'B14 H276 Pd6 C342 I6 N36 O36 F64'
_cell_volume   10763.24489532
_cell_formula_units_Z   2
loop_
 _symmetry_equiv_pos_site_id
 _symmetry_equiv_pos_as_xyz
  1  'x, y, z'
loop_
 _atom_site_type_symbol
 _atom_site_label
 _atom_site_symmetry_multiplicity
 _atom_site_fract_x
 _atom_site_fract_y
 _atom_site_fract_z
 _atom_site_occupancy
  B  B1  1  0.250000  0.117100  0.430700  1
  B  B2  1  0.750000  0.430700  0.313600  1
  B  B3  1  0.250000  0.313600  0.882900  1
  B  B4  1  0.750000  0.882900  0.569300  1
  B  B5  1  0.250000  0.569300  0.686400  1
  B  B6  1  0.750000  0.686400  0.117100  1
  B  B7  1  0.250000  0.817200  0.052800  1
  B  B8  1  0.750000  0.052800  0.235600  1
  B  B9  1  0.250000  0.235600  0.182800  1
  B  B10  1  0.750000  0.182800  0.947200  1
  B  B11  1  0.250000  0.947200  0.764400  1
  B  B12  1  0.750000  0.764400  0.817200  1
  B  B13  1  0.500000  0.000000  0.000000  1
  B  B14  1  0.000000  0.000000  0.000000  1
  H  H15  1  0.250000  0.128500  0.286700  1.0
  H  H16  1  0.750000  0.286700  0.158200  1.0
  H  H17  1  0.250000  0.158200  0.871500  1.0
  H  H18  1  0.750000  0.871500  0.713300  1.0
  H  H19  1  0.250000  0.713300  0.841800  1.0
  H  H20  1  0.750000  0.841800  0.128500  1.0
  H  H21  1  0.250000  0.163300  0.246500  1.0
  H  H22  1  0.750000  0.246500  0.083200  1.0
  H  H23  1  0.250000  0.083200  0.836700  1.0
  H  H24  1  0.750000  0.836700  0.753500  1.0
  H  H25  1  0.250000  0.753500  0.916800  1.0
  H  H26  1  0.750000  0.916800  0.163300  1.0
  H  H27  1  0.138600  0.144200  0.186100  1.0
  H  H28  1  0.638600  0.186100  0.041900  1.0
  H  H29  1  0.138600  0.041900  0.855800  1.0
  H  H30  1  0.638600  0.855800  0.813900  1.0
  H  H31  1  0.138600  0.813900  0.958100  1.0
  H  H32  1  0.638600  0.958100  0.144200  1.0
  H  H33  1  0.861400  0.855800  0.813900  1.0
  H  H34  1  0.361400  0.813900  0.958100  1.0
  H  H35  1  0.861400  0.958100  0.144200  1.0
  H  H36  1  0.361400  0.144200  0.186100  1.0
  H  H37  1  0.861400  0.186100  0.041900  1.0
  H  H38  1  0.361400  0.041900  0.855800  1.0
  H  H39  1  0.070400  0.050300  0.124500  1.0
  H  H40  1  0.570400  0.124500  0.074200  1.0
  H  H41  1  0.070400  0.074200  0.949700  1.0
  H  H42  1  0.570400  0.949700  0.875500  1.0
  H  H43  1  0.070400  0.875500  0.925800  1.0
  H  H44  1  0.570400  0.925800  0.050300  1.0
  H  H45  1  0.929600  0.949700  0.875500  1.0
  H  H46  1  0.429600  0.875500  0.925800  1.0
  H  H47  1  0.929600  0.925800  0.050300  1.0
  H  H48  1  0.429600  0.050300  0.124500  1.0
  H  H49  1  0.929600  0.124500  0.074200  1.0
  H  H50  1  0.429600  0.074200  0.949700  1.0
  H  H51  1  0.150000  0.913800  0.119800  1.0
  H  H52  1  0.650000  0.119800  0.206000  1.0
  H  H53  1  0.150000  0.206000  0.086200  1.0
  H  H54  1  0.650000  0.086200  0.880200  1.0
  H  H55  1  0.150000  0.880200  0.794000  1.0
  H  H56  1  0.650000  0.794000  0.913800  1.0
  H  H57  1  0.850000  0.086200  0.880200  1.0
  H  H58  1  0.350000  0.880200  0.794000  1.0
  H  H59  1  0.850000  0.794000  0.913800  1.0
  H  H60  1  0.350000  0.913800  0.119800  1.0
  H  H61  1  0.850000  0.119800  0.206000  1.0
  H  H62  1  0.350000  0.206000  0.086200  1.0
  H  H63  1  0.102200  0.930600  0.079000  1.0
  H  H64  1  0.602200  0.079000  0.148400  1.0
  H  H65  1  0.102200  0.148400  0.069400  1.0
  H  H66  1  0.602200  0.069400  0.921000  1.0
  H  H67  1  0.102200  0.921000  0.851600  1.0
  H  H68  1  0.602200  0.851600  0.930600  1.0
  H  H69  1  0.897800  0.069400  0.921000  1.0
  H  H70  1  0.397800  0.921000  0.851600  1.0
  H  H71  1  0.897800  0.851600  0.930600  1.0
  H  H72  1  0.397800  0.930600  0.079000  1.0
  H  H73  1  0.897800  0.079000  0.148400  1.0
  H  H74  1  0.397800  0.148400  0.069400  1.0
  H  H75  1  0.064700  0.831300  0.103100  1.0
  H  H76  1  0.564700  0.103100  0.271800  1.0
  H  H77  1  0.064700  0.271800  0.168700  1.0
  H  H78  1  0.564700  0.168700  0.896900  1.0
  H  H79  1  0.064700  0.896900  0.728200  1.0
  H  H80  1  0.564700  0.728200  0.831300  1.0
  H  H81  1  0.935300  0.168700  0.896900  1.0
  H  H82  1  0.435300  0.896900  0.728200  1.0
  H  H83  1  0.935300  0.728200  0.831300  1.0
  H  H84  1  0.435300  0.831300  0.103100  1.0
  H  H85  1  0.935300  0.103100  0.271800  1.0
  H  H86  1  0.435300  0.271800  0.168700  1.0
  H  H87  1  0.987700  0.752100  0.102200  1.0
  H  H88  1  0.487700  0.102200  0.350100  1.0
  H  H89  1  0.987700  0.350100  0.247900  1.0
  H  H90  1  0.487700  0.247900  0.897800  1.0
  H  H91  1  0.987700  0.897800  0.649900  1.0
  H  H92  1  0.487700  0.649900  0.752100  1.0
  H  H93  1  0.012300  0.247900  0.897800  1.0
  H  H94  1  0.512300  0.897800  0.649900  1.0
  H  H95  1  0.012300  0.649900  0.752100  1.0
  H  H96  1  0.512300  0.752100  0.102200  1.0
  H  H97  1  0.012300  0.102200  0.350100  1.0
  H  H98  1  0.512300  0.350100  0.247900  1.0
  H  H99  1  0.892700  0.732700  0.136000  1.0
  H  H100  1  0.392700  0.136000  0.403300  1.0
  H  H101  1  0.892700  0.403300  0.267300  1.0
  H  H102  1  0.392700  0.267300  0.864000  1.0
  H  H103  1  0.892700  0.864000  0.596700  1.0
  H  H104  1  0.392700  0.596700  0.732700  1.0
  H  H105  1  0.107300  0.267300  0.864000  1.0
  H  H106  1  0.607300  0.864000  0.596700  1.0
  H  H107  1  0.107300  0.596700  0.732700  1.0
  H  H108  1  0.607300  0.732700  0.136000  1.0
  H  H109  1  0.107300  0.136000  0.403300  1.0
  H  H110  1  0.607300  0.403300  0.267300  1.0
  H  H111  1  0.835100  0.810900  0.217700  1.0
  H  H112  1  0.335100  0.217700  0.406800  1.0
  H  H113  1  0.835100  0.406800  0.189100  1.0
  H  H114  1  0.335100  0.189100  0.782300  1.0
  H  H115  1  0.835100  0.782300  0.593200  1.0
  H  H116  1  0.335100  0.593200  0.810900  1.0
  H  H117  1  0.164900  0.189100  0.782300  1.0
  H  H118  1  0.664900  0.782300  0.593200  1.0
  H  H119  1  0.164900  0.593200  0.810900  1.0
  H  H120  1  0.664900  0.810900  0.217700  1.0
  H  H121  1  0.164900  0.217700  0.406800  1.0
  H  H122  1  0.664900  0.406800  0.189100  1.0
  H  H123  1  0.857900  0.916700  0.259400  1.0
  H  H124  1  0.357900  0.259400  0.342700  1.0
  H  H125  1  0.857900  0.342700  0.083300  1.0
  H  H126  1  0.357900  0.083300  0.740600  1.0
  H  H127  1  0.857900  0.740600  0.657300  1.0
  H  H128  1  0.357900  0.657300  0.916700  1.0
  H  H129  1  0.142100  0.083300  0.740600  1.0
  H  H130  1  0.642100  0.740600  0.657300  1.0
  H  H131  1  0.142100  0.657300  0.916700  1.0
  H  H132  1  0.642100  0.916700  0.259400  1.0
  H  H133  1  0.142100  0.259400  0.342700  1.0
  H  H134  1  0.642100  0.342700  0.083300  1.0
  H  H135  1  0.936000  0.992600  0.257100  1.0
  H  H136  1  0.436000  0.257100  0.264500  1.0
  H  H137  1  0.936000  0.264500  0.007400  1.0
  H  H138  1  0.436000  0.007400  0.742900  1.0
  H  H139  1  0.936000  0.742900  0.735500  1.0
  H  H140  1  0.436000  0.735500  0.992600  1.0
  H  H141  1  0.064000  0.007400  0.742900  1.0
  H  H142  1  0.564000  0.742900  0.735500  1.0
  H  H143  1  0.064000  0.735500  0.992600  1.0
  H  H144  1  0.564000  0.992600  0.257100  1.0
  H  H145  1  0.064000  0.257100  0.264500  1.0
  H  H146  1  0.564000  0.264500  0.007400  1.0
  H  H147  1  0.028200  0.015500  0.213200  1.0
  H  H148  1  0.528200  0.213200  0.197700  1.0
  H  H149  1  0.028200  0.197700  0.984500  1.0
  H  H150  1  0.528200  0.984500  0.786800  1.0
  H  H151  1  0.028200  0.786800  0.802300  1.0
  H  H152  1  0.528200  0.802300  0.015500  1.0
  H  H153  1  0.971800  0.984500  0.786800  1.0
  H  H154  1  0.471800  0.786800  0.802300  1.0
  H  H155  1  0.971800  0.802300  0.015500  1.0
  H  H156  1  0.471800  0.015500  0.213200  1.0
  H  H157  1  0.971800  0.213200  0.197700  1.0
  H  H158  1  0.471800  0.197700  0.984500  1.0
  H  H159  1  0.668600  0.758500  0.454400  1.0
  H  H160  1  0.168600  0.454400  0.695900  1.0
  H  H161  1  0.668600  0.695900  0.241500  1.0
  H  H162  1  0.168600  0.241500  0.545600  1.0
  H  H163  1  0.668600  0.545600  0.304100  1.0
  H  H164  1  0.168600  0.304100  0.758500  1.0
  H  H165  1  0.331400  0.241500  0.545600  1.0
  H  H166  1  0.831400  0.545600  0.304100  1.0
  H  H167  1  0.331400  0.304100  0.758500  1.0
  H  H168  1  0.831400  0.758500  0.454400  1.0
  H  H169  1  0.331400  0.454400  0.695900  1.0
  H  H170  1  0.831400  0.695900  0.241500  1.0
  H  H171  1  0.691700  0.706800  0.385700  1.0
  H  H172  1  0.191700  0.385700  0.678900  1.0
  H  H173  1  0.691700  0.678900  0.293200  1.0
  H  H174  1  0.191700  0.293200  0.614300  1.0
  H  H175  1  0.691700  0.614300  0.321100  1.0
  H  H176  1  0.191700  0.321100  0.706800  1.0
  H  H177  1  0.308300  0.293200  0.614300  1.0
  H  H178  1  0.808300  0.614300  0.321100  1.0
  H  H179  1  0.308300  0.321100  0.706800  1.0
  H  H180  1  0.808300  0.706800  0.385700  1.0
  H  H181  1  0.308300  0.385700  0.678900  1.0
  H  H182  1  0.808300  0.678900  0.293200  1.0
  H  H183  1  0.567300  0.756800  0.259500  1.0
  H  H184  1  0.067300  0.259500  0.502700  1.0
  H  H185  1  0.567300  0.502700  0.243200  1.0
  H  H186  1  0.067300  0.243200  0.740500  1.0
  H  H187  1  0.567300  0.740500  0.497300  1.0
  H  H188  1  0.067300  0.497300  0.756800  1.0
  H  H189  1  0.432700  0.243200  0.740500  1.0
  H  H190  1  0.932700  0.740500  0.497300  1.0
  H  H191  1  0.432700  0.497300  0.756800  1.0
  H  H192  1  0.932700  0.756800  0.259500  1.0
  H  H193  1  0.432700  0.259500  0.502700  1.0
  H  H194  1  0.932700  0.502700  0.243200  1.0
  H  H195  1  0.577100  0.822300  0.469800  1.0
  H  H196  1  0.077100  0.469800  0.647500  1.0
  H  H197  1  0.577100  0.647500  0.177700  1.0
  H  H198  1  0.077100  0.177700  0.530200  1.0
  H  H199  1  0.577100  0.530200  0.352500  1.0
  H  H200  1  0.077100  0.352500  0.822300  1.0
  H  H201  1  0.422900  0.177700  0.530200  1.0
  H  H202  1  0.922900  0.530200  0.352500  1.0
  H  H203  1  0.422900  0.352500  0.822300  1.0
  H  H204  1  0.922900  0.822300  0.469800  1.0
  H  H205  1  0.422900  0.469800  0.647500  1.0
  H  H206  1  0.922900  0.647500  0.177700  1.0
  H  H207  1  0.399500  0.828500  0.241900  1.0
  H  H208  1  0.899500  0.241900  0.413400  1.0
  H  H209  1  0.399500  0.413400  0.171500  1.0
  H  H210  1  0.899500  0.171500  0.758100  1.0
  H  H211  1  0.399500  0.758100  0.586600  1.0
  H  H212  1  0.899500  0.586600  0.828500  1.0
  H  H213  1  0.600500  0.171500  0.758100  1.0
  H  H214  1  0.100500  0.758100  0.586600  1.0
  H  H215  1  0.600500  0.586600  0.828500  1.0
  H  H216  1  0.100500  0.828500  0.241900  1.0
  H  H217  1  0.600500  0.241900  0.413400  1.0
  H  H218  1  0.100500  0.413400  0.171500  1.0
  H  H219  1  0.311400  0.860700  0.198700  1.0
  H  H220  1  0.811400  0.198700  0.338000  1.0
  H  H221  1  0.311400  0.338000  0.139300  1.0
  H  H222  1  0.811400  0.139300  0.801300  1.0
  H  H223  1  0.311400  0.801300  0.662000  1.0
  H  H224  1  0.811400  0.662000  0.860700  1.0
  H  H225  1  0.688600  0.139300  0.801300  1.0
  H  H226  1  0.188600  0.801300  0.662000  1.0
  H  H227  1  0.688600  0.662000  0.860700  1.0
  H  H228  1  0.188600  0.860700  0.198700  1.0
  H  H229  1  0.688600  0.198700  0.338000  1.0
  H  H230  1  0.188600  0.338000  0.139300  1.0
  H  H231  1  0.344200  0.034900  0.322100  1.0
  H  H232  1  0.844200  0.322100  0.287200  1.0
  H  H233  1  0.344200  0.287200  0.965100  1.0
  H  H234  1  0.844200  0.965100  0.677900  1.0
  H  H235  1  0.344200  0.677900  0.712800  1.0
  H  H236  1  0.844200  0.712800  0.034900  1.0
  H  H237  1  0.655800  0.965100  0.677900  1.0
  H  H238  1  0.155800  0.677900  0.712800  1.0
  H  H239  1  0.655800  0.712800  0.034900  1.0
  H  H240  1  0.155800  0.034900  0.322100  1.0
  H  H241  1  0.655800  0.322100  0.287200  1.0
  H  H242  1  0.155800  0.287200  0.965100  1.0
  H  H243  1  0.435700  0.013200  0.363400  1.0
  H  H244  1  0.935700  0.363400  0.350200  1.0
  H  H245  1  0.435700  0.350200  0.986800  1.0
  H  H246  1  0.935700  0.986800  0.636600  1.0
  H  H247  1  0.435700  0.636600  0.649800  1.0
  H  H248  1  0.935700  0.649800  0.013200  1.0
  H  H249  1  0.564300  0.986800  0.636600  1.0
  H  H250  1  0.064300  0.636600  0.649800  1.0
  H  H251  1  0.564300  0.649800  0.013200  1.0
  H  H252  1  0.064300  0.013200  0.363400  1.0
  H  H253  1  0.564300  0.363400  0.350200  1.0
  H  H254  1  0.064300  0.350200  0.986800  1.0
  H  H255  1  0.478000  0.952300  0.534900  1.0
  H  H256  1  0.978000  0.534900  0.582600  1.0
  H  H257  1  0.478000  0.582600  0.047700  1.0
  H  H258  1  0.978000  0.047700  0.465100  1.0
  H  H259  1  0.478000  0.465100  0.417400  1.0
  H  H260  1  0.978000  0.417400  0.952300  1.0
  H  H261  1  0.522000  0.047700  0.465100  1.0
  H  H262  1  0.022000  0.465100  0.417400  1.0
  H  H263  1  0.522000  0.417400  0.952300  1.0
  H  H264  1  0.022000  0.952300  0.534900  1.0
  H  H265  1  0.522000  0.534900  0.582600  1.0
  H  H266  1  0.022000  0.582600  0.047700  1.0
  H  H267  1  0.552900  0.929900  0.519100  1.0
  H  H268  1  0.052900  0.519100  0.589200  1.0
  H  H269  1  0.552900  0.589200  0.070100  1.0
  H  H270  1  0.052900  0.070100  0.480900  1.0
  H  H271  1  0.552900  0.480900  0.410800  1.0
  H  H272  1  0.052900  0.410800  0.929900  1.0
  H  H273  1  0.447100  0.070100  0.480900  1.0
  H  H274  1  0.947100  0.480900  0.410800  1.0
  H  H275  1  0.447100  0.410800  0.929900  1.0
  H  H276  1  0.947100  0.929900  0.519100  1.0
  H  H277  1  0.447100  0.519100  0.589200  1.0
  H  H278  1  0.947100  0.589200  0.070100  1.0
  H  H279  1  0.499000  0.884900  0.523100  1.0
  H  H280  1  0.999000  0.523100  0.638200  1.0
  H  H281  1  0.499000  0.638200  0.115100  1.0
  H  H282  1  0.999000  0.115100  0.476900  1.0
  H  H283  1  0.499000  0.476900  0.361800  1.0
  H  H284  1  0.999000  0.361800  0.884900  1.0
  H  H285  1  0.501000  0.115100  0.476900  1.0
  H  H286  1  0.001000  0.476900  0.361800  1.0
  H  H287  1  0.501000  0.361800  0.884900  1.0
  H  H288  1  0.001000  0.884900  0.523100  1.0
  H  H289  1  0.501000  0.523100  0.638200  1.0
  H  H290  1  0.001000  0.638200  0.115100  1.0
  Pd  Pd291  1  0.250000  0.983570  0.220970  1.0
  Pd  Pd292  1  0.750000  0.220970  0.237400  1.0
  Pd  Pd293  1  0.250000  0.237400  0.016430  1.0
  Pd  Pd294  1  0.750000  0.016430  0.779030  1.0
  Pd  Pd295  1  0.250000  0.779030  0.762600  1.0
  Pd  Pd296  1  0.750000  0.762600  0.983570  1.0
  C  C297  1  0.250000  0.121900  0.243700  1.0
  C  C298  1  0.750000  0.243700  0.121800  1.0
  C  C299  1  0.250000  0.121800  0.878100  1.0
  C  C300  1  0.750000  0.878100  0.756300  1.0
  C  C301  1  0.250000  0.756300  0.878200  1.0
  C  C302  1  0.750000  0.878200  0.121900  1.0
  C  C303  1  0.185400  0.025800  0.194100  1.0
  C  C304  1  0.685400  0.194100  0.168300  1.0
  C  C305  1  0.185400  0.168300  0.974200  1.0
  C  C306  1  0.685400  0.974200  0.805900  1.0
  C  C307  1  0.185400  0.805900  0.831700  1.0
  C  C308  1  0.685400  0.831700  0.025800  1.0
  C  C309  1  0.814600  0.974200  0.805900  1.0
  C  C310  1  0.314600  0.805900  0.831700  1.0
  C  C311  1  0.814600  0.831700  0.025800  1.0
  C  C312  1  0.314600  0.025800  0.194100  1.0
  C  C313  1  0.814600  0.194100  0.168300  1.0
  C  C314  1  0.314600  0.168300  0.974200  1.0
  C  C315  1  0.144500  0.104400  0.182400  1.0
  C  C316  1  0.644500  0.182400  0.078000  1.0
  C  C317  1  0.144500  0.078000  0.895600  1.0
  C  C318  1  0.644500  0.895600  0.817600  1.0
  C  C319  1  0.144500  0.817600  0.922000  1.0
  C  C320  1  0.644500  0.922000  0.104400  1.0
  C  C321  1  0.855500  0.895600  0.817600  1.0
  C  C322  1  0.355500  0.817600  0.922000  1.0
  C  C323  1  0.855500  0.922000  0.104400  1.0
  C  C324  1  0.355500  0.104400  0.182400  1.0
  C  C325  1  0.855500  0.182400  0.078000  1.0
  C  C326  1  0.355500  0.078000  0.895600  1.0
  C  C327  1  0.107900  0.053000  0.148800  1.0
  C  C328  1  0.607900  0.148800  0.095800  1.0
  C  C329  1  0.107900  0.095800  0.947000  1.0
  C  C330  1  0.607900  0.947000  0.851200  1.0
  C  C331  1  0.107900  0.851200  0.904200  1.0
  C  C332  1  0.607900  0.904200  0.053000  1.0
  C  C333  1  0.892100  0.947000  0.851200  1.0
  C  C334  1  0.392100  0.851200  0.904200  1.0
  C  C335  1  0.892100  0.904200  0.053000  1.0
  C  C336  1  0.392100  0.053000  0.148800  1.0
  C  C337  1  0.892100  0.148800  0.095800  1.0
  C  C338  1  0.392100  0.095800  0.947000  1.0
  C  C339  1  0.113400  0.941300  0.122100  1.0
  C  C340  1  0.613400  0.122100  0.180800  1.0
  C  C341  1  0.113400  0.180800  0.058700  1.0
  C  C342  1  0.613400  0.058700  0.877900  1.0
  C  C343  1  0.113400  0.877900  0.819200  1.0
  C  C344  1  0.613400  0.819200  0.941300  1.0
  C  C345  1  0.886600  0.058700  0.877900  1.0
  C  C346  1  0.386600  0.877900  0.819200  1.0
  C  C347  1  0.886600  0.819200  0.941300  1.0
  C  C348  1  0.386600  0.941300  0.122100  1.0
  C  C349  1  0.886600  0.122100  0.180800  1.0
  C  C350  1  0.386600  0.180800  0.058700  1.0
  C  C351  1  0.052200  0.928400  0.152500  1.0
  C  C352  1  0.552200  0.152500  0.224100  1.0
  C  C353  1  0.052200  0.224100  0.071600  1.0
  C  C354  1  0.552200  0.071600  0.847500  1.0
  C  C355  1  0.052200  0.847500  0.775900  1.0
  C  C356  1  0.552200  0.775900  0.928400  1.0
  C  C357  1  0.947800  0.071600  0.847500  1.0
  C  C358  1  0.447800  0.847500  0.775900  1.0
  C  C359  1  0.947800  0.775900  0.928400  1.0
  C  C360  1  0.447800  0.928400  0.152500  1.0
  C  C361  1  0.947800  0.152500  0.224100  1.0
  C  C362  1  0.447800  0.224100  0.071600  1.0
  C  C363  1  0.037200  0.864200  0.132000  1.0
  C  C364  1  0.537200  0.132000  0.267800  1.0
  C  C365  1  0.037200  0.267800  0.135800  1.0
  C  C366  1  0.537200  0.135800  0.868000  1.0
  C  C367  1  0.037200  0.868000  0.732200  1.0
  C  C368  1  0.537200  0.732200  0.864200  1.0
  C  C369  1  0.962800  0.135800  0.868000  1.0
  C  C370  1  0.462800  0.868000  0.732200  1.0
  C  C371  1  0.962800  0.732200  0.864200  1.0
  C  C372  1  0.462800  0.864200  0.132000  1.0
  C  C373  1  0.962800  0.132000  0.267800  1.0
  C  C374  1  0.462800  0.267800  0.135800  1.0
  C  C375  1  0.979600  0.851800  0.156400  1.0
  C  C376  1  0.479600  0.156400  0.304600  1.0
  C  C377  1  0.979600  0.304600  0.148200  1.0
  C  C378  1  0.479600  0.148200  0.843600  1.0
  C  C379  1  0.979600  0.843600  0.695400  1.0
  C  C380  1  0.479600  0.695400  0.851800  1.0
  C  C381  1  0.020400  0.148200  0.843600  1.0
  C  C382  1  0.520400  0.843600  0.695400  1.0
  C  C383  1  0.020400  0.695400  0.851800  1.0
  C  C384  1  0.520400  0.851800  0.156400  1.0
  C  C385  1  0.020400  0.156400  0.304600  1.0
  C  C386  1  0.520400  0.304600  0.148200  1.0
  C  C387  1  0.961200  0.785200  0.132100  1.0
  C  C388  1  0.461200  0.132100  0.346900  1.0
  C  C389  1  0.961200  0.346900  0.214800  1.0
  C  C390  1  0.461200  0.214800  0.867900  1.0
  C  C391  1  0.961200  0.867900  0.653100  1.0
  C  C392  1  0.461200  0.653100  0.785200  1.0
  C  C393  1  0.038800  0.214800  0.867900  1.0
  C  C394  1  0.538800  0.867900  0.653100  1.0
  C  C395  1  0.038800  0.653100  0.785200  1.0
  C  C396  1  0.538800  0.785200  0.132100  1.0
  C  C397  1  0.038800  0.132100  0.346900  1.0
  C  C398  1  0.538800  0.346900  0.214800  1.0
  C  C399  1  0.907800  0.774500  0.153500  1.0
  C  C400  1  0.407800  0.153500  0.379000  1.0
  C  C401  1  0.907800  0.379000  0.225500  1.0
  C  C402  1  0.407800  0.225500  0.846500  1.0
  C  C403  1  0.907800  0.846500  0.621000  1.0
  C  C404  1  0.407800  0.621000  0.774500  1.0
  C  C405  1  0.092200  0.225500  0.846500  1.0
  C  C406  1  0.592200  0.846500  0.621000  1.0
  C  C407  1  0.092200  0.621000  0.774500  1.0
  C  C408  1  0.592200  0.774500  0.153500  1.0
  C  C409  1  0.092200  0.153500  0.379000  1.0
  C  C410  1  0.592200  0.379000  0.225500  1.0
  C  C411  1  0.871400  0.822600  0.201700  1.0
  C  C412  1  0.371400  0.201700  0.379100  1.0
  C  C413  1  0.871400  0.379100  0.177400  1.0
  C  C414  1  0.371400  0.177400  0.798300  1.0
  C  C415  1  0.871400  0.798300  0.620900  1.0
  C  C416  1  0.371400  0.620900  0.822600  1.0
  C  C417  1  0.128600  0.177400  0.798300  1.0
  C  C418  1  0.628600  0.798300  0.620900  1.0
  C  C419  1  0.128600  0.620900  0.822600  1.0
  C  C420  1  0.628600  0.822600  0.201700  1.0
  C  C421  1  0.128600  0.201700  0.379100  1.0
  C  C422  1  0.628600  0.379100  0.177400  1.0
  C  C423  1  0.884200  0.885100  0.227300  1.0
  C  C424  1  0.384200  0.227300  0.342200  1.0
  C  C425  1  0.884200  0.342200  0.114900  1.0
  C  C426  1  0.384200  0.114900  0.772700  1.0
  C  C427  1  0.884200  0.772700  0.657800  1.0
  C  C428  1  0.384200  0.657800  0.885100  1.0
  C  C429  1  0.115800  0.114900  0.772700  1.0
  C  C430  1  0.615800  0.772700  0.657800  1.0
  C  C431  1  0.115800  0.657800  0.885100  1.0
  C  C432  1  0.615800  0.885100  0.227300  1.0
  C  C433  1  0.115800  0.227300  0.342200  1.0
  C  C434  1  0.615800  0.342200  0.114900  1.0
  C  C435  1  0.943800  0.899100  0.200000  1.0
  C  C436  1  0.443800  0.200000  0.300900  1.0
  C  C437  1  0.943800  0.300900  0.100900  1.0
  C  C438  1  0.443800  0.100900  0.800000  1.0
  C  C439  1  0.943800  0.800000  0.699100  1.0
  C  C440  1  0.443800  0.699100  0.899100  1.0
  C  C441  1  0.056200  0.100900  0.800000  1.0
  C  C442  1  0.556200  0.800000  0.699100  1.0
  C  C443  1  0.056200  0.699100  0.899100  1.0
  C  C444  1  0.556200  0.899100  0.200000  1.0
  C  C445  1  0.056200  0.200000  0.300900  1.0
  C  C446  1  0.556200  0.300900  0.100900  1.0
  C  C447  1  0.960400  0.960100  0.224100  1.0
  C  C448  1  0.460400  0.224100  0.264000  1.0
  C  C449  1  0.960400  0.264000  0.039900  1.0
  C  C450  1  0.460400  0.039900  0.775900  1.0
  C  C451  1  0.960400  0.775900  0.736000  1.0
  C  C452  1  0.460400  0.736000  0.960100  1.0
  C  C453  1  0.039600  0.039900  0.775900  1.0
  C  C454  1  0.539600  0.775900  0.736000  1.0
  C  C455  1  0.039600  0.736000  0.960100  1.0
  C  C456  1  0.539600  0.960100  0.224100  1.0
  C  C457  1  0.039600  0.224100  0.264000  1.0
  C  C458  1  0.539600  0.264000  0.039900  1.0
  C  C459  1  0.016100  0.973100  0.197800  1.0
  C  C460  1  0.516100  0.197800  0.224700  1.0
  C  C461  1  0.016100  0.224700  0.026900  1.0
  C  C462  1  0.516100  0.026900  0.802200  1.0
  C  C463  1  0.016100  0.802200  0.775300  1.0
  C  C464  1  0.516100  0.775300  0.973100  1.0
  C  C465  1  0.983900  0.026900  0.802200  1.0
  C  C466  1  0.483900  0.802200  0.775300  1.0
  C  C467  1  0.983900  0.775300  0.973100  1.0
  C  C468  1  0.483900  0.973100  0.197800  1.0
  C  C469  1  0.983900  0.197800  0.224700  1.0
  C  C470  1  0.483900  0.224700  0.026900  1.0
  C  C471  1  0.652800  0.727200  0.412300  1.0
  C  C472  1  0.152800  0.412300  0.685100  1.0
  C  C473  1  0.652800  0.685100  0.272800  1.0
  C  C474  1  0.152800  0.272800  0.587700  1.0
  C  C475  1  0.652800  0.587700  0.314900  1.0
  C  C476  1  0.152800  0.314900  0.727200  1.0
  C  C477  1  0.347200  0.272800  0.587700  1.0
  C  C478  1  0.847200  0.587700  0.314900  1.0
  C  C479  1  0.347200  0.314900  0.727200  1.0
  C  C480  1  0.847200  0.727200  0.412300  1.0
  C  C481  1  0.347200  0.412300  0.685100  1.0
  C  C482  1  0.847200  0.685100  0.272800  1.0
  C  C483  1  0.613000  0.759300  0.384800  1.0
  C  C484  1  0.113000  0.384800  0.625500  1.0
  C  C485  1  0.613000  0.625500  0.240700  1.0
  C  C486  1  0.113000  0.240700  0.615200  1.0
  C  C487  1  0.613000  0.615200  0.374500  1.0
  C  C488  1  0.113000  0.374500  0.759300  1.0
  C  C489  1  0.387000  0.240700  0.615200  1.0
  C  C490  1  0.887000  0.615200  0.374500  1.0
  C  C491  1  0.387000  0.374500  0.759300  1.0
  C  C492  1  0.887000  0.759300  0.384800  1.0
  C  C493  1  0.387000  0.384800  0.625500  1.0
  C  C494  1  0.887000  0.625500  0.240700  1.0
  C  C495  1  0.610500  0.739300  0.322400  1.0
  C  C496  1  0.110500  0.322400  0.583100  1.0
  C  C497  1  0.610500  0.583100  0.260700  1.0
  C  C498  1  0.110500  0.260700  0.677600  1.0
  C  C499  1  0.610500  0.677600  0.416900  1.0
  C  C500  1  0.110500  0.416900  0.739300  1.0
  C  C501  1  0.389500  0.260700  0.677600  1.0
  C  C502  1  0.889500  0.677600  0.416900  1.0
  C  C503  1  0.389500  0.416900  0.739300  1.0
  C  C504  1  0.889500  0.739300  0.322400  1.0
  C  C505  1  0.389500  0.322400  0.583100  1.0
  C  C506  1  0.889500  0.583100  0.260700  1.0
  C  C507  1  0.568200  0.769900  0.302800  1.0
  C  C508  1  0.068200  0.302800  0.532900  1.0
  C  C509  1  0.568200  0.532900  0.230100  1.0
  C  C510  1  0.068200  0.230100  0.697200  1.0
  C  C511  1  0.568200  0.697200  0.467100  1.0
  C  C512  1  0.068200  0.467100  0.769900  1.0
  C  C513  1  0.431800  0.230100  0.697200  1.0
  C  C514  1  0.931800  0.697200  0.467100  1.0
  C  C515  1  0.431800  0.467100  0.769900  1.0
  C  C516  1  0.931800  0.769900  0.302800  1.0
  C  C517  1  0.431800  0.302800  0.532900  1.0
  C  C518  1  0.931800  0.532900  0.230100  1.0
  C  C519  1  0.528300  0.817100  0.341300  1.0
  C  C520  1  0.028300  0.341300  0.524200  1.0
  C  C521  1  0.528300  0.524200  0.182900  1.0
  C  C522  1  0.028300  0.182900  0.658700  1.0
  C  C523  1  0.528300  0.658700  0.475800  1.0
  C  C524  1  0.028300  0.475800  0.817100  1.0
  C  C525  1  0.471700  0.182900  0.658700  1.0
  C  C526  1  0.971700  0.658700  0.475800  1.0
  C  C527  1  0.471700  0.475800  0.817100  1.0
  C  C528  1  0.971700  0.817100  0.341300  1.0
  C  C529  1  0.471700  0.341300  0.524200  1.0
  C  C530  1  0.971700  0.524200  0.182900  1.0
  C  C531  1  0.534300  0.839000  0.407600  1.0
  C  C532  1  0.034300  0.407600  0.568600  1.0
  C  C533  1  0.534300  0.568600  0.161000  1.0
  C  C534  1  0.034300  0.161000  0.592400  1.0
  C  C535  1  0.534300  0.592400  0.431400  1.0
  C  C536  1  0.034300  0.431400  0.839000  1.0
  C  C537  1  0.465700  0.161000  0.592400  1.0
  C  C538  1  0.965700  0.592400  0.431400  1.0
  C  C539  1  0.465700  0.431400  0.839000  1.0
  C  C540  1  0.965700  0.839000  0.407600  1.0
  C  C541  1  0.465700  0.407600  0.568600  1.0
  C  C542  1  0.965700  0.568600  0.161000  1.0
  C  C543  1  0.574700  0.809000  0.426500  1.0
  C  C544  1  0.074700  0.426500  0.617500  1.0
  C  C545  1  0.574700  0.617500  0.191000  1.0
  C  C546  1  0.074700  0.191000  0.573500  1.0
  C  C547  1  0.574700  0.573500  0.382500  1.0
  C  C548  1  0.074700  0.382500  0.809000  1.0
  C  C549  1  0.425300  0.191000  0.573500  1.0
  C  C550  1  0.925300  0.573500  0.382500  1.0
  C  C551  1  0.425300  0.382500  0.809000  1.0
  C  C552  1  0.925300  0.809000  0.426500  1.0
  C  C553  1  0.425300  0.426500  0.617500  1.0
  C  C554  1  0.925300  0.617500  0.191000  1.0
  C  C555  1  0.482000  0.899500  0.332600  1.0
  C  C556  1  0.982000  0.332600  0.433100  1.0
  C  C557  1  0.482000  0.433100  0.100500  1.0
  C  C558  1  0.982000  0.100500  0.667400  1.0
  C  C559  1  0.482000  0.667400  0.566900  1.0
  C  C560  1  0.982000  0.566900  0.899500  1.0
  C  C561  1  0.518000  0.100500  0.667400  1.0
  C  C562  1  0.018000  0.667400  0.566900  1.0
  C  C563  1  0.518000  0.566900  0.899500  1.0
  C  C564  1  0.018000  0.899500  0.332600  1.0
  C  C565  1  0.518000  0.332600  0.433100  1.0
  C  C566  1  0.018000  0.433100  0.100500  1.0
  C  C567  1  0.423900  0.920000  0.307400  1.0
  C  C568  1  0.923900  0.307400  0.387400  1.0
  C  C569  1  0.423900  0.387400  0.080000  1.0
  C  C570  1  0.923900  0.080000  0.692600  1.0
  C  C571  1  0.423900  0.692600  0.612600  1.0
  C  C572  1  0.923900  0.612600  0.920000  1.0
  C  C573  1  0.576100  0.080000  0.692600  1.0
  C  C574  1  0.076100  0.692600  0.612600  1.0
  C  C575  1  0.576100  0.612600  0.920000  1.0
  C  C576  1  0.076100  0.920000  0.307400  1.0
  C  C577  1  0.576100  0.307400  0.387400  1.0
  C  C578  1  0.076100  0.387400  0.080000  1.0
  C  C579  1  0.389100  0.871200  0.257600  1.0
  C  C580  1  0.889100  0.257600  0.386400  1.0
  C  C581  1  0.389100  0.386400  0.128800  1.0
  C  C582  1  0.889100  0.128800  0.742400  1.0
  C  C583  1  0.389100  0.742400  0.613600  1.0
  C  C584  1  0.889100  0.613600  0.871200  1.0
  C  C585  1  0.610900  0.128800  0.742400  1.0
  C  C586  1  0.110900  0.742400  0.613600  1.0
  C  C587  1  0.610900  0.613600  0.871200  1.0
  C  C588  1  0.110900  0.871200  0.257600  1.0
  C  C589  1  0.610900  0.257600  0.386400  1.0
  C  C590  1  0.110900  0.386400  0.128800  1.0
  C  C591  1  0.337000  0.890900  0.232500  1.0
  C  C592  1  0.837000  0.232500  0.341600  1.0
  C  C593  1  0.337000  0.341600  0.109100  1.0
  C  C594  1  0.837000  0.109100  0.767500  1.0
  C  C595  1  0.337000  0.767500  0.658400  1.0
  C  C596  1  0.837000  0.658400  0.890900  1.0
  C  C597  1  0.663000  0.109100  0.767500  1.0
  C  C598  1  0.163000  0.767500  0.658400  1.0
  C  C599  1  0.663000  0.658400  0.890900  1.0
  C  C600  1  0.163000  0.890900  0.232500  1.0
  C  C601  1  0.663000  0.232500  0.341600  1.0
  C  C602  1  0.163000  0.341600  0.109100  1.0
  C  C603  1  0.358200  0.992800  0.304600  1.0
  C  C604  1  0.858200  0.304600  0.311800  1.0
  C  C605  1  0.358200  0.311800  0.007200  1.0
  C  C606  1  0.858200  0.007200  0.695400  1.0
  C  C607  1  0.358200  0.695400  0.688200  1.0
  C  C608  1  0.858200  0.688200  0.992800  1.0
  C  C609  1  0.641800  0.007200  0.695400  1.0
  C  C610  1  0.141800  0.695400  0.688200  1.0
  C  C611  1  0.641800  0.688200  0.992800  1.0
  C  C612  1  0.141800  0.992800  0.304600  1.0
  C  C613  1  0.641800  0.304600  0.311800  1.0
  C  C614  1  0.141800  0.311800  0.007200  1.0
  C  C615  1  0.410500  0.981000  0.330900  1.0
  C  C616  1  0.910500  0.330900  0.349900  1.0
  C  C617  1  0.410500  0.349900  0.019000  1.0
  C  C618  1  0.910500  0.019000  0.669100  1.0
  C  C619  1  0.410500  0.669100  0.650100  1.0
  C  C620  1  0.910500  0.650100  0.981000  1.0
  C  C621  1  0.589500  0.019000  0.669100  1.0
  C  C622  1  0.089500  0.669100  0.650100  1.0
  C  C623  1  0.589500  0.650100  0.981000  1.0
  C  C624  1  0.089500  0.981000  0.330900  1.0
  C  C625  1  0.589500  0.330900  0.349900  1.0
  C  C626  1  0.089500  0.349900  0.019000  1.0
  C  C627  1  0.507000  0.916400  0.510800  1.0
  C  C628  1  0.007000  0.510800  0.594400  1.0
  C  C629  1  0.507000  0.594400  0.083600  1.0
  C  C630  1  0.007000  0.083600  0.489200  1.0
  C  C631  1  0.507000  0.489200  0.405600  1.0
  C  C632  1  0.007000  0.405600  0.916400  1.0
  C  C633  1  0.493000  0.083600  0.489200  1.0
  C  C634  1  0.993000  0.489200  0.405600  1.0
  C  C635  1  0.493000  0.405600  0.916400  1.0
  C  C636  1  0.993000  0.916400  0.510800  1.0
  C  C637  1  0.493000  0.510800  0.594400  1.0
  C  C638  1  0.993000  0.594400  0.083600  1.0
  I  I639  1  0.250000  0.963300  0.030600  1.0
  I  I640  1  0.750000  0.030600  0.067300  1.0
  I  I641  1  0.250000  0.067300  0.036700  1.0
  I  I642  1  0.750000  0.036700  0.969400  1.0
  I  I643  1  0.250000  0.969400  0.932700  1.0
  I  I644  1  0.750000  0.932700  0.963300  1.0
  N  N645  1  0.134200  0.003400  0.155300  1.0
  N  N646  1  0.634200  0.155300  0.151900  1.0
  N  N647  1  0.134200  0.151900  0.996600  1.0
  N  N648  1  0.634200  0.996600  0.844700  1.0
  N  N649  1  0.134200  0.844700  0.848100  1.0
  N  N650  1  0.634200  0.848100  0.003400  1.0
  N  N651  1  0.865800  0.996600  0.844700  1.0
  N  N652  1  0.365800  0.844700  0.848100  1.0
  N  N653  1  0.865800  0.848100  0.003400  1.0
  N  N654  1  0.365800  0.003400  0.155300  1.0
  N  N655  1  0.865800  0.155300  0.151900  1.0
  N  N656  1  0.365800  0.151900  0.996600  1.0
  N  N657  1  0.193200  0.087200  0.210700  1.0
  N  N658  1  0.693200  0.210700  0.123500  1.0
  N  N659  1  0.193200  0.123500  0.912800  1.0
  N  N660  1  0.693200  0.912800  0.789300  1.0
  N  N661  1  0.193200  0.789300  0.876500  1.0
  N  N662  1  0.693200  0.876500  0.087200  1.0
  N  N663  1  0.806800  0.912800  0.789300  1.0
  N  N664  1  0.306800  0.789300  0.876500  1.0
  N  N665  1  0.806800  0.876500  0.087200  1.0
  N  N666  1  0.306800  0.087200  0.210700  1.0
  N  N667  1  0.806800  0.210700  0.123500  1.0
  N  N668  1  0.306800  0.123500  0.912800  1.0
  N  N669  1  0.324900  0.949000  0.255500  1.0
  N  N670  1  0.824900  0.255500  0.306500  1.0
  N  N671  1  0.324900  0.306500  0.051000  1.0
  N  N672  1  0.824900  0.051000  0.744500  1.0
  N  N673  1  0.324900  0.744500  0.693500  1.0
  N  N674  1  0.824900  0.693500  0.949000  1.0
  N  N675  1  0.675100  0.051000  0.744500  1.0
  N  N676  1  0.175100  0.744500  0.693500  1.0
  N  N677  1  0.675100  0.693500  0.949000  1.0
  N  N678  1  0.175100  0.949000  0.255500  1.0
  N  N679  1  0.675100  0.255500  0.306500  1.0
  N  N680  1  0.175100  0.306500  0.051000  1.0
  O  O681  1  0.493200  0.889500  0.444100  1.0
  O  O682  1  0.993200  0.444100  0.554600  1.0
  O  O683  1  0.493200  0.554600  0.110500  1.0
  O  O684  1  0.993200  0.110500  0.555900  1.0
  O  O685  1  0.493200  0.555900  0.445400  1.0
  O  O686  1  0.993200  0.445400  0.889500  1.0
  O  O687  1  0.506800  0.110500  0.555900  1.0
  O  O688  1  0.006800  0.555900  0.445400  1.0
  O  O689  1  0.506800  0.445400  0.889500  1.0
  O  O690  1  0.006800  0.889500  0.444100  1.0
  O  O691  1  0.506800  0.444100  0.554600  1.0
  O  O692  1  0.006800  0.554600  0.110500  1.0
  O  O693  1  0.481900  0.841500  0.318400  1.0
  O  O694  1  0.981900  0.318400  0.476900  1.0
  O  O695  1  0.481900  0.476900  0.158500  1.0
  O  O696  1  0.981900  0.158500  0.681600  1.0
  O  O697  1  0.481900  0.681600  0.523100  1.0
  O  O698  1  0.981900  0.523100  0.841500  1.0
  O  O699  1  0.518100  0.158500  0.681600  1.0
  O  O700  1  0.018100  0.681600  0.523100  1.0
  O  O701  1  0.518100  0.523100  0.841500  1.0
  O  O702  1  0.018100  0.841500  0.318400  1.0
  O  O703  1  0.518100  0.318400  0.476900  1.0
  O  O704  1  0.018100  0.476900  0.158500  1.0
  O  O705  1  0.525400  0.935900  0.362200  1.0
  O  O706  1  0.025400  0.362200  0.426300  1.0
  O  O707  1  0.525400  0.426300  0.064100  1.0
  O  O708  1  0.025400  0.064100  0.637800  1.0
  O  O709  1  0.525400  0.637800  0.573700  1.0
  O  O710  1  0.025400  0.573700  0.935900  1.0
  O  O711  1  0.474600  0.064100  0.637800  1.0
  O  O712  1  0.974600  0.637800  0.573700  1.0
  O  O713  1  0.474600  0.573700  0.935900  1.0
  O  O714  1  0.974600  0.935900  0.362200  1.0
  O  O715  1  0.474600  0.362200  0.426300  1.0
  O  O716  1  0.974600  0.426300  0.064100  1.0
  F  F717  1  0.250000  0.099400  0.365600  1
  F  F718  1  0.750000  0.365600  0.266200  1
  F  F719  1  0.250000  0.266200  0.900600  1
  F  F720  1  0.750000  0.900600  0.634400  1
  F  F721  1  0.250000  0.634400  0.733800  1
  F  F722  1  0.750000  0.733800  0.099400  1
  F  F723  1  0.250000  0.182900  0.462500  1
  F  F724  1  0.750000  0.462500  0.279600  1
  F  F725  1  0.250000  0.279600  0.817100  1
  F  F726  1  0.750000  0.817100  0.537500  1
  F  F727  1  0.250000  0.537500  0.720400  1
  F  F728  1  0.750000  0.720400  0.182900  1
  F  F729  1  0.250000  0.836500  0.105800  1
  F  F730  1  0.750000  0.105800  0.269300  1
  F  F731  1  0.250000  0.269300  0.163500  1
  F  F732  1  0.750000  0.163500  0.894200  1
  F  F733  1  0.250000  0.894200  0.730700  1
  F  F734  1  0.750000  0.730700  0.836500  1
  F  F735  1  0.250000  0.860200  0.032300  1
  F  F736  1  0.750000  0.032300  0.172100  1
  F  F737  1  0.250000  0.172100  0.139800  1
  F  F738  1  0.750000  0.139800  0.967700  1
  F  F739  1  0.250000  0.967700  0.827900  1
  F  F740  1  0.750000  0.827900  0.860200  1
  F  F741  1  0.425400  0.000000  0.000000  1
  F  F742  1  0.925400  0.000000  0.000000  1
  F  F743  1  0.574600  0.000000  0.000000  1
  F  F744  1  0.074600  0.000000  0.000000  1
  F  F745  1  0.518000  0.018400  0.059800  1
  F  F746  1  0.018000  0.059800  0.041400  1
  F  F747  1  0.518000  0.041400  0.981600  1
  F  F748  1  0.018000  0.981600  0.940200  1
  F  F749  1  0.518000  0.940200  0.958600  1
  F  F750  1  0.018000  0.958600  0.018400  1
  F  F751  1  0.482000  0.981600  0.940200  1
  F  F752  1  0.982000  0.940200  0.958600  1
  F  F753  1  0.482000  0.958600  0.018400  1
  F  F754  1  0.982000  0.018400  0.059800  1
  F  F755  1  0.482000  0.059800  0.041400  1
  F  F756  1  0.982000  0.041400  0.981600  1
  F  F757  1  0.304900  0.100200  0.446700  1.0
  F  F758  1  0.804900  0.446700  0.346500  1.0
  F  F759  1  0.304900  0.346500  0.899800  1.0
  F  F760  1  0.804900  0.899800  0.553300  1.0
  F  F761  1  0.304900  0.553300  0.653500  1.0
  F  F762  1  0.804900  0.653500  0.100200  1.0
  F  F763  1  0.695100  0.899800  0.553300  1.0
  F  F764  1  0.195100  0.553300  0.653500  1.0
  F  F765  1  0.695100  0.653500  0.100200  1.0
  F  F766  1  0.195100  0.100200  0.446700  1.0
  F  F767  1  0.695100  0.446700  0.346500  1.0
  F  F768  1  0.195100  0.346500  0.899800  1.0
  F  F769  1  0.300400  0.781600  0.026900  1.0
  F  F770  1  0.800400  0.026900  0.245300  1.0
  F  F771  1  0.300400  0.245300  0.218400  1.0
  F  F772  1  0.800400  0.218400  0.973100  1.0
  F  F773  1  0.300400  0.973100  0.754700  1.0
  F  F774  1  0.800400  0.754700  0.781600  1.0
  F  F775  1  0.699600  0.218400  0.973100  1.0
  F  F776  1  0.199600  0.973100  0.754700  1.0
  F  F777  1  0.699600  0.754700  0.781600  1.0
  F  F778  1  0.199600  0.781600  0.026900  1.0
  F  F779  1  0.699600  0.026900  0.245300  1.0
  F  F780  1  0.199600  0.245300  0.218400  1.0
