# generated using pymatgen
data_B7H150Pd3C177N18O18F35
_symmetry_space_group_name_H-M   'P 1'
_cell_length_a   20.52930000
_cell_length_b   25.21000000
_cell_length_c   25.21000000
_cell_angle_alpha   120.00000000
_cell_angle_beta   90.00000000
_cell_angle_gamma   90.00000000
_symmetry_Int_Tables_number   1
_chemical_formula_structural   B7H150Pd3C177N18O18F35
_chemical_formula_sum   'B14 H300 Pd6 C354 N36 O36 F70'
_cell_volume   11299.27202636
_cell_formula_units_Z   2
loop_
 _symmetry_equiv_pos_site_id
 _symmetry_equiv_pos_as_xyz
  1  'x, y, z'
loop_
 _atom_site_type_symbol
 _atom_site_label
 _atom_site_symmetry_multiplicity
 _atom_site_fract_x
 _atom_site_fract_y
 _atom_site_fract_z
 _atom_site_occupancy
  B  B1  1  0.750000  0.196500  0.215400  1
  B  B2  1  0.250000  0.215400  0.018900  1
  B  B3  1  0.750000  0.018900  0.803500  1
  B  B4  1  0.250000  0.803500  0.784600  1
  B  B5  1  0.750000  0.784600  0.981100  1
  B  B6  1  0.250000  0.981100  0.196500  1
  B  B7  1  0.750000  0.867800  0.315400  1
  B  B8  1  0.250000  0.315400  0.447600  1
  B  B9  1  0.750000  0.447600  0.132200  1
  B  B10  1  0.250000  0.132200  0.684600  1
  B  B11  1  0.750000  0.684600  0.552400  1
  B  B12  1  0.250000  0.552400  0.867800  1
  B  B13  1  0.000000  0.000000  0.000000  1
  B  B14  1  0.500000  0.000000  0.000000  1
  H  H15  1  0.750000  0.905200  0.183500  1.0
  H  H16  1  0.250000  0.183500  0.278300  1.0
  H  H17  1  0.750000  0.278300  0.094800  1.0
  H  H18  1  0.250000  0.094800  0.816500  1.0
  H  H19  1  0.750000  0.816500  0.721700  1.0
  H  H20  1  0.250000  0.721700  0.905200  1.0
  H  H21  1  0.750000  0.865000  0.110000  1.0
  H  H22  1  0.250000  0.110000  0.245000  1.0
  H  H23  1  0.750000  0.245000  0.135000  1.0
  H  H24  1  0.250000  0.135000  0.890000  1.0
  H  H25  1  0.750000  0.890000  0.755000  1.0
  H  H26  1  0.250000  0.755000  0.865000  1.0
  H  H27  1  0.858700  0.876100  0.063500  1.0
  H  H28  1  0.358700  0.063500  0.187400  1.0
  H  H29  1  0.858700  0.187400  0.123900  1.0
  H  H30  1  0.358700  0.123900  0.936500  1.0
  H  H31  1  0.858700  0.936500  0.812600  1.0
  H  H32  1  0.358700  0.812600  0.876100  1.0
  H  H33  1  0.141300  0.123900  0.936500  1.0
  H  H34  1  0.641300  0.936500  0.812600  1.0
  H  H35  1  0.141300  0.812600  0.876100  1.0
  H  H36  1  0.641300  0.876100  0.063500  1.0
  H  H37  1  0.141300  0.063500  0.187400  1.0
  H  H38  1  0.641300  0.187400  0.123900  1.0
  H  H39  1  0.929000  0.964200  0.086900  1.0
  H  H40  1  0.429000  0.086900  0.122700  1.0
  H  H41  1  0.929000  0.122700  0.035800  1.0
  H  H42  1  0.429000  0.035800  0.913100  1.0
  H  H43  1  0.929000  0.913100  0.877300  1.0
  H  H44  1  0.429000  0.877300  0.964200  1.0
  H  H45  1  0.071000  0.035800  0.913100  1.0
  H  H46  1  0.571000  0.913100  0.877300  1.0
  H  H47  1  0.071000  0.877300  0.964200  1.0
  H  H48  1  0.571000  0.964200  0.086900  1.0
  H  H49  1  0.071000  0.086900  0.122700  1.0
  H  H50  1  0.571000  0.122700  0.035800  1.0
  H  H51  1  0.856700  0.106900  0.206800  1.0
  H  H52  1  0.356700  0.206800  0.099900  1.0
  H  H53  1  0.856700  0.099900  0.893100  1.0
  H  H54  1  0.356700  0.893100  0.793200  1.0
  H  H55  1  0.856700  0.793200  0.900100  1.0
  H  H56  1  0.356700  0.900100  0.106900  1.0
  H  H57  1  0.143300  0.893100  0.793200  1.0
  H  H58  1  0.643300  0.793200  0.900100  1.0
  H  H59  1  0.143300  0.900100  0.106900  1.0
  H  H60  1  0.643300  0.106900  0.206800  1.0
  H  H61  1  0.143300  0.206800  0.099900  1.0
  H  H62  1  0.643300  0.099900  0.893100  1.0
  H  H63  1  0.905100  0.082800  0.149500  1.0
  H  H64  1  0.405100  0.149500  0.066700  1.0
  H  H65  1  0.905100  0.066700  0.917200  1.0
  H  H66  1  0.405100  0.917200  0.850500  1.0
  H  H67  1  0.905100  0.850500  0.933300  1.0
  H  H68  1  0.405100  0.933300  0.082800  1.0
  H  H69  1  0.094900  0.917200  0.850500  1.0
  H  H70  1  0.594900  0.850500  0.933300  1.0
  H  H71  1  0.094900  0.933300  0.082800  1.0
  H  H72  1  0.594900  0.082800  0.149500  1.0
  H  H73  1  0.094900  0.149500  0.066700  1.0
  H  H74  1  0.594900  0.066700  0.917200  1.0
  H  H75  1  0.976700  0.999300  0.196100  1.0
  H  H76  1  0.476700  0.196100  0.196800  1.0
  H  H77  1  0.976700  0.196800  0.000700  1.0
  H  H78  1  0.476700  0.000700  0.803900  1.0
  H  H79  1  0.976700  0.803900  0.803200  1.0
  H  H80  1  0.476700  0.803200  0.999300  1.0
  H  H81  1  0.023300  0.000700  0.803900  1.0
  H  H82  1  0.523300  0.803900  0.803200  1.0
  H  H83  1  0.023300  0.803200  0.999300  1.0
  H  H84  1  0.523300  0.999300  0.196100  1.0
  H  H85  1  0.023300  0.196100  0.196800  1.0
  H  H86  1  0.523300  0.196800  0.000700  1.0
  H  H87  1  0.064700  0.016300  0.255700  1.0
  H  H88  1  0.564700  0.255700  0.239400  1.0
  H  H89  1  0.064700  0.239400  0.983700  1.0
  H  H90  1  0.564700  0.983700  0.744300  1.0
  H  H91  1  0.064700  0.744300  0.760600  1.0
  H  H92  1  0.564700  0.760600  0.016300  1.0
  H  H93  1  0.935300  0.983700  0.744300  1.0
  H  H94  1  0.435300  0.744300  0.760600  1.0
  H  H95  1  0.935300  0.760600  0.016300  1.0
  H  H96  1  0.435300  0.016300  0.255700  1.0
  H  H97  1  0.935300  0.255700  0.239400  1.0
  H  H98  1  0.435300  0.239400  0.983700  1.0
  H  H99  1  0.146900  0.094200  0.336300  1.0
  H  H100  1  0.646900  0.336300  0.242100  1.0
  H  H101  1  0.146900  0.242100  0.905800  1.0
  H  H102  1  0.646900  0.905800  0.663700  1.0
  H  H103  1  0.146900  0.663700  0.757900  1.0
  H  H104  1  0.646900  0.757900  0.094200  1.0
  H  H105  1  0.853100  0.905800  0.663700  1.0
  H  H106  1  0.353100  0.663700  0.757900  1.0
  H  H107  1  0.853100  0.757900  0.094200  1.0
  H  H108  1  0.353100  0.094200  0.336300  1.0
  H  H109  1  0.853100  0.336300  0.242100  1.0
  H  H110  1  0.353100  0.242100  0.905800  1.0
  H  H111  1  0.175000  0.188300  0.399300  1.0
  H  H112  1  0.675000  0.399300  0.211000  1.0
  H  H113  1  0.175000  0.211000  0.811700  1.0
  H  H114  1  0.675000  0.811700  0.600700  1.0
  H  H115  1  0.175000  0.600700  0.789000  1.0
  H  H116  1  0.675000  0.789000  0.188300  1.0
  H  H117  1  0.825000  0.811700  0.600700  1.0
  H  H118  1  0.325000  0.600700  0.789000  1.0
  H  H119  1  0.825000  0.789000  0.188300  1.0
  H  H120  1  0.325000  0.188300  0.399300  1.0
  H  H121  1  0.825000  0.399300  0.211000  1.0
  H  H122  1  0.325000  0.211000  0.811700  1.0
  H  H123  1  0.106000  0.274500  0.410300  1.0
  H  H124  1  0.606000  0.410300  0.135800  1.0
  H  H125  1  0.106000  0.135800  0.725500  1.0
  H  H126  1  0.606000  0.725500  0.589700  1.0
  H  H127  1  0.106000  0.589700  0.864200  1.0
  H  H128  1  0.606000  0.864200  0.274500  1.0
  H  H129  1  0.894000  0.725500  0.589700  1.0
  H  H130  1  0.394000  0.589700  0.864200  1.0
  H  H131  1  0.894000  0.864200  0.274500  1.0
  H  H132  1  0.394000  0.274500  0.410300  1.0
  H  H133  1  0.894000  0.410300  0.135800  1.0
  H  H134  1  0.394000  0.135800  0.725500  1.0
  H  H135  1  0.012900  0.253400  0.356200  1.0
  H  H136  1  0.512900  0.356200  0.102800  1.0
  H  H137  1  0.012900  0.102800  0.746600  1.0
  H  H138  1  0.512900  0.746600  0.643800  1.0
  H  H139  1  0.012900  0.643800  0.897200  1.0
  H  H140  1  0.512900  0.897200  0.253400  1.0
  H  H141  1  0.987100  0.746600  0.643800  1.0
  H  H142  1  0.487100  0.643800  0.897200  1.0
  H  H143  1  0.987100  0.897200  0.253400  1.0
  H  H144  1  0.487100  0.253400  0.356200  1.0
  H  H145  1  0.987100  0.356200  0.102800  1.0
  H  H146  1  0.487100  0.102800  0.746600  1.0
  H  H147  1  0.939200  0.176800  0.270500  1.0
  H  H148  1  0.439200  0.270500  0.093700  1.0
  H  H149  1  0.939200  0.093700  0.823200  1.0
  H  H150  1  0.439200  0.823200  0.729500  1.0
  H  H151  1  0.939200  0.729500  0.906300  1.0
  H  H152  1  0.439200  0.906300  0.176800  1.0
  H  H153  1  0.060800  0.823200  0.729500  1.0
  H  H154  1  0.560800  0.729500  0.906300  1.0
  H  H155  1  0.060800  0.906300  0.176800  1.0
  H  H156  1  0.560800  0.176800  0.270500  1.0
  H  H157  1  0.060800  0.270500  0.093700  1.0
  H  H158  1  0.560800  0.093700  0.823200  1.0
  H  H159  1  0.304800  0.294400  0.676100  1.0
  H  H160  1  0.804800  0.676100  0.381700  1.0
  H  H161  1  0.304800  0.381700  0.705600  1.0
  H  H162  1  0.804800  0.705600  0.323900  1.0
  H  H163  1  0.304800  0.323900  0.618300  1.0
  H  H164  1  0.804800  0.618300  0.294400  1.0
  H  H165  1  0.695200  0.705600  0.323900  1.0
  H  H166  1  0.195200  0.323900  0.618300  1.0
  H  H167  1  0.695200  0.618300  0.294400  1.0
  H  H168  1  0.195200  0.294400  0.676100  1.0
  H  H169  1  0.695200  0.676100  0.381700  1.0
  H  H170  1  0.195200  0.381700  0.705600  1.0
  H  H171  1  0.324400  0.240200  0.689200  1.0
  H  H172  1  0.824400  0.689200  0.449000  1.0
  H  H173  1  0.324400  0.449000  0.759800  1.0
  H  H174  1  0.824400  0.759800  0.310800  1.0
  H  H175  1  0.324400  0.310800  0.551000  1.0
  H  H176  1  0.824400  0.551000  0.240200  1.0
  H  H177  1  0.675600  0.759800  0.310800  1.0
  H  H178  1  0.175600  0.310800  0.551000  1.0
  H  H179  1  0.675600  0.551000  0.240200  1.0
  H  H180  1  0.175600  0.240200  0.689200  1.0
  H  H181  1  0.675600  0.689200  0.449000  1.0
  H  H182  1  0.175600  0.449000  0.759800  1.0
  H  H183  1  0.431500  0.182600  0.641500  1.0
  H  H184  1  0.931500  0.641500  0.458900  1.0
  H  H185  1  0.431500  0.458900  0.817400  1.0
  H  H186  1  0.931500  0.817400  0.358500  1.0
  H  H187  1  0.431500  0.358500  0.541100  1.0
  H  H188  1  0.931500  0.541100  0.182600  1.0
  H  H189  1  0.568500  0.817400  0.358500  1.0
  H  H190  1  0.068500  0.358500  0.541100  1.0
  H  H191  1  0.568500  0.541100  0.182600  1.0
  H  H192  1  0.068500  0.182600  0.641500  1.0
  H  H193  1  0.568500  0.641500  0.458900  1.0
  H  H194  1  0.068500  0.458900  0.817400  1.0
  H  H195  1  0.426300  0.251000  0.504100  1.0
  H  H196  1  0.926300  0.504100  0.253100  1.0
  H  H197  1  0.426300  0.253100  0.749000  1.0
  H  H198  1  0.926300  0.749000  0.495900  1.0
  H  H199  1  0.426300  0.495900  0.746900  1.0
  H  H200  1  0.926300  0.746900  0.251000  1.0
  H  H201  1  0.573700  0.749000  0.495900  1.0
  H  H202  1  0.073700  0.495900  0.746900  1.0
  H  H203  1  0.573700  0.746900  0.251000  1.0
  H  H204  1  0.073700  0.251000  0.504100  1.0
  H  H205  1  0.573700  0.504100  0.253100  1.0
  H  H206  1  0.073700  0.253100  0.749000  1.0
  H  H207  1  0.569800  0.075700  0.395100  1.0
  H  H208  1  0.069800  0.395100  0.319400  1.0
  H  H209  1  0.569800  0.319400  0.924300  1.0
  H  H210  1  0.069800  0.924300  0.604900  1.0
  H  H211  1  0.569800  0.604900  0.680600  1.0
  H  H212  1  0.069800  0.680600  0.075700  1.0
  H  H213  1  0.430200  0.924300  0.604900  1.0
  H  H214  1  0.930200  0.604900  0.680600  1.0
  H  H215  1  0.430200  0.680600  0.075700  1.0
  H  H216  1  0.930200  0.075700  0.395100  1.0
  H  H217  1  0.430200  0.395100  0.319400  1.0
  H  H218  1  0.930200  0.319400  0.924300  1.0
  H  H219  1  0.696800  0.175100  0.322000  1.0
  H  H220  1  0.196800  0.322000  0.146900  1.0
  H  H221  1  0.696800  0.146900  0.824900  1.0
  H  H222  1  0.196800  0.824900  0.678000  1.0
  H  H223  1  0.696800  0.678000  0.853100  1.0
  H  H224  1  0.196800  0.853100  0.175100  1.0
  H  H225  1  0.303200  0.824900  0.678000  1.0
  H  H226  1  0.803200  0.678000  0.853100  1.0
  H  H227  1  0.303200  0.853100  0.175100  1.0
  H  H228  1  0.803200  0.175100  0.322000  1.0
  H  H229  1  0.303200  0.322000  0.146900  1.0
  H  H230  1  0.803200  0.146900  0.824900  1.0
  H  H231  1  0.631900  0.232200  0.406600  1.0
  H  H232  1  0.131900  0.406600  0.174400  1.0
  H  H233  1  0.631900  0.174400  0.767800  1.0
  H  H234  1  0.131900  0.767800  0.593400  1.0
  H  H235  1  0.631900  0.593400  0.825600  1.0
  H  H236  1  0.131900  0.825600  0.232200  1.0
  H  H237  1  0.368100  0.767800  0.593400  1.0
  H  H238  1  0.868100  0.593400  0.825600  1.0
  H  H239  1  0.368100  0.825600  0.232200  1.0
  H  H240  1  0.868100  0.232200  0.406600  1.0
  H  H241  1  0.368100  0.406600  0.174400  1.0
  H  H242  1  0.868100  0.174400  0.767800  1.0
  H  H243  1  0.679900  0.982400  0.274400  1.0
  H  H244  1  0.179900  0.274400  0.292000  1.0
  H  H245  1  0.679900  0.292000  0.017600  1.0
  H  H246  1  0.179900  0.017600  0.725600  1.0
  H  H247  1  0.679900  0.725600  0.708000  1.0
  H  H248  1  0.179900  0.708000  0.982400  1.0
  H  H249  1  0.320100  0.017600  0.725600  1.0
  H  H250  1  0.820100  0.725600  0.708000  1.0
  H  H251  1  0.320100  0.708000  0.982400  1.0
  H  H252  1  0.820100  0.982400  0.274400  1.0
  H  H253  1  0.320100  0.274400  0.292000  1.0
  H  H254  1  0.820100  0.292000  0.017600  1.0
  H  H255  1  0.604100  0.979400  0.287600  1.0
  H  H256  1  0.104100  0.287600  0.308200  1.0
  H  H257  1  0.604100  0.308200  0.020600  1.0
  H  H258  1  0.104100  0.020600  0.712400  1.0
  H  H259  1  0.604100  0.712400  0.691800  1.0
  H  H260  1  0.104100  0.691800  0.979400  1.0
  H  H261  1  0.395900  0.020600  0.712400  1.0
  H  H262  1  0.895900  0.712400  0.691800  1.0
  H  H263  1  0.395900  0.691800  0.979400  1.0
  H  H264  1  0.895900  0.979400  0.287600  1.0
  H  H265  1  0.395900  0.287600  0.308200  1.0
  H  H266  1  0.895900  0.308200  0.020600  1.0
  H  H267  1  0.657300  0.986700  0.337200  1.0
  H  H268  1  0.157300  0.337200  0.350500  1.0
  H  H269  1  0.657300  0.350500  0.013300  1.0
  H  H270  1  0.157300  0.013300  0.662800  1.0
  H  H271  1  0.657300  0.662800  0.649500  1.0
  H  H272  1  0.157300  0.649500  0.986700  1.0
  H  H273  1  0.342700  0.013300  0.662800  1.0
  H  H274  1  0.842700  0.662800  0.649500  1.0
  H  H275  1  0.342700  0.649500  0.986700  1.0
  H  H276  1  0.842700  0.986700  0.337200  1.0
  H  H277  1  0.342700  0.337200  0.350500  1.0
  H  H278  1  0.842700  0.350500  0.013300  1.0
  H  H279  1  0.511500  0.054100  0.577000  1.0
  H  H280  1  0.011500  0.577000  0.522900  1.0
  H  H281  1  0.511500  0.522900  0.945900  1.0
  H  H282  1  0.011500  0.945900  0.423000  1.0
  H  H283  1  0.511500  0.423000  0.477100  1.0
  H  H284  1  0.011500  0.477100  0.054100  1.0
  H  H285  1  0.488500  0.945900  0.423000  1.0
  H  H286  1  0.988500  0.423000  0.477100  1.0
  H  H287  1  0.488500  0.477100  0.054100  1.0
  H  H288  1  0.988500  0.054100  0.577000  1.0
  H  H289  1  0.488500  0.577000  0.522900  1.0
  H  H290  1  0.988500  0.522900  0.945900  1.0
  H  H291  1  0.438000  0.075800  0.577900  1.0
  H  H292  1  0.938000  0.577900  0.502100  1.0
  H  H293  1  0.438000  0.502100  0.924200  1.0
  H  H294  1  0.938000  0.924200  0.422100  1.0
  H  H295  1  0.438000  0.422100  0.497900  1.0
  H  H296  1  0.938000  0.497900  0.075800  1.0
  H  H297  1  0.562000  0.924200  0.422100  1.0
  H  H298  1  0.062000  0.422100  0.497900  1.0
  H  H299  1  0.562000  0.497900  0.075800  1.0
  H  H300  1  0.062000  0.075800  0.577900  1.0
  H  H301  1  0.562000  0.577900  0.502100  1.0
  H  H302  1  0.062000  0.502100  0.924200  1.0
  H  H303  1  0.487600  0.119400  0.631000  1.0
  H  H304  1  0.987600  0.631000  0.511600  1.0
  H  H305  1  0.487600  0.511600  0.880600  1.0
  H  H306  1  0.987600  0.880600  0.369000  1.0
  H  H307  1  0.487600  0.369000  0.488400  1.0
  H  H308  1  0.987600  0.488400  0.119400  1.0
  H  H309  1  0.512400  0.880600  0.369000  1.0
  H  H310  1  0.012400  0.369000  0.488400  1.0
  H  H311  1  0.512400  0.488400  0.119400  1.0
  H  H312  1  0.012400  0.119400  0.631000  1.0
  H  H313  1  0.512400  0.631000  0.511600  1.0
  H  H314  1  0.012400  0.511600  0.880600  1.0
  Pd  Pd315  1  0.750000  0.047870  0.245900  1.0
  Pd  Pd316  1  0.250000  0.245900  0.198030  1.0
  Pd  Pd317  1  0.750000  0.198030  0.952130  1.0
  Pd  Pd318  1  0.250000  0.952130  0.754100  1.0
  Pd  Pd319  1  0.750000  0.754100  0.801970  1.0
  Pd  Pd320  1  0.250000  0.801970  0.047870  1.0
  C  C321  1  0.750000  0.907300  0.145400  1.0
  C  C322  1  0.250000  0.145400  0.238100  1.0
  C  C323  1  0.750000  0.238100  0.092700  1.0
  C  C324  1  0.250000  0.092700  0.854600  1.0
  C  C325  1  0.750000  0.854600  0.761900  1.0
  C  C326  1  0.250000  0.761900  0.907300  1.0
  C  C327  1  0.813600  0.000100  0.180200  1.0
  C  C328  1  0.313600  0.180200  0.180100  1.0
  C  C329  1  0.813600  0.180100  0.999900  1.0
  C  C330  1  0.313600  0.999900  0.819800  1.0
  C  C331  1  0.813600  0.819800  0.819900  1.0
  C  C332  1  0.313600  0.819900  0.000100  1.0
  C  C333  1  0.186400  0.999900  0.819800  1.0
  C  C334  1  0.686400  0.819800  0.819900  1.0
  C  C335  1  0.186400  0.819900  0.000100  1.0
  C  C336  1  0.686400  0.000100  0.180200  1.0
  C  C337  1  0.186400  0.180200  0.180100  1.0
  C  C338  1  0.686400  0.180100  0.999900  1.0
  C  C339  1  0.854400  0.916900  0.096400  1.0
  C  C340  1  0.354400  0.096400  0.179500  1.0
  C  C341  1  0.854400  0.179500  0.083100  1.0
  C  C342  1  0.354400  0.083100  0.903600  1.0
  C  C343  1  0.854400  0.903600  0.820500  1.0
  C  C344  1  0.354400  0.820500  0.916900  1.0
  C  C345  1  0.145600  0.083100  0.903600  1.0
  C  C346  1  0.645600  0.903600  0.820500  1.0
  C  C347  1  0.145600  0.820500  0.916900  1.0
  C  C348  1  0.645600  0.916900  0.096400  1.0
  C  C349  1  0.145600  0.096400  0.179500  1.0
  C  C350  1  0.645600  0.179500  0.083100  1.0
  C  C351  1  0.891100  0.965000  0.109000  1.0
  C  C352  1  0.391100  0.109000  0.144000  1.0
  C  C353  1  0.891100  0.144000  0.035000  1.0
  C  C354  1  0.391100  0.035000  0.891000  1.0
  C  C355  1  0.891100  0.891000  0.856000  1.0
  C  C356  1  0.391100  0.856000  0.965000  1.0
  C  C357  1  0.108900  0.035000  0.891000  1.0
  C  C358  1  0.608900  0.891000  0.856000  1.0
  C  C359  1  0.108900  0.856000  0.965000  1.0
  C  C360  1  0.608900  0.965000  0.109000  1.0
  C  C361  1  0.108900  0.109000  0.144000  1.0
  C  C362  1  0.608900  0.144000  0.035000  1.0
  C  C363  1  0.891300  0.076700  0.183700  1.0
  C  C364  1  0.391300  0.183700  0.107000  1.0
  C  C365  1  0.891300  0.107000  0.923300  1.0
  C  C366  1  0.391300  0.923300  0.816300  1.0
  C  C367  1  0.891300  0.816300  0.893000  1.0
  C  C368  1  0.391300  0.893000  0.076700  1.0
  C  C369  1  0.108700  0.923300  0.816300  1.0
  C  C370  1  0.608700  0.816300  0.893000  1.0
  C  C371  1  0.108700  0.893000  0.076700  1.0
  C  C372  1  0.608700  0.076700  0.183700  1.0
  C  C373  1  0.108700  0.183700  0.107000  1.0
  C  C374  1  0.608700  0.107000  0.923300  1.0
  C  C375  1  0.950700  0.088700  0.227200  1.0
  C  C376  1  0.450700  0.227200  0.138500  1.0
  C  C377  1  0.950700  0.138500  0.911300  1.0
  C  C378  1  0.450700  0.911300  0.772800  1.0
  C  C379  1  0.950700  0.772800  0.861500  1.0
  C  C380  1  0.450700  0.861500  0.088700  1.0
  C  C381  1  0.049300  0.911300  0.772800  1.0
  C  C382  1  0.549300  0.772800  0.861500  1.0
  C  C383  1  0.049300  0.861500  0.088700  1.0
  C  C384  1  0.549300  0.088700  0.227200  1.0
  C  C385  1  0.049300  0.227200  0.138500  1.0
  C  C386  1  0.549300  0.138500  0.911300  1.0
  C  C387  1  0.988900  0.040300  0.224300  1.0
  C  C388  1  0.488900  0.224300  0.184000  1.0
  C  C389  1  0.988900  0.184000  0.959700  1.0
  C  C390  1  0.488900  0.959700  0.775700  1.0
  C  C391  1  0.988900  0.775700  0.816000  1.0
  C  C392  1  0.488900  0.816000  0.040300  1.0
  C  C393  1  0.011100  0.959700  0.775700  1.0
  C  C394  1  0.511100  0.775700  0.816000  1.0
  C  C395  1  0.011100  0.816000  0.040300  1.0
  C  C396  1  0.511100  0.040300  0.224300  1.0
  C  C397  1  0.011100  0.224300  0.184000  1.0
  C  C398  1  0.511100  0.184000  0.959700  1.0
  C  C399  1  0.040400  0.049900  0.259000  1.0
  C  C400  1  0.540400  0.259000  0.209100  1.0
  C  C401  1  0.040400  0.209100  0.950100  1.0
  C  C402  1  0.540400  0.950100  0.741000  1.0
  C  C403  1  0.040400  0.741000  0.790900  1.0
  C  C404  1  0.540400  0.790900  0.049900  1.0
  C  C405  1  0.959600  0.950100  0.741000  1.0
  C  C406  1  0.459600  0.741000  0.790900  1.0
  C  C407  1  0.959600  0.790900  0.049900  1.0
  C  C408  1  0.459600  0.049900  0.259000  1.0
  C  C409  1  0.959600  0.259000  0.209100  1.0
  C  C410  1  0.459600  0.209100  0.950100  1.0
  C  C411  1  0.059000  0.109900  0.300700  1.0
  C  C412  1  0.559000  0.300700  0.190800  1.0
  C  C413  1  0.059000  0.190800  0.890100  1.0
  C  C414  1  0.559000  0.890100  0.699300  1.0
  C  C415  1  0.059000  0.699300  0.809200  1.0
  C  C416  1  0.559000  0.809200  0.109900  1.0
  C  C417  1  0.941000  0.890100  0.699300  1.0
  C  C418  1  0.441000  0.699300  0.809200  1.0
  C  C419  1  0.941000  0.809200  0.109900  1.0
  C  C420  1  0.441000  0.109900  0.300700  1.0
  C  C421  1  0.941000  0.300700  0.190800  1.0
  C  C422  1  0.441000  0.190800  0.890100  1.0
  C  C423  1  0.119900  0.126400  0.339700  1.0
  C  C424  1  0.619900  0.339700  0.213300  1.0
  C  C425  1  0.119900  0.213300  0.873600  1.0
  C  C426  1  0.619900  0.873600  0.660300  1.0
  C  C427  1  0.119900  0.660300  0.786700  1.0
  C  C428  1  0.619900  0.786700  0.126400  1.0
  C  C429  1  0.880100  0.873600  0.660300  1.0
  C  C430  1  0.380100  0.660300  0.786700  1.0
  C  C431  1  0.880100  0.786700  0.126400  1.0
  C  C432  1  0.380100  0.126400  0.339700  1.0
  C  C433  1  0.880100  0.339700  0.213300  1.0
  C  C434  1  0.380100  0.213300  0.873600  1.0
  C  C435  1  0.136200  0.180200  0.376000  1.0
  C  C436  1  0.636200  0.376000  0.195800  1.0
  C  C437  1  0.136200  0.195800  0.819800  1.0
  C  C438  1  0.636200  0.819800  0.624000  1.0
  C  C439  1  0.136200  0.624000  0.804200  1.0
  C  C440  1  0.636200  0.804200  0.180200  1.0
  C  C441  1  0.863800  0.819800  0.624000  1.0
  C  C442  1  0.363800  0.624000  0.804200  1.0
  C  C443  1  0.863800  0.804200  0.180200  1.0
  C  C444  1  0.363800  0.180200  0.376000  1.0
  C  C445  1  0.863800  0.376000  0.195800  1.0
  C  C446  1  0.363800  0.195800  0.819800  1.0
  C  C447  1  0.093800  0.233200  0.383000  1.0
  C  C448  1  0.593800  0.383000  0.149800  1.0
  C  C449  1  0.093800  0.149800  0.766800  1.0
  C  C450  1  0.593800  0.766800  0.617000  1.0
  C  C451  1  0.093800  0.617000  0.850200  1.0
  C  C452  1  0.593800  0.850200  0.233200  1.0
  C  C453  1  0.906200  0.766800  0.617000  1.0
  C  C454  1  0.406200  0.617000  0.850200  1.0
  C  C455  1  0.906200  0.850200  0.233200  1.0
  C  C456  1  0.406200  0.233200  0.383000  1.0
  C  C457  1  0.906200  0.383000  0.149800  1.0
  C  C458  1  0.406200  0.149800  0.766800  1.0
  C  C459  1  0.040200  0.220600  0.350600  1.0
  C  C460  1  0.540200  0.350600  0.130000  1.0
  C  C461  1  0.040200  0.130000  0.779400  1.0
  C  C462  1  0.540200  0.779400  0.649400  1.0
  C  C463  1  0.040200  0.649400  0.870000  1.0
  C  C464  1  0.540200  0.870000  0.220600  1.0
  C  C465  1  0.959800  0.779400  0.649400  1.0
  C  C466  1  0.459800  0.649400  0.870000  1.0
  C  C467  1  0.959800  0.870000  0.220600  1.0
  C  C468  1  0.459800  0.220600  0.350600  1.0
  C  C469  1  0.959800  0.350600  0.130000  1.0
  C  C470  1  0.459800  0.130000  0.779400  1.0
  C  C471  1  0.022200  0.161400  0.308700  1.0
  C  C472  1  0.522200  0.308700  0.147300  1.0
  C  C473  1  0.022200  0.147300  0.838600  1.0
  C  C474  1  0.522200  0.838600  0.691300  1.0
  C  C475  1  0.022200  0.691300  0.852700  1.0
  C  C476  1  0.522200  0.852700  0.161400  1.0
  C  C477  1  0.977800  0.838600  0.691300  1.0
  C  C478  1  0.477800  0.691300  0.852700  1.0
  C  C479  1  0.977800  0.852700  0.161400  1.0
  C  C480  1  0.477800  0.161400  0.308700  1.0
  C  C481  1  0.977800  0.308700  0.147300  1.0
  C  C482  1  0.477800  0.147300  0.838600  1.0
  C  C483  1  0.966000  0.144800  0.267600  1.0
  C  C484  1  0.466000  0.267600  0.122800  1.0
  C  C485  1  0.966000  0.122800  0.855200  1.0
  C  C486  1  0.466000  0.855200  0.732400  1.0
  C  C487  1  0.966000  0.732400  0.877200  1.0
  C  C488  1  0.466000  0.877200  0.144800  1.0
  C  C489  1  0.034000  0.855200  0.732400  1.0
  C  C490  1  0.534000  0.732400  0.877200  1.0
  C  C491  1  0.034000  0.877200  0.144800  1.0
  C  C492  1  0.534000  0.144800  0.267600  1.0
  C  C493  1  0.034000  0.267600  0.122800  1.0
  C  C494  1  0.534000  0.122800  0.855200  1.0
  C  C495  1  0.341800  0.272300  0.681400  1.0
  C  C496  1  0.841800  0.681400  0.409100  1.0
  C  C497  1  0.341800  0.409100  0.727700  1.0
  C  C498  1  0.841800  0.727700  0.318600  1.0
  C  C499  1  0.341800  0.318600  0.590900  1.0
  C  C500  1  0.841800  0.590900  0.272300  1.0
  C  C501  1  0.658200  0.727700  0.318600  1.0
  C  C502  1  0.158200  0.318600  0.590900  1.0
  C  C503  1  0.658200  0.590900  0.272300  1.0
  C  C504  1  0.158200  0.272300  0.681400  1.0
  C  C505  1  0.658200  0.681400  0.409100  1.0
  C  C506  1  0.158200  0.409100  0.727700  1.0
  C  C507  1  0.386100  0.264200  0.582000  1.0
  C  C508  1  0.886100  0.582000  0.317800  1.0
  C  C509  1  0.386100  0.317800  0.735800  1.0
  C  C510  1  0.886100  0.735800  0.418000  1.0
  C  C511  1  0.386100  0.418000  0.682200  1.0
  C  C512  1  0.886100  0.682200  0.264200  1.0
  C  C513  1  0.613900  0.735800  0.418000  1.0
  C  C514  1  0.113900  0.418000  0.682200  1.0
  C  C515  1  0.613900  0.682200  0.264200  1.0
  C  C516  1  0.113900  0.264200  0.582000  1.0
  C  C517  1  0.613900  0.582000  0.317800  1.0
  C  C518  1  0.113900  0.317800  0.735800  1.0
  C  C519  1  0.386900  0.242700  0.622000  1.0
  C  C520  1  0.886900  0.622000  0.379300  1.0
  C  C521  1  0.386900  0.379300  0.757300  1.0
  C  C522  1  0.886900  0.757300  0.378000  1.0
  C  C523  1  0.386900  0.378000  0.620700  1.0
  C  C524  1  0.886900  0.620700  0.242700  1.0
  C  C525  1  0.613100  0.757300  0.378000  1.0
  C  C526  1  0.113100  0.378000  0.620700  1.0
  C  C527  1  0.613100  0.620700  0.242700  1.0
  C  C528  1  0.113100  0.242700  0.622000  1.0
  C  C529  1  0.613100  0.622000  0.379300  1.0
  C  C530  1  0.113100  0.379300  0.757300  1.0
  C  C531  1  0.429300  0.195700  0.612200  1.0
  C  C532  1  0.929300  0.612200  0.416500  1.0
  C  C533  1  0.429300  0.416500  0.804300  1.0
  C  C534  1  0.929300  0.804300  0.387800  1.0
  C  C535  1  0.429300  0.387800  0.583500  1.0
  C  C536  1  0.929300  0.583500  0.195700  1.0
  C  C537  1  0.570700  0.804300  0.387800  1.0
  C  C538  1  0.070700  0.387800  0.583500  1.0
  C  C539  1  0.570700  0.583500  0.195700  1.0
  C  C540  1  0.070700  0.195700  0.612200  1.0
  C  C541  1  0.570700  0.612200  0.416500  1.0
  C  C542  1  0.070700  0.416500  0.804300  1.0
  C  C543  1  0.466900  0.168600  0.562500  1.0
  C  C544  1  0.966900  0.562500  0.393900  1.0
  C  C545  1  0.466900  0.393900  0.831400  1.0
  C  C546  1  0.966900  0.831400  0.437500  1.0
  C  C547  1  0.466900  0.437500  0.606100  1.0
  C  C548  1  0.966900  0.606100  0.168600  1.0
  C  C549  1  0.533100  0.831400  0.437500  1.0
  C  C550  1  0.033100  0.437500  0.606100  1.0
  C  C551  1  0.533100  0.606100  0.168600  1.0
  C  C552  1  0.033100  0.168600  0.562500  1.0
  C  C553  1  0.533100  0.562500  0.393900  1.0
  C  C554  1  0.033100  0.393900  0.831400  1.0
  C  C555  1  0.465900  0.191100  0.523100  1.0
  C  C556  1  0.965900  0.523100  0.332000  1.0
  C  C557  1  0.465900  0.332000  0.808900  1.0
  C  C558  1  0.965900  0.808900  0.476900  1.0
  C  C559  1  0.465900  0.476900  0.668000  1.0
  C  C560  1  0.965900  0.668000  0.191100  1.0
  C  C561  1  0.534100  0.808900  0.476900  1.0
  C  C562  1  0.034100  0.476900  0.668000  1.0
  C  C563  1  0.534100  0.668000  0.191100  1.0
  C  C564  1  0.034100  0.191100  0.523100  1.0
  C  C565  1  0.534100  0.523100  0.332000  1.0
  C  C566  1  0.034100  0.332000  0.808900  1.0
  C  C567  1  0.426400  0.236900  0.532700  1.0
  C  C568  1  0.926400  0.532700  0.295800  1.0
  C  C569  1  0.426400  0.295800  0.763100  1.0
  C  C570  1  0.926400  0.763100  0.467300  1.0
  C  C571  1  0.426400  0.467300  0.704200  1.0
  C  C572  1  0.926400  0.704200  0.236900  1.0
  C  C573  1  0.573600  0.763100  0.467300  1.0
  C  C574  1  0.073600  0.467300  0.704200  1.0
  C  C575  1  0.573600  0.704200  0.236900  1.0
  C  C576  1  0.073600  0.236900  0.532700  1.0
  C  C577  1  0.573600  0.532700  0.295800  1.0
  C  C578  1  0.073600  0.295800  0.763100  1.0
  C  C579  1  0.552300  0.197800  0.468500  1.0
  C  C580  1  0.052300  0.468500  0.270700  1.0
  C  C581  1  0.552300  0.270700  0.802200  1.0
  C  C582  1  0.052300  0.802200  0.531500  1.0
  C  C583  1  0.552300  0.531500  0.729300  1.0
  C  C584  1  0.052300  0.729300  0.197800  1.0
  C  C585  1  0.447700  0.802200  0.531500  1.0
  C  C586  1  0.947700  0.531500  0.729300  1.0
  C  C587  1  0.447700  0.729300  0.197800  1.0
  C  C588  1  0.947700  0.197800  0.468500  1.0
  C  C589  1  0.447700  0.468500  0.270700  1.0
  C  C590  1  0.947700  0.270700  0.802200  1.0
  C  C591  1  0.594300  0.160300  0.410900  1.0
  C  C592  1  0.094300  0.410900  0.250600  1.0
  C  C593  1  0.594300  0.250600  0.839700  1.0
  C  C594  1  0.094300  0.839700  0.589100  1.0
  C  C595  1  0.594300  0.589100  0.749400  1.0
  C  C596  1  0.094300  0.749400  0.160300  1.0
  C  C597  1  0.405700  0.839700  0.589100  1.0
  C  C598  1  0.905700  0.589100  0.749400  1.0
  C  C599  1  0.405700  0.749400  0.160300  1.0
  C  C600  1  0.905700  0.160300  0.410900  1.0
  C  C601  1  0.405700  0.410900  0.250600  1.0
  C  C602  1  0.905700  0.250600  0.839700  1.0
  C  C603  1  0.597800  0.097100  0.382200  1.0
  C  C604  1  0.097800  0.382200  0.285100  1.0
  C  C605  1  0.597800  0.285100  0.902900  1.0
  C  C606  1  0.097800  0.902900  0.617800  1.0
  C  C607  1  0.597800  0.617800  0.714900  1.0
  C  C608  1  0.097800  0.714900  0.097100  1.0
  C  C609  1  0.402200  0.902900  0.617800  1.0
  C  C610  1  0.902200  0.617800  0.714900  1.0
  C  C611  1  0.402200  0.714900  0.097100  1.0
  C  C612  1  0.902200  0.097100  0.382200  1.0
  C  C613  1  0.402200  0.382200  0.285100  1.0
  C  C614  1  0.902200  0.285100  0.902900  1.0
  C  C615  1  0.641700  0.064600  0.335000  1.0
  C  C616  1  0.141700  0.335000  0.270400  1.0
  C  C617  1  0.641700  0.270400  0.935400  1.0
  C  C618  1  0.141700  0.935400  0.665000  1.0
  C  C619  1  0.641700  0.665000  0.729600  1.0
  C  C620  1  0.141700  0.729600  0.064600  1.0
  C  C621  1  0.358300  0.935400  0.665000  1.0
  C  C622  1  0.858300  0.665000  0.729600  1.0
  C  C623  1  0.358300  0.729600  0.064600  1.0
  C  C624  1  0.858300  0.064600  0.335000  1.0
  C  C625  1  0.358300  0.335000  0.270400  1.0
  C  C626  1  0.858300  0.270400  0.935400  1.0
  C  C627  1  0.672700  0.155000  0.339000  1.0
  C  C628  1  0.172700  0.339000  0.184000  1.0
  C  C629  1  0.672700  0.184000  0.845000  1.0
  C  C630  1  0.172700  0.845000  0.661000  1.0
  C  C631  1  0.672700  0.661000  0.816000  1.0
  C  C632  1  0.172700  0.816000  0.155000  1.0
  C  C633  1  0.327300  0.845000  0.661000  1.0
  C  C634  1  0.827300  0.661000  0.816000  1.0
  C  C635  1  0.327300  0.816000  0.155000  1.0
  C  C636  1  0.827300  0.155000  0.339000  1.0
  C  C637  1  0.327300  0.339000  0.184000  1.0
  C  C638  1  0.827300  0.184000  0.845000  1.0
  C  C639  1  0.632900  0.188900  0.388200  1.0
  C  C640  1  0.132900  0.388200  0.199300  1.0
  C  C641  1  0.632900  0.199300  0.811100  1.0
  C  C642  1  0.132900  0.811100  0.611800  1.0
  C  C643  1  0.632900  0.611800  0.800700  1.0
  C  C644  1  0.132900  0.800700  0.188900  1.0
  C  C645  1  0.367100  0.811100  0.611800  1.0
  C  C646  1  0.867100  0.611800  0.800700  1.0
  C  C647  1  0.367100  0.800700  0.188900  1.0
  C  C648  1  0.867100  0.188900  0.388200  1.0
  C  C649  1  0.367100  0.388200  0.199300  1.0
  C  C650  1  0.867100  0.199300  0.811100  1.0
  C  C651  1  0.646100  0.997700  0.306100  1.0
  C  C652  1  0.146100  0.306100  0.308400  1.0
  C  C653  1  0.646100  0.308400  0.002300  1.0
  C  C654  1  0.146100  0.002300  0.693900  1.0
  C  C655  1  0.646100  0.693900  0.691600  1.0
  C  C656  1  0.146100  0.691600  0.997700  1.0
  C  C657  1  0.353900  0.002300  0.693900  1.0
  C  C658  1  0.853900  0.693900  0.691600  1.0
  C  C659  1  0.353900  0.691600  0.997700  1.0
  C  C660  1  0.853900  0.997700  0.306100  1.0
  C  C661  1  0.353900  0.306100  0.308400  1.0
  C  C662  1  0.853900  0.308400  0.002300  1.0
  C  C663  1  0.483400  0.089400  0.587300  1.0
  C  C664  1  0.983400  0.587300  0.497900  1.0
  C  C665  1  0.483400  0.497900  0.910600  1.0
  C  C666  1  0.983400  0.910600  0.412700  1.0
  C  C667  1  0.483400  0.412700  0.502100  1.0
  C  C668  1  0.983400  0.502100  0.089400  1.0
  C  C669  1  0.516600  0.910600  0.412700  1.0
  C  C670  1  0.016600  0.412700  0.502100  1.0
  C  C671  1  0.516600  0.502100  0.089400  1.0
  C  C672  1  0.016600  0.089400  0.587300  1.0
  C  C673  1  0.516600  0.587300  0.497900  1.0
  C  C674  1  0.016600  0.497900  0.910600  1.0
  N  N675  1  0.807700  0.940600  0.143200  1.0
  N  N676  1  0.307700  0.143200  0.202600  1.0
  N  N677  1  0.807700  0.202600  0.059400  1.0
  N  N678  1  0.307700  0.059400  0.856800  1.0
  N  N679  1  0.807700  0.856800  0.797400  1.0
  N  N680  1  0.307700  0.797400  0.940600  1.0
  N  N681  1  0.192300  0.059400  0.856800  1.0
  N  N682  1  0.692300  0.856800  0.797400  1.0
  N  N683  1  0.192300  0.797400  0.940600  1.0
  N  N684  1  0.692300  0.940600  0.143200  1.0
  N  N685  1  0.192300  0.143200  0.202600  1.0
  N  N686  1  0.692300  0.202600  0.059400  1.0
  N  N687  1  0.865800  0.016700  0.159500  1.0
  N  N688  1  0.365800  0.159500  0.142800  1.0
  N  N689  1  0.865800  0.142800  0.983300  1.0
  N  N690  1  0.365800  0.983300  0.840500  1.0
  N  N691  1  0.865800  0.840500  0.857200  1.0
  N  N692  1  0.365800  0.857200  0.016700  1.0
  N  N693  1  0.134200  0.983300  0.840500  1.0
  N  N694  1  0.634200  0.840500  0.857200  1.0
  N  N695  1  0.134200  0.857200  0.016700  1.0
  N  N696  1  0.634200  0.016700  0.159500  1.0
  N  N697  1  0.134200  0.159500  0.142800  1.0
  N  N698  1  0.634200  0.142800  0.983300  1.0
  N  N699  1  0.678400  0.094500  0.314400  1.0
  N  N700  1  0.178400  0.314400  0.219900  1.0
  N  N701  1  0.678400  0.219900  0.905500  1.0
  N  N702  1  0.178400  0.905500  0.685600  1.0
  N  N703  1  0.678400  0.685600  0.780100  1.0
  N  N704  1  0.178400  0.780100  0.094500  1.0
  N  N705  1  0.321600  0.905500  0.685600  1.0
  N  N706  1  0.821600  0.685600  0.780100  1.0
  N  N707  1  0.321600  0.780100  0.094500  1.0
  N  N708  1  0.821600  0.094500  0.314400  1.0
  N  N709  1  0.321600  0.314400  0.219900  1.0
  N  N710  1  0.821600  0.219900  0.905500  1.0
  O  O711  1  0.505000  0.120200  0.547700  1.0
  O  O712  1  0.005000  0.547700  0.427500  1.0
  O  O713  1  0.505000  0.427500  0.879800  1.0
  O  O714  1  0.005000  0.879800  0.452300  1.0
  O  O715  1  0.505000  0.452300  0.572500  1.0
  O  O716  1  0.005000  0.572500  0.120200  1.0
  O  O717  1  0.495000  0.879800  0.452300  1.0
  O  O718  1  0.995000  0.452300  0.572500  1.0
  O  O719  1  0.495000  0.572500  0.120200  1.0
  O  O720  1  0.995000  0.120200  0.547700  1.0
  O  O721  1  0.495000  0.547700  0.427500  1.0
  O  O722  1  0.995000  0.427500  0.879800  1.0
  O  O723  1  0.507900  0.161900  0.471800  1.0
  O  O724  1  0.007900  0.471800  0.309900  1.0
  O  O725  1  0.507900  0.309900  0.838100  1.0
  O  O726  1  0.007900  0.838100  0.528200  1.0
  O  O727  1  0.507900  0.528200  0.690100  1.0
  O  O728  1  0.007900  0.690100  0.161900  1.0
  O  O729  1  0.492100  0.838100  0.528200  1.0
  O  O730  1  0.992100  0.528200  0.690100  1.0
  O  O731  1  0.492100  0.690100  0.161900  1.0
  O  O732  1  0.992100  0.161900  0.471800  1.0
  O  O733  1  0.492100  0.471800  0.309900  1.0
  O  O734  1  0.992100  0.309900  0.838100  1.0
  O  O735  1  0.557800  0.252200  0.499200  1.0
  O  O736  1  0.057800  0.499200  0.247000  1.0
  O  O737  1  0.557800  0.247000  0.747800  1.0
  O  O738  1  0.057800  0.747800  0.500800  1.0
  O  O739  1  0.557800  0.500800  0.753000  1.0
  O  O740  1  0.057800  0.753000  0.252200  1.0
  O  O741  1  0.442200  0.747800  0.500800  1.0
  O  O742  1  0.942200  0.500800  0.753000  1.0
  O  O743  1  0.442200  0.753000  0.252200  1.0
  O  O744  1  0.942200  0.252200  0.499200  1.0
  O  O745  1  0.442200  0.499200  0.247000  1.0
  O  O746  1  0.942200  0.247000  0.747800  1.0
  F  F747  1  0.750000  0.251900  0.222300  1
  F  F748  1  0.250000  0.222300  0.970400  1
  F  F749  1  0.750000  0.970400  0.748100  1
  F  F750  1  0.250000  0.748100  0.777700  1
  F  F751  1  0.750000  0.777700  0.029600  1
  F  F752  1  0.250000  0.029600  0.251900  1
  F  F753  1  0.750000  0.143900  0.153500  1
  F  F754  1  0.250000  0.153500  0.009600  1
  F  F755  1  0.750000  0.009600  0.856100  1
  F  F756  1  0.250000  0.856100  0.846500  1
  F  F757  1  0.750000  0.846500  0.990400  1
  F  F758  1  0.250000  0.990400  0.143900  1
  F  F759  1  0.750000  0.803700  0.275500  1
  F  F760  1  0.250000  0.275500  0.471800  1
  F  F761  1  0.750000  0.471800  0.196300  1
  F  F762  1  0.250000  0.196300  0.724500  1
  F  F763  1  0.750000  0.724500  0.528200  1
  F  F764  1  0.250000  0.528200  0.803700  1
  F  F765  1  0.750000  0.892000  0.278100  1
  F  F766  1  0.250000  0.278100  0.386100  1
  F  F767  1  0.750000  0.386100  0.108000  1
  F  F768  1  0.250000  0.108000  0.721900  1
  F  F769  1  0.750000  0.721900  0.613900  1
  F  F770  1  0.250000  0.613900  0.892000  1
  F  F771  1  0.750000  0.176200  0.247500  1
  F  F772  1  0.250000  0.247500  0.071300  1
  F  F773  1  0.750000  0.071300  0.823800  1
  F  F774  1  0.250000  0.823800  0.752500  1
  F  F775  1  0.750000  0.752500  0.928700  1
  F  F776  1  0.250000  0.928700  0.176200  1
  F  F777  1  0.922500  0.000000  0.000000  1
  F  F778  1  0.422500  0.000000  0.000000  1
  F  F779  1  0.077500  0.000000  0.000000  1
  F  F780  1  0.577500  0.000000  0.000000  1
  F  F781  1  0.014300  0.988700  0.044400  1
  F  F782  1  0.514300  0.044400  0.055700  1
  F  F783  1  0.014300  0.055700  0.011300  1
  F  F784  1  0.514300  0.011300  0.955600  1
  F  F785  1  0.014300  0.955600  0.944300  1
  F  F786  1  0.514300  0.944300  0.988700  1
  F  F787  1  0.985700  0.011300  0.955600  1
  F  F788  1  0.485700  0.955600  0.944300  1
  F  F789  1  0.985700  0.944300  0.988700  1
  F  F790  1  0.485700  0.988700  0.044400  1
  F  F791  1  0.985700  0.044400  0.055700  1
  F  F792  1  0.485700  0.055700  0.011300  1
  F  F793  1  0.689900  0.211600  0.225000  1.0
  F  F794  1  0.189900  0.225000  0.013400  1.0
  F  F795  1  0.689900  0.013400  0.788400  1.0
  F  F796  1  0.189900  0.788400  0.775000  1.0
  F  F797  1  0.689900  0.775000  0.986600  1.0
  F  F798  1  0.189900  0.986600  0.211600  1.0
  F  F799  1  0.310100  0.788400  0.775000  1.0
  F  F800  1  0.810100  0.775000  0.986600  1.0
  F  F801  1  0.310100  0.986600  0.211600  1.0
  F  F802  1  0.810100  0.211600  0.225000  1.0
  F  F803  1  0.310100  0.225000  0.013400  1.0
  F  F804  1  0.810100  0.013400  0.788400  1.0
  F  F805  1  0.698000  0.885100  0.352600  1.0
  F  F806  1  0.198000  0.352600  0.467500  1.0
  F  F807  1  0.698000  0.467500  0.114900  1.0
  F  F808  1  0.198000  0.114900  0.647400  1.0
  F  F809  1  0.698000  0.647400  0.532500  1.0
  F  F810  1  0.198000  0.532500  0.885100  1.0
  F  F811  1  0.302000  0.114900  0.647400  1.0
  F  F812  1  0.802000  0.647400  0.532500  1.0
  F  F813  1  0.302000  0.532500  0.885100  1.0
  F  F814  1  0.802000  0.885100  0.352600  1.0
  F  F815  1  0.302000  0.352600  0.467500  1.0
  F  F816  1  0.802000  0.467500  0.114900  1.0
