# generated using pymatgen
data_H116Pd6C142(N2O3)19
_symmetry_space_group_name_H-M   'P 1'
_cell_length_a   18.21700000
_cell_length_b   23.28650213
_cell_length_c   23.28650213
_cell_angle_alpha   64.60176332
_cell_angle_beta   75.95102386
_cell_angle_gamma   75.95102386
_symmetry_Int_Tables_number   1
_chemical_formula_structural   H116Pd6C142(N2O3)19
_chemical_formula_sum   'H232 Pd12 C284 N76 O114'
_cell_volume   8547.68412143
_cell_formula_units_Z   2
loop_
 _symmetry_equiv_pos_site_id
 _symmetry_equiv_pos_as_xyz
  1  'x, y, z'
loop_
 _atom_site_type_symbol
 _atom_site_label
 _atom_site_symmetry_multiplicity
 _atom_site_fract_x
 _atom_site_fract_y
 _atom_site_fract_z
 _atom_site_occupancy
  C  C1  1  0.930100  0.932400  0.684200  1
  C  C2  1  0.569900  0.315800  0.067600  1
  C  C3  1  0.069900  0.067600  0.315800  1
  C  C4  1  0.430100  0.684200  0.932400  1
  C  C5  1  0.007400  0.936300  0.686900  1
  C  C6  1  0.492600  0.313100  0.063700  1
  C  C7  1  0.992600  0.063700  0.313100  1
  C  C8  1  0.507400  0.686900  0.936300  1
  C  C9  1  0.024500  0.936600  0.742000  1
  C  C10  1  0.475500  0.258000  0.063400  1
  C  C11  1  0.975500  0.063400  0.258000  1
  C  C12  1  0.524500  0.742000  0.936600  1
  C  C13  1  0.969600  0.935100  0.791500  1
  C  C14  1  0.530400  0.208500  0.064900  1
  C  C15  1  0.030400  0.064900  0.208500  1
  C  C16  1  0.469600  0.791500  0.935100  1
  C  C17  1  0.893200  0.932400  0.791200  1
  C  C18  1  0.606800  0.208800  0.067600  1
  C  C19  1  0.106800  0.067600  0.208800  1
  C  C20  1  0.393200  0.791200  0.932400  1
  C  C21  1  0.829700  0.931500  0.842100  1
  C  C22  1  0.670300  0.157900  0.068500  1
  C  C23  1  0.170300  0.068500  0.157900  1
  C  C24  1  0.329700  0.842100  0.931500  1
  C  C25  1  0.836400  0.932900  0.900900  1
  C  C26  1  0.663600  0.099100  0.067100  1
  C  C27  1  0.163600  0.067100  0.099100  1
  C  C28  1  0.336400  0.900900  0.932900  1
  C  C29  1  0.771600  0.932800  0.945600  1
  C  C30  1  0.728400  0.054400  0.067200  1
  C  C31  1  0.228400  0.067200  0.054400  1
  C  C32  1  0.271600  0.945600  0.932800  1
  C  C33  1  0.702200  0.931000  0.933600  1
  C  C34  1  0.797800  0.066400  0.069000  1
  C  C35  1  0.297800  0.069000  0.066400  1
  C  C36  1  0.202200  0.933600  0.931000  1
  C  C37  1  0.700100  0.929300  0.875900  1
  C  C38  1  0.799900  0.124100  0.070700  1
  C  C39  1  0.299900  0.070700  0.124100  1
  C  C40  1  0.200100  0.875900  0.929300  1
  C  C41  1  0.626900  0.869700  0.771300  1
  C  C42  1  0.873100  0.228700  0.130300  1
  C  C43  1  0.373100  0.130300  0.228700  1
  C  C44  1  0.126900  0.771300  0.869700  1
  C  C45  1  0.551300  0.865200  0.778400  1
  C  C46  1  0.948700  0.221600  0.134800  1
  C  C47  1  0.448700  0.134800  0.221600  1
  C  C48  1  0.051300  0.778400  0.865200  1
  C  C49  1  0.495400  0.919400  0.773000  1
  C  C50  1  0.004600  0.227000  0.080600  1
  C  C51  1  0.504600  0.080600  0.227000  1
  C  C52  1  0.995400  0.773000  0.919400  1
  C  C53  1  0.516800  0.977900  0.760700  1
  C  C54  1  0.983200  0.239300  0.022100  1
  C  C55  1  0.483200  0.022100  0.239300  1
  C  C56  1  0.016800  0.760700  0.977900  1
  C  C57  1  0.598900  0.978800  0.751600  1
  C  C58  1  0.901100  0.248400  0.021200  1
  C  C59  1  0.401100  0.021200  0.248400  1
  C  C60  1  0.098900  0.751600  0.978800  1
  C  C61  1  0.622400  0.038200  0.737000  1
  C  C62  1  0.877600  0.263000  0.961800  1
  C  C63  1  0.377600  0.961800  0.263000  1
  C  C64  1  0.122400  0.737000  0.038200  1
  C  C65  1  0.570500  0.091600  0.735000  1
  C  C66  1  0.929500  0.265000  0.908400  1
  C  C67  1  0.429500  0.908400  0.265000  1
  C  C68  1  0.070500  0.735000  0.091600  1
  C  C69  1  0.491900  0.091900  0.747100  1
  C  C70  1  0.008100  0.252900  0.908100  1
  C  C71  1  0.508100  0.908100  0.252900  1
  C  C72  1  0.991900  0.747100  0.091900  1
  C  C73  1  0.464400  0.034500  0.759300  1
  C  C74  1  0.035600  0.240700  0.965500  1
  C  C75  1  0.535600  0.965500  0.240700  1
  C  C76  1  0.964400  0.759300  0.034500  1
  C  C77  1  0.383400  0.038300  0.769300  1
  C  C78  1  0.116600  0.230700  0.961700  1
  C  C79  1  0.616600  0.961700  0.230700  1
  C  C80  1  0.883400  0.769300  0.038300  1
  C  C81  1  0.336200  0.092800  0.770600  1
  C  C82  1  0.163800  0.229400  0.907200  1
  C  C83  1  0.663800  0.907200  0.229400  1
  C  C84  1  0.836200  0.770600  0.092800  1
  C  C85  1  0.367500  0.145100  0.760300  1
  C  C86  1  0.132500  0.239700  0.854900  1
  C  C87  1  0.632500  0.854900  0.239700  1
  C  C88  1  0.867500  0.760300  0.145100  1
  C  C89  1  0.514900  0.157800  0.850000  1
  C  C90  1  0.985100  0.150000  0.842200  1
  C  C91  1  0.485100  0.842200  0.150000  1
  C  C92  1  0.014900  0.850000  0.157800  1
  C  C93  1  0.540200  0.146200  0.903800  1
  C  C94  1  0.959800  0.096200  0.853800  1
  C  C95  1  0.459800  0.853800  0.096200  1
  C  C96  1  0.040200  0.903800  0.146200  1
  C  C97  1  0.565000  0.198200  0.907000  1
  C  C98  1  0.935000  0.093000  0.801800  1
  C  C99  1  0.435000  0.801800  0.093000  1
  C  C100  1  0.065000  0.907000  0.198200  1
  C  C101  1  0.565700  0.259100  0.853900  1
  C  C102  1  0.934300  0.146100  0.740900  1
  C  C103  1  0.434300  0.740900  0.146100  1
  C  C104  1  0.065700  0.853900  0.259100  1
  C  C105  1  0.538000  0.264700  0.797900  1
  C  C106  1  0.962000  0.202100  0.735300  1
  C  C107  1  0.462000  0.735300  0.202100  1
  C  C108  1  0.038000  0.797900  0.264700  1
  C  C109  1  0.538400  0.318900  0.741900  1
  C  C110  1  0.961600  0.258100  0.681100  1
  C  C111  1  0.461600  0.681100  0.258100  1
  C  C112  1  0.038400  0.741900  0.318900  1
  C  C113  1  0.560500  0.377000  0.734400  1
  C  C114  1  0.939500  0.265600  0.623000  1
  C  C115  1  0.439500  0.623000  0.265600  1
  C  C116  1  0.060500  0.734400  0.377000  1
  C  C117  1  0.559000  0.426800  0.674200  1
  C  C118  1  0.941000  0.325800  0.573200  1
  C  C119  1  0.441000  0.573200  0.325800  1
  C  C120  1  0.059000  0.674200  0.426800  1
  C  C121  1  0.537100  0.421900  0.623500  1
  C  C122  1  0.962900  0.376500  0.578100  1
  C  C123  1  0.462900  0.578100  0.376500  1
  C  C124  1  0.037100  0.623500  0.421900  1
  C  C125  1  0.512900  0.363900  0.636700  1
  C  C126  1  0.987100  0.363300  0.636100  1
  C  C127  1  0.487100  0.636100  0.363300  1
  C  C128  1  0.012900  0.636700  0.363900  1
  C  C129  1  0.369600  0.272300  0.630900  1
  C  C130  1  0.130400  0.369100  0.727700  1
  C  C131  1  0.630400  0.727700  0.369100  1
  C  C132  1  0.869600  0.630900  0.272300  1
  C  C133  1  0.338000  0.279100  0.578300  1
  C  C134  1  0.162000  0.421700  0.720900  1
  C  C135  1  0.662000  0.720900  0.421700  1
  C  C136  1  0.838000  0.578300  0.279100  1
  C  C137  1  0.384600  0.271000  0.526800  1
  C  C138  1  0.115400  0.473200  0.729000  1
  C  C139  1  0.615400  0.729000  0.473200  1
  C  C140  1  0.884600  0.526800  0.271000  1
  C  C141  1  0.465800  0.256200  0.525400  1
  C  C142  1  0.034200  0.474600  0.743800  1
  C  C143  1  0.534200  0.743800  0.474600  1
  C  C144  1  0.965800  0.525400  0.256200  1
  C  C145  1  0.492300  0.249100  0.581900  1
  C  C146  1  0.007700  0.418100  0.750900  1
  C  C147  1  0.507700  0.750900  0.418100  1
  C  C148  1  0.992300  0.581900  0.249100  1
  C  C149  1  0.572600  0.233900  0.583300  1
  C  C150  1  0.927400  0.416700  0.766100  1
  C  C151  1  0.427400  0.766100  0.416700  1
  C  C152  1  0.072600  0.583300  0.233900  1
  C  C153  1  0.624200  0.230400  0.530200  1
  C  C154  1  0.875800  0.469800  0.769600  1
  C  C155  1  0.375800  0.769600  0.469800  1
  C  C156  1  0.124200  0.530200  0.230400  1
  C  C157  1  0.600100  0.239200  0.473400  1
  C  C158  1  0.899900  0.526600  0.760800  1
  C  C159  1  0.399900  0.760800  0.526600  1
  C  C160  1  0.100100  0.473400  0.239200  1
  C  C161  1  0.519700  0.252700  0.470700  1
  C  C162  1  0.980300  0.529300  0.747300  1
  C  C163  1  0.480300  0.747300  0.529300  1
  C  C164  1  0.019700  0.470700  0.252700  1
  C  C165  1  0.498100  0.261700  0.411900  1
  C  C166  1  0.001900  0.588100  0.738300  1
  C  C167  1  0.501900  0.738300  0.588100  1
  C  C168  1  0.998100  0.411900  0.261700  1
  C  C169  1  0.554300  0.258400  0.362600  1
  C  C170  1  0.945700  0.637400  0.741600  1
  C  C171  1  0.445700  0.741600  0.637400  1
  C  C172  1  0.054300  0.362600  0.258400  1
  C  C173  1  0.629800  0.248900  0.366900  1
  C  C174  1  0.870200  0.633100  0.751100  1
  C  C175  1  0.370200  0.751100  0.633100  1
  C  C176  1  0.129800  0.366900  0.248900  1
  C  C177  1  0.706300  0.358700  0.416700  1
  C  C178  1  0.793700  0.583300  0.641300  1
  C  C179  1  0.293700  0.641300  0.583300  1
  C  C180  1  0.206300  0.416700  0.358700  1
  C  C181  1  0.714300  0.417200  0.415200  1
  C  C182  1  0.785700  0.584800  0.582800  1
  C  C183  1  0.285700  0.582800  0.584800  1
  C  C184  1  0.214300  0.415200  0.417200  1
  C  C185  1  0.785200  0.427800  0.413200  1
  C  C186  1  0.714800  0.586800  0.572200  1
  C  C187  1  0.214800  0.572200  0.586800  1
  C  C188  1  0.285200  0.413200  0.427800  1
  C  C189  1  0.845600  0.381400  0.415800  1
  C  C190  1  0.654400  0.584200  0.618600  1
  C  C191  1  0.154400  0.618600  0.584200  1
  C  C192  1  0.345600  0.415800  0.381400  1
  C  C193  1  0.837600  0.319800  0.418200  1
  C  C194  1  0.662400  0.581800  0.680200  1
  C  C195  1  0.162400  0.680200  0.581800  1
  C  C196  1  0.337600  0.418200  0.319800  1
  C  C197  1  0.899600  0.268100  0.422700  1
  C  C198  1  0.600400  0.577300  0.731900  1
  C  C199  1  0.100400  0.731900  0.577300  1
  C  C200  1  0.399600  0.422700  0.268100  1
  C  C201  1  0.973900  0.267600  0.427200  1
  C  C202  1  0.526100  0.572800  0.732400  1
  C  C203  1  0.026100  0.732400  0.572800  1
  C  C204  1  0.473900  0.427200  0.267600  1
  C  C205  1  0.028100  0.216800  0.430800  1
  C  C206  1  0.471900  0.569200  0.783200  1
  C  C207  1  0.971900  0.783200  0.569200  1
  C  C208  1  0.528100  0.430800  0.216800  1
  C  C209  1  0.006900  0.158600  0.434800  1
  C  C210  1  0.493100  0.565200  0.841400  1
  C  C211  1  0.993100  0.841400  0.565200  1
  C  C212  1  0.506900  0.434800  0.158600  1
  C  C213  1  0.931200  0.161800  0.431400  1
  C  C214  1  0.568800  0.568600  0.838200  1
  C  C215  1  0.068800  0.838200  0.568600  1
  C  C216  1  0.431200  0.431400  0.161800  1
  C  C217  1  0.777300  0.126400  0.373200  1
  C  C218  1  0.722700  0.626800  0.873600  1
  C  C219  1  0.222700  0.873600  0.626800  1
  C  C220  1  0.277300  0.373200  0.126400  1
  C  C221  1  0.780900  0.064300  0.371900  1
  C  C222  1  0.719100  0.628100  0.935700  1
  C  C223  1  0.219100  0.935700  0.628100  1
  C  C224  1  0.280900  0.371900  0.064300  1
  C  C225  1  0.780400  0.013600  0.425400  1
  C  C226  1  0.719600  0.574600  0.986400  1
  C  C227  1  0.219600  0.986400  0.574600  1
  C  C228  1  0.280400  0.425400  0.013600  1
  C  C229  1  0.774700  0.017200  0.484600  1
  C  C230  1  0.725300  0.515400  0.982800  1
  C  C231  1  0.225300  0.982800  0.515400  1
  C  C232  1  0.274700  0.484600  0.017200  1
  C  C233  1  0.772100  0.077500  0.483700  1
  C  C234  1  0.727900  0.516300  0.922500  1
  C  C235  1  0.227900  0.922500  0.516300  1
  C  C236  1  0.272100  0.483700  0.077500  1
  C  C237  1  0.770900  0.084500  0.540900  1
  C  C238  1  0.729100  0.459100  0.915500  1
  C  C239  1  0.229100  0.915500  0.459100  1
  C  C240  1  0.270900  0.540900  0.084500  1
  C  C241  1  0.771400  0.031900  0.597700  1
  C  C242  1  0.728600  0.402300  0.968100  1
  C  C243  1  0.228600  0.968100  0.402300  1
  C  C244  1  0.271400  0.597700  0.031900  1
  C  C245  1  0.773400  0.970100  0.599700  1
  C  C246  1  0.726600  0.400300  0.029900  1
  C  C247  1  0.226600  0.029900  0.400300  1
  C  C248  1  0.273400  0.599700  0.970100  1
  C  C249  1  0.775300  0.961200  0.545400  1
  C  C250  1  0.724700  0.454600  0.038800  1
  C  C251  1  0.224700  0.038800  0.454600  1
  C  C252  1  0.275300  0.545400  0.961200  1
  C  C253  1  0.778400  0.899200  0.549200  1
  C  C254  1  0.721600  0.450800  0.100800  1
  C  C255  1  0.221600  0.100800  0.450800  1
  C  C256  1  0.278400  0.549200  0.899200  1
  C  C257  1  0.778800  0.849500  0.608300  1
  C  C258  1  0.721200  0.391700  0.150500  1
  C  C259  1  0.221200  0.150500  0.391700  1
  C  C260  1  0.278800  0.608300  0.849500  1
  C  C261  1  0.776900  0.859800  0.663400  1
  C  C262  1  0.723100  0.336600  0.140200  1
  C  C263  1  0.223100  0.140200  0.336600  1
  C  C264  1  0.276900  0.663400  0.859800  1
  C  C265  1  0.805000  0.217900  0.563300  1
  C  C266  1  0.695000  0.436700  0.782100  1
  C  C267  1  0.195000  0.782100  0.436700  1
  C  C268  1  0.305000  0.563300  0.217900  1
  C  C269  1  0.043700  0.582500  0.067100  1
  C  C270  1  0.456300  0.932900  0.417500  1
  C  C271  1  0.956300  0.417500  0.932900  1
  C  C272  1  0.543700  0.067100  0.582500  1
  C  C273  1  0.073600  0.522200  0.065800  1
  C  C274  1  0.426400  0.934200  0.477800  1
  C  C275  1  0.926400  0.477800  0.934200  1
  C  C276  1  0.573600  0.065800  0.522200  1
  C  C277  1  0.041600  0.412900  0.085700  1
  C  C278  1  0.458400  0.914300  0.587100  1
  C  C279  1  0.958400  0.587100  0.914300  1
  C  C280  1  0.541600  0.085700  0.412900  1
  C  C281  1  0.968500  0.388600  0.099200  1
  C  C282  1  0.531500  0.900800  0.611400  1
  C  C283  1  0.031500  0.611400  0.900800  1
  C  C284  1  0.468500  0.099200  0.388600  1
  H  H285  1  0.917600  0.931300  0.648300  1
  H  H286  1  0.582400  0.351700  0.068700  1
  H  H287  1  0.082400  0.068700  0.351700  1
  H  H288  1  0.417600  0.648300  0.931300  1
  H  H289  1  0.045700  0.938400  0.651800  1
  H  H290  1  0.454300  0.348200  0.061600  1
  H  H291  1  0.954300  0.061600  0.348200  1
  H  H292  1  0.545700  0.651800  0.938400  1
  H  H293  1  0.074400  0.938000  0.744000  1
  H  H294  1  0.425600  0.256000  0.062000  1
  H  H295  1  0.925600  0.062000  0.256000  1
  H  H296  1  0.574400  0.744000  0.938000  1
  H  H297  1  0.981900  0.935800  0.827600  1
  H  H298  1  0.518100  0.172400  0.064200  1
  H  H299  1  0.018100  0.064200  0.172400  1
  H  H300  1  0.481900  0.827600  0.935800  1
  H  H301  1  0.883600  0.933900  0.908900  1
  H  H302  1  0.616400  0.091100  0.066100  1
  H  H303  1  0.116400  0.066100  0.091100  1
  H  H304  1  0.383600  0.908900  0.933900  1
  H  H305  1  0.774700  0.934000  0.984400  1
  H  H306  1  0.725300  0.015600  0.066000  1
  H  H307  1  0.225300  0.066000  0.015600  1
  H  H308  1  0.274700  0.984400  0.934000  1
  H  H309  1  0.658000  0.931100  0.963700  1
  H  H310  1  0.842000  0.036300  0.068900  1
  H  H311  1  0.342000  0.068900  0.036300  1
  H  H312  1  0.158000  0.963700  0.931100  1
  H  H313  1  0.653500  0.927500  0.867500  1
  H  H314  1  0.846500  0.132500  0.072500  1
  H  H315  1  0.346500  0.072500  0.132500  1
  H  H316  1  0.153500  0.867500  0.927500  1
  H  H317  1  0.662900  0.832700  0.776700  1
  H  H318  1  0.837100  0.223300  0.167300  1
  H  H319  1  0.337100  0.167300  0.223300  1
  H  H320  1  0.162900  0.776700  0.832700  1
  H  H321  1  0.537300  0.826100  0.786900  1
  H  H322  1  0.962700  0.213100  0.173900  1
  H  H323  1  0.462700  0.173900  0.213100  1
  H  H324  1  0.037300  0.786900  0.826100  1
  H  H325  1  0.444100  0.916700  0.777500  1
  H  H326  1  0.055900  0.222500  0.083300  1
  H  H327  1  0.555900  0.083300  0.222500  1
  H  H328  1  0.944100  0.777500  0.916700  1
  H  H329  1  0.674500  0.040500  0.728700  1
  H  H330  1  0.825500  0.271300  0.959500  1
  H  H331  1  0.325500  0.959500  0.271300  1
  H  H332  1  0.174500  0.728700  0.040500  1
  H  H333  1  0.588300  0.129500  0.725100  1
  H  H334  1  0.911700  0.274900  0.870500  1
  H  H335  1  0.411700  0.870500  0.274900  1
  H  H336  1  0.088300  0.725100  0.129500  1
  H  H337  1  0.362700  0.003000  0.775000  1
  H  H338  1  0.137300  0.225000  0.997000  1
  H  H339  1  0.637300  0.997000  0.225000  1
  H  H340  1  0.862700  0.775000  0.003000  1
  H  H341  1  0.283300  0.094700  0.778300  1
  H  H342  1  0.216700  0.221700  0.905300  1
  H  H343  1  0.716700  0.905300  0.221700  1
  H  H344  1  0.783300  0.778300  0.094700  1
  H  H345  1  0.334500  0.181100  0.764100  1
  H  H346  1  0.165500  0.235900  0.818900  1
  H  H347  1  0.665500  0.818900  0.235900  1
  H  H348  1  0.834500  0.764100  0.181100  1
  H  H349  1  0.497000  0.124800  0.847600  1
  H  H350  1  0.003000  0.152400  0.875200  1
  H  H351  1  0.503000  0.875200  0.152400  1
  H  H352  1  0.997000  0.847600  0.124800  1
  H  H353  1  0.541500  0.106000  0.937800  1
  H  H354  1  0.958500  0.062200  0.894000  1
  H  H355  1  0.458500  0.894000  0.062200  1
  H  H356  1  0.041500  0.937800  0.106000  1
  H  H357  1  0.581000  0.192300  0.944500  1
  H  H358  1  0.919000  0.055500  0.807700  1
  H  H359  1  0.419000  0.807700  0.055500  1
  H  H360  1  0.081000  0.944500  0.192300  1
  H  H361  1  0.582900  0.293000  0.855000  1
  H  H362  1  0.917100  0.145000  0.707000  1
  H  H363  1  0.417100  0.707000  0.145000  1
  H  H364  1  0.082900  0.855000  0.293000  1
  H  H365  1  0.575000  0.381000  0.768000  1
  H  H366  1  0.925000  0.232000  0.619000  1
  H  H367  1  0.425000  0.619000  0.232000  1
  H  H368  1  0.075000  0.768000  0.381000  1
  H  H369  1  0.573300  0.465200  0.667400  1
  H  H370  1  0.926700  0.332600  0.534800  1
  H  H371  1  0.426700  0.534800  0.332600  1
  H  H372  1  0.073300  0.667400  0.465200  1
  H  H373  1  0.538300  0.455200  0.583000  1
  H  H374  1  0.961700  0.417000  0.544800  1
  H  H375  1  0.461700  0.544800  0.417000  1
  H  H376  1  0.038300  0.583000  0.455200  1
  H  H377  1  0.496100  0.359600  0.604400  1
  H  H378  1  0.003900  0.395600  0.640400  1
  H  H379  1  0.503900  0.640400  0.395600  1
  H  H380  1  0.996100  0.604400  0.359600  1
  H  H381  1  0.336800  0.279600  0.665400  1
  H  H382  1  0.163200  0.334600  0.720400  1
  H  H383  1  0.663200  0.720400  0.334600  1
  H  H384  1  0.836800  0.665400  0.279600  1
  H  H385  1  0.285200  0.289100  0.579100  1
  H  H386  1  0.214800  0.420900  0.710900  1
  H  H387  1  0.714800  0.710900  0.420900  1
  H  H388  1  0.785200  0.579100  0.289100  1
  H  H389  1  0.364000  0.275200  0.492200  1
  H  H390  1  0.136000  0.507800  0.724800  1
  H  H391  1  0.636000  0.724800  0.507800  1
  H  H392  1  0.864000  0.492200  0.275200  1
  H  H393  1  0.590500  0.226200  0.620400  1
  H  H394  1  0.909500  0.379600  0.773800  1
  H  H395  1  0.409500  0.773800  0.379600  1
  H  H396  1  0.090500  0.620400  0.226200  1
  H  H397  1  0.676300  0.222000  0.532000  1
  H  H398  1  0.823700  0.468000  0.778000  1
  H  H399  1  0.323700  0.778000  0.468000  1
  H  H400  1  0.176300  0.532000  0.222000  1
  H  H401  1  0.446700  0.269700  0.407700  1
  H  H402  1  0.053300  0.592300  0.730300  1
  H  H403  1  0.553300  0.730300  0.592300  1
  H  H404  1  0.946700  0.407700  0.269700  1
  H  H405  1  0.540900  0.262700  0.324700  1
  H  H406  1  0.959100  0.675300  0.737300  1
  H  H407  1  0.459100  0.737300  0.675300  1
  H  H408  1  0.040900  0.324700  0.262700  1
  H  H409  1  0.666200  0.250400  0.330800  1
  H  H410  1  0.833800  0.669200  0.749600  1
  H  H411  1  0.333800  0.749600  0.669200  1
  H  H412  1  0.166200  0.330800  0.250400  1
  H  H413  1  0.658400  0.351600  0.416400  1
  H  H414  1  0.841600  0.583600  0.648400  1
  H  H415  1  0.341600  0.648400  0.583600  1
  H  H416  1  0.158400  0.416400  0.351600  1
  H  H417  1  0.671700  0.448700  0.415500  1
  H  H418  1  0.828300  0.584500  0.551300  1
  H  H419  1  0.328300  0.551300  0.584500  1
  H  H420  1  0.171700  0.415500  0.448700  1
  H  H421  1  0.791600  0.467400  0.410000  1
  H  H422  1  0.708400  0.590000  0.532600  1
  H  H423  1  0.208400  0.532600  0.590000  1
  H  H424  1  0.291600  0.410000  0.467400  1
  H  H425  1  0.893400  0.388700  0.416100  1
  H  H426  1  0.606600  0.583900  0.611300  1
  H  H427  1  0.106600  0.611300  0.583900  1
  H  H428  1  0.393400  0.416100  0.388700  1
  H  H429  1  0.986500  0.303800  0.427800  1
  H  H430  1  0.513500  0.572200  0.696200  1
  H  H431  1  0.013500  0.696200  0.572200  1
  H  H432  1  0.486500  0.427800  0.303800  1
  H  H433  1  0.078600  0.218300  0.430700  1
  H  H434  1  0.421400  0.569300  0.781700  1
  H  H435  1  0.921400  0.781700  0.569300  1
  H  H436  1  0.578600  0.430700  0.218300  1
  H  H437  1  0.042400  0.121300  0.439300  1
  H  H438  1  0.457600  0.560700  0.878700  1
  H  H439  1  0.957600  0.878700  0.560700  1
  H  H440  1  0.542400  0.439300  0.121300  1
  H  H441  1  0.915700  0.125700  0.433300  1
  H  H442  1  0.584300  0.566700  0.874300  1
  H  H443  1  0.084300  0.874300  0.566700  1
  H  H444  1  0.415700  0.433300  0.125700  1
  H  H445  1  0.777700  0.162800  0.334800  1
  H  H446  1  0.722300  0.665200  0.837200  1
  H  H447  1  0.222300  0.837200  0.665200  1
  H  H448  1  0.277700  0.334800  0.162800  1
  H  H449  1  0.783500  0.060700  0.333100  1
  H  H450  1  0.716500  0.666900  0.939300  1
  H  H451  1  0.216500  0.939300  0.666900  1
  H  H452  1  0.283500  0.333100  0.060700  1
  H  H453  1  0.784000  0.973500  0.424300  1
  H  H454  1  0.716000  0.575700  0.026500  1
  H  H455  1  0.216000  0.026500  0.575700  1
  H  H456  1  0.284000  0.424300  0.973500  1
  H  H457  1  0.769700  0.125000  0.540000  1
  H  H458  1  0.730300  0.460000  0.875000  1
  H  H459  1  0.230300  0.875000  0.460000  1
  H  H460  1  0.269700  0.540000  0.125000  1
  H  H461  1  0.770300  0.036800  0.635400  1
  H  H462  1  0.729700  0.364600  0.963200  1
  H  H463  1  0.229700  0.963200  0.364600  1
  H  H464  1  0.270300  0.635400  0.036800  1
  H  H465  1  0.780000  0.891900  0.512500  1
  H  H466  1  0.720000  0.487500  0.108100  1
  H  H467  1  0.220000  0.108100  0.487500  1
  H  H468  1  0.280000  0.512500  0.891900  1
  H  H469  1  0.780400  0.808000  0.611800  1
  H  H470  1  0.719600  0.388200  0.192000  1
  H  H471  1  0.219600  0.192000  0.388200  1
  H  H472  1  0.280400  0.611800  0.808000  1
  H  H473  1  0.777200  0.825000  0.703000  1
  H  H474  1  0.722800  0.297000  0.175000  1
  H  H475  1  0.222800  0.175000  0.297000  1
  H  H476  1  0.277200  0.703000  0.825000  1
  H  H477  1  0.083700  0.608200  0.051400  1
  H  H478  1  0.416300  0.948600  0.391800  1
  H  H479  1  0.916300  0.391800  0.948600  1
  H  H480  1  0.583700  0.051400  0.608200  1
  H  H481  1  0.022000  0.577800  0.110400  1
  H  H482  1  0.478000  0.889600  0.422200  1
  H  H483  1  0.978000  0.422200  0.889600  1
  H  H484  1  0.522000  0.110400  0.577800  1
  H  H485  1  0.004600  0.603000  0.040200  1
  H  H486  1  0.495400  0.959800  0.397000  1
  H  H487  1  0.995400  0.397000  0.959800  1
  H  H488  1  0.504600  0.040200  0.603000  1
  H  H489  1  0.112600  0.500900  0.093500  1
  H  H490  1  0.387400  0.906500  0.499100  1
  H  H491  1  0.887400  0.499100  0.906500  1
  H  H492  1  0.612600  0.093500  0.500900  1
  H  H493  1  0.097200  0.526700  0.022300  1
  H  H494  1  0.402800  0.977700  0.473300  1
  H  H495  1  0.902800  0.473300  0.977700  1
  H  H496  1  0.597200  0.022300  0.526700  1
  H  H497  1  0.069800  0.416500  0.043500  1
  H  H498  1  0.430200  0.956500  0.583500  1
  H  H499  1  0.930200  0.583500  0.956500  1
  H  H500  1  0.569800  0.043500  0.416500  1
  H  H501  1  0.073800  0.385800  0.118200  1
  H  H502  1  0.426200  0.881800  0.614200  1
  H  H503  1  0.926200  0.614200  0.881800  1
  H  H504  1  0.573800  0.118200  0.385800  1
  H  H505  1  0.979200  0.346300  0.098700  1
  H  H506  1  0.520800  0.901300  0.653700  1
  H  H507  1  0.020800  0.653700  0.901300  1
  H  H508  1  0.479200  0.098700  0.346300  1
  H  H509  1  0.937500  0.417100  0.066900  1
  H  H510  1  0.562500  0.933100  0.582900  1
  H  H511  1  0.062500  0.582900  0.933100  1
  H  H512  1  0.437500  0.066900  0.417100  1
  H  H513  1  0.941600  0.386600  0.140800  1
  H  H514  1  0.558400  0.859200  0.613400  1
  H  H515  1  0.058400  0.613400  0.859200  1
  H  H516  1  0.441600  0.140800  0.386600  1
  N  N517  1  0.875500  0.930500  0.738500  1
  N  N518  1  0.624500  0.261500  0.069500  1
  N  N519  1  0.124500  0.069500  0.261500  1
  N  N520  1  0.375500  0.738500  0.930500  1
  N  N521  1  0.762400  0.930200  0.831000  1
  N  N522  1  0.737600  0.169000  0.069800  1
  N  N523  1  0.237600  0.069800  0.169000  1
  N  N524  1  0.262400  0.831000  0.930200  1
  N  N525  1  0.651600  0.924400  0.757000  1
  N  N526  1  0.848400  0.243000  0.075600  1
  N  N527  1  0.348400  0.075600  0.243000  1
  N  N528  1  0.151600  0.757000  0.924400  1
  N  N529  1  0.443200  0.147300  0.745300  1
  N  N530  1  0.056800  0.254700  0.852700  1
  N  N531  1  0.556800  0.852700  0.254700  1
  N  N532  1  0.943200  0.745300  0.147300  1
  N  N533  1  0.514100  0.213600  0.800000  1
  N  N534  1  0.985900  0.200000  0.786400  1
  N  N535  1  0.485900  0.786400  0.200000  1
  N  N536  1  0.014100  0.800000  0.213600  1
  N  N537  1  0.513200  0.315900  0.693100  1
  N  N538  1  0.986800  0.306900  0.684100  1
  N  N539  1  0.486800  0.684100  0.306900  1
  N  N540  1  0.013200  0.693100  0.315900  1
  N  N541  1  0.443600  0.256100  0.633300  1
  N  N542  1  0.056400  0.366700  0.743900  1
  N  N543  1  0.556400  0.743900  0.366700  1
  N  N544  1  0.943600  0.633300  0.256100  1
  N  N545  1  0.652800  0.237900  0.420100  1
  N  N546  1  0.847200  0.579900  0.762100  1
  N  N547  1  0.347200  0.762100  0.579900  1
  N  N548  1  0.152800  0.420100  0.237900  1
  N  N549  1  0.769400  0.311000  0.418600  1
  N  N550  1  0.730600  0.581400  0.689000  1
  N  N551  1  0.230600  0.689000  0.581400  1
  N  N552  1  0.269400  0.418600  0.311000  1
  N  N553  1  0.880500  0.213800  0.425800  1
  N  N554  1  0.619500  0.574200  0.786200  1
  N  N555  1  0.119500  0.786200  0.574200  1
  N  N556  1  0.380500  0.425800  0.213800  1
  N  N557  1  0.773400  0.132300  0.427500  1
  N  N558  1  0.726600  0.572500  0.867700  1
  N  N559  1  0.226600  0.867700  0.572500  1
  N  N560  1  0.273400  0.427500  0.132300  1
  N  N561  1  0.774700  0.917900  0.660100  1
  N  N562  1  0.725300  0.339900  0.082100  1
  N  N563  1  0.225300  0.082100  0.339900  1
  N  N564  1  0.274700  0.660100  0.917900  1
  N  N565  1  0.488700  0.972600  0.926000  1
  N  N566  1  0.011300  0.074000  0.027400  1
  N  N567  1  0.511300  0.027400  0.074000  1
  N  N568  1  0.988700  0.926000  0.972600  1
  N  N569  1  0.365600  0.274300  0.268100  1
  N  N570  1  0.134400  0.731900  0.725700  1
  N  N571  1  0.634400  0.725700  0.731900  1
  N  N572  1  0.865600  0.268100  0.274300  1
  N  N573  1  0.690000  0.130900  0.225300  1
  N  N574  1  0.810000  0.774700  0.869100  1
  N  N575  1  0.310000  0.869100  0.774700  1
  N  N576  1  0.190000  0.225300  0.130900  1
  N  N577  1  0.501500  0.413000  0.456000  1
  N  N578  1  0.998500  0.544000  0.587000  1
  N  N579  1  0.498500  0.587000  0.544000  1
  N  N580  1  0.001500  0.456000  0.413000  1
  N  N581  1  0.170100  0.162100  0.736900  1
  N  N582  1  0.329900  0.263100  0.837900  1
  N  N583  1  0.829900  0.837900  0.263100  1
  N  N584  1  0.670100  0.736900  0.162100  1
  N  N585  1  0.602000  0.613300  0.111500  1
  N  N586  1  0.898000  0.888500  0.386700  1
  N  N587  1  0.398000  0.386700  0.888500  1
  N  N588  1  0.102000  0.111500  0.613300  1
  N  N589  1  0.164000  0.271500  0.626100  1
  N  N590  1  0.336000  0.373900  0.728500  1
  N  N591  1  0.836000  0.728500  0.373900  1
  N  N592  1  0.664000  0.626100  0.271500  1
  O  O593  1  0.517400  0.917100  0.933300  1
  O  O594  1  0.982600  0.066700  0.082900  1
  O  O595  1  0.482600  0.082900  0.066700  1
  O  O596  1  0.017400  0.933300  0.917100  1
  O  O597  1  0.426900  0.993700  0.948700  1
  O  O598  1  0.073100  0.051300  0.006300  1
  O  O599  1  0.573100  0.006300  0.051300  1
  O  O600  1  0.926900  0.948700  0.993700  1
  O  O601  1  0.532900  0.017000  0.889000  1
  O  O602  1  0.967100  0.111000  0.983000  1
  O  O603  1  0.467100  0.983000  0.111000  1
  O  O604  1  0.032900  0.889000  0.017000  1
  O  O605  1  0.409700  0.281300  0.213500  1
  O  O606  1  0.090300  0.786500  0.718700  1
  O  O607  1  0.590300  0.718700  0.786500  1
  O  O608  1  0.909700  0.213500  0.281300  1
  O  O609  1  0.293200  0.272600  0.278400  1
  O  O610  1  0.206800  0.721600  0.727400  1
  O  O611  1  0.706800  0.727400  0.721600  1
  O  O612  1  0.793200  0.278400  0.272600  1
  O  O613  1  0.388700  0.274100  0.316900  1
  O  O614  1  0.111300  0.683100  0.725900  1
  O  O615  1  0.611300  0.725900  0.683100  1
  O  O616  1  0.888700  0.316900  0.274100  1
  O  O617  1  0.621700  0.164400  0.215000  1
  O  O618  1  0.878300  0.785000  0.835600  1
  O  O619  1  0.378300  0.835600  0.785000  1
  O  O620  1  0.121700  0.215000  0.164400  1
  O  O621  1  0.707600  0.069000  0.236400  1
  O  O622  1  0.792400  0.763600  0.931000  1
  O  O623  1  0.292400  0.931000  0.763600  1
  O  O624  1  0.207600  0.236400  0.069000  1
  O  O625  1  0.730000  0.169400  0.230000  1
  O  O626  1  0.770000  0.770000  0.830600  1
  O  O627  1  0.270000  0.830600  0.770000  1
  O  O628  1  0.230000  0.230000  0.169400  1
  O  O629  1  0.524600  0.411500  0.402100  1
  O  O630  1  0.975400  0.597900  0.588500  1
  O  O631  1  0.475400  0.588500  0.597900  1
  O  O632  1  0.024600  0.402100  0.411500  1
  O  O633  1  0.432100  0.423700  0.477500  1
  O  O634  1  0.067900  0.522500  0.576300  1
  O  O635  1  0.567900  0.576300  0.522500  1
  O  O636  1  0.932100  0.477500  0.423700  1
  O  O637  1  0.545400  0.398600  0.493800  1
  O  O638  1  0.954600  0.506200  0.601400  1
  O  O639  1  0.454600  0.601400  0.506200  1
  O  O640  1  0.045400  0.493800  0.398600  1
  O  O641  1  0.299900  0.248300  0.429100  1
  O  O642  1  0.200100  0.570900  0.751700  1
  O  O643  1  0.700100  0.751700  0.570900  1
  O  O644  1  0.799900  0.429100  0.248300  1
  O  O645  1  0.640000  0.770000  0.008200  1
  O  O646  1  0.860000  0.991800  0.230000  1
  O  O647  1  0.360000  0.230000  0.991800  1
  O  O648  1  0.140000  0.008200  0.770000  1
  O  O649  1  0.638300  0.474500  0.276900  1
  O  O650  1  0.861700  0.723100  0.525500  1
  O  O651  1  0.361700  0.525500  0.723100  1
  O  O652  1  0.138300  0.276900  0.474500  1
  O  O653  1  0.928800  0.786700  0.721500  1
  O  O654  1  0.571200  0.278500  0.213300  1
  O  O655  1  0.071200  0.213300  0.278500  1
  O  O656  1  0.428800  0.721500  0.786700  1
  O  O657  1  0.327300  0.102000  0.906400  1
  O  O658  1  0.172700  0.093600  0.898000  1
  O  O659  1  0.672700  0.898000  0.093600  1
  O  O660  1  0.827300  0.906400  0.102000  1
  O  O661  1  0.176500  0.417700  0.570300  1
  O  O662  1  0.323500  0.429700  0.582300  1
  O  O663  1  0.823500  0.582300  0.429700  1
  O  O664  1  0.676500  0.570300  0.417700  1
  O  O665  1  0.190000  0.229200  0.711400  1
  O  O666  1  0.310000  0.288600  0.770800  1
  O  O667  1  0.810000  0.770800  0.288600  1
  O  O668  1  0.690000  0.711400  0.229200  1
  O  O669  1  0.141700  0.187300  0.675900  1
  O  O670  1  0.358300  0.324100  0.812700  1
  O  O671  1  0.858300  0.812700  0.324100  1
  O  O672  1  0.641700  0.675900  0.187300  1
  O  O673  1  0.150200  0.107200  0.780800  1
  O  O674  1  0.349800  0.219200  0.892800  1
  O  O675  1  0.849800  0.892800  0.219200  1
  O  O676  1  0.650200  0.780800  0.107200  1
  O  O677  1  0.815300  0.160800  0.625800  1
  O  O678  1  0.684700  0.374200  0.839200  1
  O  O679  1  0.184700  0.839200  0.374200  1
  O  O680  1  0.315300  0.625800  0.160800  1
  O  O681  1  0.010000  0.482100  0.088900  1
  O  O682  1  0.490000  0.911100  0.517900  1
  O  O683  1  0.990000  0.517900  0.911100  1
  O  O684  1  0.510000  0.088900  0.482100  1
  O  O685  1  0.000000  0.000000  0.500000  1
  O  O686  1  0.500000  0.500000  1.000000  1
  O  O687  1  0.691700  0.605700  0.107100  1
  O  O688  1  0.808300  0.892900  0.394300  1
  O  O689  1  0.308300  0.394300  0.892900  1
  O  O690  1  0.191700  0.107100  0.605700  1
  O  O691  1  0.537100  0.607800  0.107600  1
  O  O692  1  0.962900  0.892400  0.392200  1
  O  O693  1  0.462900  0.392200  0.892400  1
  O  O694  1  0.037100  0.107600  0.607800  1
  O  O695  1  0.616700  0.565000  0.166200  1
  O  O696  1  0.883300  0.833800  0.435000  1
  O  O697  1  0.383300  0.435000  0.833800  1
  O  O698  1  0.116700  0.166200  0.565000  1
  O  O699  1  0.798900  0.084700  0.712700  1
  O  O700  1  0.701100  0.287300  0.915300  1
  O  O701  1  0.201100  0.915300  0.287300  1
  O  O702  1  0.298900  0.712700  0.084700  1
  O  O703  1  0.149500  0.301200  0.586200  1
  O  O704  1  0.350500  0.413800  0.698800  1
  O  O705  1  0.850500  0.698800  0.413800  1
  O  O706  1  0.649500  0.586200  0.301200  1
  Pd  Pd707  1  0.764460  0.926280  0.745500  1
  Pd  Pd708  1  0.735540  0.254500  0.073720  1
  Pd  Pd709  1  0.235540  0.073720  0.254500  1
  Pd  Pd710  1  0.264460  0.745500  0.926280  1
  Pd  Pd711  1  0.478390  0.231990  0.717910  1
  Pd  Pd712  1  0.021610  0.282090  0.768010  1
  Pd  Pd713  1  0.521610  0.768010  0.282090  1
  Pd  Pd714  1  0.978390  0.717910  0.231990  1
  Pd  Pd715  1  0.767290  0.222480  0.423200  1
  Pd  Pd716  1  0.732710  0.576800  0.777520  1
  Pd  Pd717  1  0.232710  0.777520  0.576800  1
  Pd  Pd718  1  0.267290  0.423200  0.222480  1
