# generated using pymatgen
data_H48Pd3C42(N8O7)2
_symmetry_space_group_name_H-M   'P 1'
_cell_length_a   14.73190000
_cell_length_b   21.88070000
_cell_length_c   23.23150000
_cell_angle_alpha   90.00000000
_cell_angle_beta   90.00000000
_cell_angle_gamma   90.00000000
_symmetry_Int_Tables_number   1
_chemical_formula_structural   H48Pd3C42(N8O7)2
_chemical_formula_sum   'H192 Pd12 C168 N64 O56'
_cell_volume   7488.54124141
_cell_formula_units_Z   4
loop_
 _symmetry_equiv_pos_site_id
 _symmetry_equiv_pos_as_xyz
  1  'x, y, z'
loop_
 _atom_site_type_symbol
 _atom_site_label
 _atom_site_symmetry_multiplicity
 _atom_site_fract_x
 _atom_site_fract_y
 _atom_site_fract_z
 _atom_site_occupancy
  H  H1  1  0.722200  0.916100  0.562800  1.0
  H  H2  1  0.277800  0.583900  0.062800  1.0
  H  H3  1  0.277800  0.416100  0.062800  1.0
  H  H4  1  0.722200  0.083900  0.562800  1.0
  H  H5  1  0.626300  0.909000  0.576000  1.0
  H  H6  1  0.373700  0.591000  0.076000  1.0
  H  H7  1  0.373700  0.409000  0.076000  1.0
  H  H8  1  0.626300  0.091000  0.576000  1.0
  H  H9  1  0.740900  0.944600  0.636300  1.0
  H  H10  1  0.259100  0.555400  0.136300  1.0
  H  H11  1  0.259100  0.444600  0.136300  1.0
  H  H12  1  0.740900  0.055400  0.636300  1.0
  H  H13  1  0.637200  0.944600  0.647400  1.0
  H  H14  1  0.362800  0.555400  0.147400  1.0
  H  H15  1  0.362800  0.444600  0.147400  1.0
  H  H16  1  0.637200  0.055400  0.647400  1.0
  H  H17  1  0.107700  0.870500  0.599000  1.0
  H  H18  1  0.892300  0.629500  0.099000  1.0
  H  H19  1  0.892300  0.370500  0.099000  1.0
  H  H20  1  0.107700  0.129500  0.599000  1.0
  H  H21  1  0.048200  0.826100  0.571100  1.0
  H  H22  1  0.951800  0.673900  0.071100  1.0
  H  H23  1  0.951800  0.326100  0.071100  1.0
  H  H24  1  0.048200  0.173900  0.571100  1.0
  H  H25  1  0.108600  0.796400  0.671300  1.0
  H  H26  1  0.891400  0.703600  0.171300  1.0
  H  H27  1  0.891400  0.296400  0.171300  1.0
  H  H28  1  0.108600  0.203600  0.671300  1.0
  H  H29  1  0.101600  0.743400  0.625400  1.0
  H  H30  1  0.898400  0.756600  0.125400  1.0
  H  H31  1  0.898400  0.243400  0.125400  1.0
  H  H32  1  0.101600  0.256600  0.625400  1.0
  H  H33  1  0.245900  0.745500  0.656400  1.0
  H  H34  1  0.754100  0.754500  0.156400  1.0
  H  H35  1  0.754100  0.245500  0.156400  1.0
  H  H36  1  0.245900  0.254500  0.656400  1.0
  H  H37  1  0.251700  0.816300  0.647000  1.0
  H  H38  1  0.748300  0.683700  0.147000  1.0
  H  H39  1  0.748300  0.316300  0.147000  1.0
  H  H40  1  0.251700  0.183700  0.647000  1.0
  H  H41  1  0.250900  0.729900  0.566100  1.0
  H  H42  1  0.749100  0.770100  0.066100  1.0
  H  H43  1  0.749100  0.229900  0.066100  1.0
  H  H44  1  0.250900  0.270100  0.566100  1.0
  H  H45  1  0.319000  0.777200  0.575100  1.0
  H  H46  1  0.681000  0.722800  0.075100  1.0
  H  H47  1  0.681000  0.277200  0.075100  1.0
  H  H48  1  0.319000  0.222800  0.575100  1.0
  H  H49  1  0.062300  0.801500  0.421500  1.0
  H  H50  1  0.937700  0.698500  0.921500  1.0
  H  H51  1  0.937700  0.301500  0.921500  1.0
  H  H52  1  0.062300  0.198500  0.421500  1.0
  H  H53  1  0.956100  0.848900  0.371900  1.0
  H  H54  1  0.043900  0.651100  0.871900  1.0
  H  H55  1  0.043900  0.348900  0.871900  1.0
  H  H56  1  0.956100  0.151100  0.371900  1.0
  H  H57  1  0.945300  0.955700  0.372300  1.0
  H  H58  1  0.054700  0.544300  0.872300  1.0
  H  H59  1  0.054700  0.455700  0.872300  1.0
  H  H60  1  0.945300  0.044300  0.372300  1.0
  H  H61  1  0.201600  0.947400  0.525400  1.0
  H  H62  1  0.798400  0.552600  0.025400  1.0
  H  H63  1  0.798400  0.447400  0.025400  1.0
  H  H64  1  0.201600  0.052600  0.525400  1.0
  H  H65  1  0.204600  0.745000  0.414900  1.0
  H  H66  1  0.795400  0.755000  0.914900  1.0
  H  H67  1  0.795400  0.245000  0.914900  1.0
  H  H68  1  0.204600  0.255000  0.414900  1.0
  H  H69  1  0.320600  0.717700  0.348600  1.0
  H  H70  1  0.679400  0.782300  0.848600  1.0
  H  H71  1  0.679400  0.217700  0.848600  1.0
  H  H72  1  0.320600  0.282300  0.348600  1.0
  H  H73  1  0.444700  0.762500  0.340500  1.0
  H  H74  1  0.555300  0.737500  0.840500  1.0
  H  H75  1  0.555300  0.262500  0.840500  1.0
  H  H76  1  0.444700  0.237500  0.340500  1.0
  H  H77  1  0.575500  0.819500  0.335900  1.0
  H  H78  1  0.424500  0.680500  0.835900  1.0
  H  H79  1  0.424500  0.319500  0.835900  1.0
  H  H80  1  0.575500  0.180500  0.335900  1.0
  H  H81  1  0.715700  0.870800  0.354600  1.0
  H  H82  1  0.284300  0.629200  0.854600  1.0
  H  H83  1  0.284300  0.370800  0.854600  1.0
  H  H84  1  0.715700  0.129200  0.354600  1.0
  H  H85  1  0.728800  0.941300  0.419700  1.0
  H  H86  1  0.271200  0.558700  0.919700  1.0
  H  H87  1  0.271200  0.441300  0.919700  1.0
  H  H88  1  0.728800  0.058700  0.419700  1.0
  H  H89  1  0.471900  0.944300  0.523200  1.0
  H  H90  1  0.528100  0.555700  0.023200  1.0
  H  H91  1  0.528100  0.444300  0.023200  1.0
  H  H92  1  0.471900  0.055700  0.523200  1.0
  H  H93  1  0.342100  0.891200  0.524000  1.0
  H  H94  1  0.657900  0.608800  0.024000  1.0
  H  H95  1  0.657900  0.391200  0.024000  1.0
  H  H96  1  0.342100  0.108800  0.524000  1.0
  H  H97  1  0.364300  0.576900  0.461800  1.0
  H  H98  1  0.635700  0.923100  0.961800  1.0
  H  H99  1  0.635700  0.076900  0.961800  1.0
  H  H100  1  0.364300  0.423100  0.461800  1.0
  H  H101  1  0.273900  0.580300  0.487000  1.0
  H  H102  1  0.726100  0.919700  0.987000  1.0
  H  H103  1  0.726100  0.080300  0.987000  1.0
  H  H104  1  0.273900  0.419700  0.487000  1.0
  H  H105  1  0.323700  0.531600  0.397100  1.0
  H  H106  1  0.676300  0.968400  0.897100  1.0
  H  H107  1  0.676300  0.031600  0.897100  1.0
  H  H108  1  0.323700  0.468400  0.397100  1.0
  H  H109  1  0.229800  0.531600  0.425900  1.0
  H  H110  1  0.770200  0.968400  0.925900  1.0
  H  H111  1  0.770200  0.031600  0.925900  1.0
  H  H112  1  0.229800  0.468400  0.425900  1.0
  H  H113  1  0.680000  0.709100  0.476700  1.0
  H  H114  1  0.320000  0.790900  0.976700  1.0
  H  H115  1  0.320000  0.209100  0.976700  1.0
  H  H116  1  0.680000  0.290900  0.476700  1.0
  H  H117  1  0.732300  0.763200  0.491100  1.0
  H  H118  1  0.267700  0.736800  0.991100  1.0
  H  H119  1  0.267700  0.263200  0.991100  1.0
  H  H120  1  0.732300  0.236800  0.491100  1.0
  H  H121  1  0.747300  0.697500  0.386200  1.0
  H  H122  1  0.252700  0.802500  0.886200  1.0
  H  H123  1  0.252700  0.197500  0.886200  1.0
  H  H124  1  0.747300  0.302500  0.386200  1.0
  H  H125  1  0.773600  0.767200  0.394600  1.0
  H  H126  1  0.226400  0.732800  0.894600  1.0
  H  H127  1  0.226400  0.267200  0.894600  1.0
  H  H128  1  0.773600  0.232800  0.394600  1.0
  H  H129  1  0.907900  0.742800  0.438700  1.0
  H  H130  1  0.092100  0.757200  0.938700  1.0
  H  H131  1  0.092100  0.242800  0.938700  1.0
  H  H132  1  0.907900  0.257200  0.438700  1.0
  H  H133  1  0.903700  0.698000  0.387200  1.0
  H  H134  1  0.096300  0.802000  0.887200  1.0
  H  H135  1  0.096300  0.198000  0.887200  1.0
  H  H136  1  0.903700  0.302000  0.387200  1.0
  H  H137  1  0.952000  0.660300  0.476100  1.0
  H  H138  1  0.048000  0.839700  0.976100  1.0
  H  H139  1  0.048000  0.160300  0.976100  1.0
  H  H140  1  0.952000  0.339700  0.476100  1.0
  H  H141  1  0.881300  0.622900  0.449400  1.0
  H  H142  1  0.118700  0.877100  0.949400  1.0
  H  H143  1  0.118700  0.122900  0.949400  1.0
  H  H144  1  0.881300  0.377100  0.449400  1.0
  H  H145  1  0.938400  0.700600  0.620100  1.0
  H  H146  1  0.061600  0.799400  0.120100  1.0
  H  H147  1  0.061600  0.200600  0.120100  1.0
  H  H148  1  0.938400  0.299400  0.620100  1.0
  H  H149  1  0.044900  0.657900  0.686500  1.0
  H  H150  1  0.955100  0.842100  0.186500  1.0
  H  H151  1  0.955100  0.157900  0.186500  1.0
  H  H152  1  0.044900  0.342100  0.686500  1.0
  H  H153  1  0.039400  0.549200  0.692400  1.0
  H  H154  1  0.960600  0.950800  0.192400  1.0
  H  H155  1  0.960600  0.049200  0.192400  1.0
  H  H156  1  0.039400  0.450800  0.692400  1.0
  H  H157  1  0.802300  0.548100  0.519100  1.0
  H  H158  1  0.197700  0.951900  0.019100  1.0
  H  H159  1  0.197700  0.048100  0.019100  1.0
  H  H160  1  0.802300  0.451900  0.519100  1.0
  H  H161  1  0.794900  0.769000  0.611800  1.0
  H  H162  1  0.205100  0.731000  0.111800  1.0
  H  H163  1  0.205100  0.269000  0.111800  1.0
  H  H164  1  0.794900  0.231000  0.611800  1.0
  H  H165  1  0.728600  0.758700  0.690400  1.0
  H  H166  1  0.271400  0.741300  0.190400  1.0
  H  H167  1  0.271400  0.258700  0.190400  1.0
  H  H168  1  0.728600  0.241300  0.690400  1.0
  H  H169  1  0.555400  0.733100  0.708000  1.0
  H  H170  1  0.444600  0.766900  0.208000  1.0
  H  H171  1  0.444600  0.233100  0.208000  1.0
  H  H172  1  0.555400  0.266900  0.708000  1.0
  H  H173  1  0.419500  0.697400  0.707100  1.0
  H  H174  1  0.580500  0.802600  0.207100  1.0
  H  H175  1  0.580500  0.197400  0.207100  1.0
  H  H176  1  0.419500  0.302600  0.707100  1.0
  H  H177  1  0.289400  0.637400  0.711000  1.0
  H  H178  1  0.710600  0.862600  0.211000  1.0
  H  H179  1  0.710600  0.137400  0.211000  1.0
  H  H180  1  0.289400  0.362600  0.711000  1.0
  H  H181  1  0.268200  0.553100  0.640500  1.0
  H  H182  1  0.731800  0.946900  0.140500  1.0
  H  H183  1  0.731800  0.053100  0.140500  1.0
  H  H184  1  0.268200  0.446900  0.640500  1.0
  H  H185  1  0.526900  0.555000  0.533200  1.0
  H  H186  1  0.473100  0.945000  0.033200  1.0
  H  H187  1  0.473100  0.055000  0.033200  1.0
  H  H188  1  0.526900  0.445000  0.533200  1.0
  H  H189  1  0.659400  0.608300  0.533200  1.0
  H  H190  1  0.340600  0.891700  0.033200  1.0
  H  H191  1  0.340600  0.108300  0.033200  1.0
  H  H192  1  0.659400  0.391700  0.533200  1.0
  Pd  Pd193  1  0.640850  0.000000  0.512500  1
  Pd  Pd194  1  0.359150  0.500000  0.012500  1
  Pd  Pd195  1  0.361390  0.500000  0.542700  1
  Pd  Pd196  1  0.638610  0.000000  0.042700  1
  Pd  Pd197  1  0.192840  0.824450  0.520250  1.0
  Pd  Pd198  1  0.807160  0.675550  0.020250  1.0
  Pd  Pd199  1  0.807160  0.324450  0.020250  1.0
  Pd  Pd200  1  0.192840  0.175550  0.520250  1.0
  Pd  Pd201  1  0.809710  0.675530  0.534560  1.0
  Pd  Pd202  1  0.190290  0.824470  0.034560  1.0
  Pd  Pd203  1  0.190290  0.175530  0.034560  1.0
  Pd  Pd204  1  0.809710  0.324470  0.534560  1.0
  C  C205  1  0.684000  0.959000  0.622000  1.0
  C  C206  1  0.316000  0.541000  0.122000  1.0
  C  C207  1  0.316000  0.459000  0.122000  1.0
  C  C208  1  0.684000  0.041000  0.622000  1.0
  C  C209  1  0.129000  0.783000  0.634000  1.0
  C  C210  1  0.871000  0.717000  0.134000  1.0
  C  C211  1  0.871000  0.283000  0.134000  1.0
  C  C212  1  0.129000  0.217000  0.634000  1.0
  C  C213  1  0.226000  0.778700  0.631900  1.0
  C  C214  1  0.774000  0.721300  0.131900  1.0
  C  C215  1  0.774000  0.278700  0.131900  1.0
  C  C216  1  0.226000  0.221300  0.631900  1.0
  C  C217  1  0.055000  0.843400  0.425800  1.0
  C  C218  1  0.945000  0.656600  0.925800  1.0
  C  C219  1  0.945000  0.343400  0.925800  1.0
  C  C220  1  0.055000  0.156600  0.425800  1.0
  C  C221  1  0.995000  0.871700  0.394900  1.0
  C  C222  1  0.005000  0.628300  0.894900  1.0
  C  C223  1  0.005000  0.371700  0.894900  1.0
  C  C224  1  0.995000  0.128300  0.394900  1.0
  C  C225  1  0.987400  0.935100  0.394900  1.0
  C  C226  1  0.012600  0.564900  0.894900  1.0
  C  C227  1  0.012600  0.435100  0.894900  1.0
  C  C228  1  0.987400  0.064900  0.394900  1.0
  C  C229  1  0.044000  0.963700  0.429300  1.0
  C  C230  1  0.956000  0.536300  0.929300  1.0
  C  C231  1  0.956000  0.463700  0.929300  1.0
  C  C232  1  0.044000  0.036300  0.429300  1.0
  C  C233  1  0.105000  0.934000  0.465300  1.0
  C  C234  1  0.895000  0.566000  0.965300  1.0
  C  C235  1  0.895000  0.434000  0.965300  1.0
  C  C236  1  0.105000  0.066000  0.465300  1.0
  C  C237  1  0.162200  0.967900  0.500800  1.0
  C  C238  1  0.837800  0.532100  0.000800  1.0
  C  C239  1  0.837800  0.467900  0.000800  1.0
  C  C240  1  0.162200  0.032100  0.500800  1.0
  C  C241  1  0.261000  0.763800  0.415200  1.0
  C  C242  1  0.739000  0.736200  0.915200  1.0
  C  C243  1  0.739000  0.263800  0.915200  1.0
  C  C244  1  0.261000  0.236200  0.415200  1.0
  C  C245  1  0.332100  0.749600  0.373900  1.0
  C  C246  1  0.667900  0.750400  0.873900  1.0
  C  C247  1  0.667900  0.249600  0.873900  1.0
  C  C248  1  0.332100  0.250400  0.373900  1.0
  C  C249  1  0.404900  0.775100  0.369200  1.0
  C  C250  1  0.595100  0.724900  0.869200  1.0
  C  C251  1  0.595100  0.275100  0.869200  1.0
  C  C252  1  0.404900  0.224900  0.369200  1.0
  C  C253  1  0.432000  0.825900  0.408100  1.0
  C  C254  1  0.568000  0.674100  0.908100  1.0
  C  C255  1  0.568000  0.325900  0.908100  1.0
  C  C256  1  0.432000  0.174100  0.408100  1.0
  C  C257  1  0.517200  0.854900  0.409800  1.0
  C  C258  1  0.482800  0.645100  0.909800  1.0
  C  C259  1  0.482800  0.354900  0.909800  1.0
  C  C260  1  0.517200  0.145100  0.409800  1.0
  C  C261  1  0.584000  0.845200  0.367400  1.0
  C  C262  1  0.416000  0.654800  0.867400  1.0
  C  C263  1  0.416000  0.345200  0.867400  1.0
  C  C264  1  0.584000  0.154800  0.367400  1.0
  C  C265  1  0.666000  0.879000  0.378000  1.0
  C  C266  1  0.334000  0.621000  0.878000  1.0
  C  C267  1  0.334000  0.379000  0.878000  1.0
  C  C268  1  0.666000  0.121000  0.378000  1.0
  C  C269  1  0.674000  0.920000  0.418000  1.0
  C  C270  1  0.326000  0.580000  0.918000  1.0
  C  C271  1  0.326000  0.420000  0.918000  1.0
  C  C272  1  0.674000  0.080000  0.418000  1.0
  C  C273  1  0.536800  0.899600  0.451800  1.0
  C  C274  1  0.463200  0.600400  0.951800  1.0
  C  C275  1  0.463200  0.399600  0.951800  1.0
  C  C276  1  0.536800  0.100400  0.451800  1.0
  C  C277  1  0.462400  0.913900  0.495900  1.0
  C  C278  1  0.537600  0.586100  0.995900  1.0
  C  C279  1  0.537600  0.413900  0.995900  1.0
  C  C280  1  0.462400  0.086100  0.495900  1.0
  C  C281  1  0.384900  0.883300  0.495500  1.0
  C  C282  1  0.615100  0.616700  0.995500  1.0
  C  C283  1  0.615100  0.383300  0.995500  1.0
  C  C284  1  0.384900  0.116700  0.495500  1.0
  C  C285  1  0.364600  0.836900  0.450800  1.0
  C  C286  1  0.635400  0.663100  0.950800  1.0
  C  C287  1  0.635400  0.336900  0.950800  1.0
  C  C288  1  0.364600  0.163100  0.450800  1.0
  C  C289  1  0.292000  0.519400  0.431000  1.0
  C  C290  1  0.708000  0.980600  0.931000  1.0
  C  C291  1  0.708000  0.019400  0.931000  1.0
  C  C292  1  0.292000  0.480600  0.431000  1.0
  C  C293  1  0.778000  0.727000  0.411000  1.0
  C  C294  1  0.222000  0.773000  0.911000  1.0
  C  C295  1  0.222000  0.227000  0.911000  1.0
  C  C296  1  0.778000  0.273000  0.411000  1.0
  C  C297  1  0.876100  0.708000  0.423400  1.0
  C  C298  1  0.123900  0.792000  0.923400  1.0
  C  C299  1  0.123900  0.208000  0.923400  1.0
  C  C300  1  0.876100  0.292000  0.423400  1.0
  C  C301  1  0.942000  0.658200  0.622000  1.0
  C  C302  1  0.058000  0.841800  0.122000  1.0
  C  C303  1  0.058000  0.158200  0.122000  1.0
  C  C304  1  0.942000  0.341800  0.622000  1.0
  C  C305  1  0.007000  0.634100  0.664000  1.0
  C  C306  1  0.993000  0.865900  0.164000  1.0
  C  C307  1  0.993000  0.134100  0.164000  1.0
  C  C308  1  0.007000  0.365900  0.664000  1.0
  C  C309  1  0.005000  0.568600  0.664000  1.0
  C  C310  1  0.995000  0.931400  0.164000  1.0
  C  C311  1  0.995000  0.068600  0.164000  1.0
  C  C312  1  0.005000  0.431400  0.664000  1.0
  C  C313  1  0.954900  0.531000  0.627300  1.0
  C  C314  1  0.045100  0.969000  0.127300  1.0
  C  C315  1  0.045100  0.031000  0.127300  1.0
  C  C316  1  0.954900  0.469000  0.627300  1.0
  C  C317  1  0.893800  0.565200  0.590900  1.0
  C  C318  1  0.106200  0.934800  0.090900  1.0
  C  C319  1  0.106200  0.065200  0.090900  1.0
  C  C320  1  0.893800  0.434800  0.590900  1.0
  C  C321  1  0.837000  0.527400  0.546300  1.0
  C  C322  1  0.163000  0.972600  0.046300  1.0
  C  C323  1  0.163000  0.027400  0.046300  1.0
  C  C324  1  0.837000  0.472600  0.546300  1.0
  C  C325  1  0.749000  0.742000  0.623000  1.0
  C  C326  1  0.251000  0.758000  0.123000  1.0
  C  C327  1  0.251000  0.242000  0.123000  1.0
  C  C328  1  0.749000  0.258000  0.623000  1.0
  C  C329  1  0.701000  0.741000  0.658000  1.0
  C  C330  1  0.299000  0.759000  0.158000  1.0
  C  C331  1  0.299000  0.241000  0.158000  1.0
  C  C332  1  0.701000  0.259000  0.658000  1.0
  C  C333  1  0.591000  0.718000  0.678000  1.0
  C  C334  1  0.409000  0.782000  0.178000  1.0
  C  C335  1  0.409000  0.218000  0.178000  1.0
  C  C336  1  0.591000  0.282000  0.678000  1.0
  C  C337  1  0.571400  0.677000  0.641500  1.0
  C  C338  1  0.428600  0.823000  0.141500  1.0
  C  C339  1  0.428600  0.177000  0.141500  1.0
  C  C340  1  0.571400  0.323000  0.641500  1.0
  C  C341  1  0.488000  0.641400  0.644000  1.0
  C  C342  1  0.512000  0.858600  0.144000  1.0
  C  C343  1  0.512000  0.141400  0.144000  1.0
  C  C344  1  0.488000  0.358600  0.644000  1.0
  C  C345  1  0.412900  0.663000  0.684000  1.0
  C  C346  1  0.587100  0.837000  0.184000  1.0
  C  C347  1  0.587100  0.163000  0.184000  1.0
  C  C348  1  0.412900  0.337000  0.684000  1.0
  C  C349  1  0.335000  0.629000  0.684300  1.0
  C  C350  1  0.665000  0.871000  0.184300  1.0
  C  C351  1  0.665000  0.129000  0.184300  1.0
  C  C352  1  0.335000  0.371000  0.684300  1.0
  C  C353  1  0.321000  0.576400  0.640900  1.0
  C  C354  1  0.679000  0.923600  0.140900  1.0
  C  C355  1  0.679000  0.076400  0.140900  1.0
  C  C356  1  0.321000  0.423600  0.640900  1.0
  C  C357  1  0.472000  0.595000  0.601600  1.0
  C  C358  1  0.528000  0.905000  0.101600  1.0
  C  C359  1  0.528000  0.095000  0.101600  1.0
  C  C360  1  0.472000  0.405000  0.601600  1.0
  C  C361  1  0.536700  0.584400  0.561500  1.0
  C  C362  1  0.463300  0.915600  0.061500  1.0
  C  C363  1  0.463300  0.084400  0.061500  1.0
  C  C364  1  0.536700  0.415600  0.561500  1.0
  C  C365  1  0.618000  0.617000  0.562200  1.0
  C  C366  1  0.382000  0.883000  0.062200  1.0
  C  C367  1  0.382000  0.117000  0.062200  1.0
  C  C368  1  0.618000  0.383000  0.562200  1.0
  C  C369  1  0.643000  0.661700  0.602400  1.0
  C  C370  1  0.357000  0.838300  0.102400  1.0
  C  C371  1  0.357000  0.161700  0.102400  1.0
  C  C372  1  0.643000  0.338300  0.602400  1.0
  N  N373  1  0.113900  0.651700  0.523600  1
  N  N374  1  0.886100  0.848300  0.023600  1
  N  N375  1  0.886100  0.151700  0.023600  1
  N  N376  1  0.113900  0.348300  0.523600  1
  N  N377  1  0.876500  0.847900  0.536400  1
  N  N378  1  0.123500  0.652100  0.036400  1
  N  N379  1  0.123500  0.347900  0.036400  1
  N  N380  1  0.876500  0.152100  0.536400  1
  N  N381  1  0.351000  0.000000  0.600000  1
  N  N382  1  0.649000  0.500000  0.100000  1
  N  N383  1  0.473000  0.765000  0.560000  1
  N  N384  1  0.527000  0.735000  0.060000  1
  N  N385  1  0.527000  0.265000  0.060000  1
  N  N386  1  0.473000  0.235000  0.560000  1
  N  N387  1  0.812000  0.000000  0.276000  1
  N  N388  1  0.188000  0.500000  0.776000  1
  N  N389  1  0.671900  0.936300  0.573900  1.0
  N  N390  1  0.328100  0.563700  0.073900  1.0
  N  N391  1  0.328100  0.436300  0.073900  1.0
  N  N392  1  0.671900  0.063700  0.573900  1.0
  N  N393  1  0.104900  0.832500  0.584200  1.0
  N  N394  1  0.895100  0.667500  0.084200  1.0
  N  N395  1  0.895100  0.332500  0.084200  1.0
  N  N396  1  0.104900  0.167500  0.584200  1.0
  N  N397  1  0.259100  0.769200  0.576200  1.0
  N  N398  1  0.740900  0.730800  0.076200  1.0
  N  N399  1  0.740900  0.269200  0.076200  1.0
  N  N400  1  0.259100  0.230800  0.576200  1.0
  N  N401  1  0.108400  0.874500  0.465300  1.0
  N  N402  1  0.891600  0.625500  0.965300  1.0
  N  N403  1  0.891600  0.374500  0.965300  1.0
  N  N404  1  0.108400  0.125500  0.465300  1.0
  N  N405  1  0.285100  0.807800  0.454800  1.0
  N  N406  1  0.714900  0.692200  0.954800  1.0
  N  N407  1  0.714900  0.307800  0.954800  1.0
  N  N408  1  0.285100  0.192200  0.454800  1.0
  N  N409  1  0.611000  0.933400  0.455200  1.0
  N  N410  1  0.389000  0.566600  0.955200  1.0
  N  N411  1  0.389000  0.433400  0.955200  1.0
  N  N412  1  0.611000  0.066600  0.455200  1.0
  N  N413  1  0.317500  0.554000  0.475000  1.0
  N  N414  1  0.682500  0.946000  0.975000  1.0
  N  N415  1  0.682500  0.054000  0.975000  1.0
  N  N416  1  0.317500  0.446000  0.475000  1.0
  N  N417  1  0.736600  0.724600  0.478000  1.0
  N  N418  1  0.263400  0.775400  0.978000  1.0
  N  N419  1  0.263400  0.224600  0.978000  1.0
  N  N420  1  0.736600  0.275400  0.478000  1.0
  N  N421  1  0.893500  0.659700  0.465000  1.0
  N  N422  1  0.106500  0.840300  0.965000  1.0
  N  N423  1  0.106500  0.159700  0.965000  1.0
  N  N424  1  0.893500  0.340300  0.465000  1.0
  N  N425  1  0.889200  0.628500  0.587000  1.0
  N  N426  1  0.110800  0.871500  0.087000  1.0
  N  N427  1  0.110800  0.128500  0.087000  1.0
  N  N428  1  0.889200  0.371500  0.587000  1.0
  N  N429  1  0.714300  0.689900  0.599600  1.0
  N  N430  1  0.285700  0.810100  0.099600  1.0
  N  N431  1  0.285700  0.189900  0.099600  1.0
  N  N432  1  0.714300  0.310100  0.599600  1.0
  N  N433  1  0.386100  0.566300  0.605300  1.0
  N  N434  1  0.613900  0.933700  0.105300  1.0
  N  N435  1  0.613900  0.066300  0.105300  1.0
  N  N436  1  0.386100  0.433700  0.605300  1.0
  O  O437  1  0.169000  0.500000  0.554800  1
  O  O438  1  0.831000  1.000000  0.054800  1
  O  O439  1  0.586000  0.718000  0.282000  1
  O  O440  1  0.414000  0.782000  0.782000  1
  O  O441  1  0.414000  0.218000  0.782000  1
  O  O442  1  0.586000  0.282000  0.282000  1
  O  O443  1  0.844000  0.000000  0.480400  1
  O  O444  1  0.156000  0.500000  0.980400  1
  O  O445  1  0.082500  0.700700  0.512000  1
  O  O446  1  0.917500  0.799300  0.012000  1
  O  O447  1  0.917500  0.200700  0.012000  1
  O  O448  1  0.082500  0.299300  0.512000  1
  O  O449  1  0.083900  0.605300  0.513000  1
  O  O450  1  0.916100  0.894700  0.013000  1
  O  O451  1  0.916100  0.105300  0.013000  1
  O  O452  1  0.083900  0.394700  0.513000  1
  O  O453  1  0.199300  0.653100  0.533000  1
  O  O454  1  0.800700  0.846900  0.033000  1
  O  O455  1  0.800700  0.153100  0.033000  1
  O  O456  1  0.199300  0.346900  0.533000  1
  O  O457  1  0.914900  0.798700  0.546200  1
  O  O458  1  0.085100  0.701300  0.046200  1
  O  O459  1  0.085100  0.298700  0.046200  1
  O  O460  1  0.914900  0.201300  0.546200  1
  O  O461  1  0.925900  0.896700  0.539700  1
  O  O462  1  0.074100  0.603300  0.039700  1
  O  O463  1  0.074100  0.396700  0.039700  1
  O  O464  1  0.925900  0.103300  0.539700  1
  O  O465  1  0.799000  0.851300  0.515000  1
  O  O466  1  0.201000  0.648700  0.015000  1
  O  O467  1  0.201000  0.351300  0.015000  1
  O  O468  1  0.799000  0.148700  0.515000  1
  O  O469  1  0.438000  0.000000  0.612000  1
  O  O470  1  0.562000  0.500000  0.112000  1
  O  O471  1  0.446000  0.796800  0.604600  1
  O  O472  1  0.554000  0.703200  0.104600  1
  O  O473  1  0.554000  0.296800  0.104600  1
  O  O474  1  0.446000  0.203200  0.604600  1
  O  O475  1  0.438000  0.704000  0.507000  1
  O  O476  1  0.562000  0.796000  0.007000  1
  O  O477  1  0.562000  0.204000  0.007000  1
  O  O478  1  0.438000  0.296000  0.507000  1
  O  O479  1  0.566000  0.798000  0.549000  1
  O  O480  1  0.434000  0.702000  0.049000  1
  O  O481  1  0.434000  0.298000  0.049000  1
  O  O482  1  0.566000  0.202000  0.549000  1
  O  O483  1  0.753000  0.000000  0.234000  1
  O  O484  1  0.247000  0.500000  0.734000  1
  O  O485  1  0.806000  0.000000  0.329200  1
  O  O486  1  0.194000  0.500000  0.829200  1
  O  O487  1  0.979000  0.000000  0.258000  1
  O  O488  1  0.021000  0.500000  0.758000  1
  O  O489  1  0.313000  0.955000  0.615100  1.0
  O  O490  1  0.687000  0.545000  0.115100  1.0
  O  O491  1  0.687000  0.455000  0.115100  1.0
  O  O492  1  0.313000  0.045000  0.615100  1.0
