# generated using pymatgen
data_Zn4H149C155N43Cl8O51
_symmetry_space_group_name_H-M   'P 1'
_cell_length_a   20.96580000
_cell_length_b   21.89920000
_cell_length_c   21.92850000
_cell_angle_alpha   60.57000000
_cell_angle_beta   78.87500000
_cell_angle_gamma   89.37700000
_symmetry_Int_Tables_number   1
_chemical_formula_structural   Zn4H149C155N43Cl8O51
_chemical_formula_sum   'Zn8 H298 C310 N86 Cl16 O102'
_cell_volume   8562.52034803
_cell_formula_units_Z   2
loop_
 _symmetry_equiv_pos_site_id
 _symmetry_equiv_pos_as_xyz
  1  'x, y, z'
loop_
 _atom_site_type_symbol
 _atom_site_label
 _atom_site_symmetry_multiplicity
 _atom_site_fract_x
 _atom_site_fract_y
 _atom_site_fract_z
 _atom_site_occupancy
  Zn  Zn1  1  0.443890  0.650650  0.111360  1.0
  Zn  Zn2  1  0.556110  0.349350  0.888640  1.0
  Zn  Zn3  1  0.371920  0.934850  0.358750  1.0
  Zn  Zn4  1  0.628080  0.065150  0.641250  1.0
  Zn  Zn5  1  0.867140  0.477050  0.196980  1.0
  Zn  Zn6  1  0.132860  0.522950  0.803020  1.0
  Zn  Zn7  1  0.203310  0.253330  0.531920  1.0
  Zn  Zn8  1  0.796690  0.746670  0.468080  1.0
  H  H9  1  0.822200  0.804700  0.658100  1
  H  H10  1  0.177800  0.195300  0.341900  1
  H  H11  1  0.866000  0.807700  0.707200  1
  H  H12  1  0.134000  0.192300  0.292800  1
  H  H13  1  0.790600  0.786300  0.736700  1
  H  H14  1  0.209400  0.213700  0.263300  1
  H  H15  1  0.720500  0.007600  0.024900  1
  H  H16  1  0.279500  0.992400  0.975100  1
  H  H17  1  0.735600  0.089700  0.985800  1
  H  H18  1  0.264400  0.910300  0.014200  1
  H  H19  1  0.694000  0.055800  0.955800  1
  H  H20  1  0.306000  0.944200  0.044200  1
  H  H21  1  0.007700  0.293900  0.988400  1
  H  H22  1  0.992300  0.706100  0.011600  1
  H  H23  1  0.013600  0.248600  0.068600  1
  H  H24  1  0.986400  0.751400  0.931400  1
  H  H25  1  0.963600  0.305500  0.047500  1
  H  H26  1  0.036400  0.694500  0.952500  1
  H  H27  1  0.113100  0.073100  0.975800  1
  H  H28  1  0.886900  0.926900  0.024200  1
  H  H29  1  0.159600  0.013400  0.988700  1
  H  H30  1  0.840400  0.986600  0.011300  1
  H  H31  1  0.085900  0.994100  0.028600  1
  H  H32  1  0.914100  0.005900  0.971400  1
  H  H33  1  0.947800  0.828900  0.833300  1
  H  H34  1  0.052200  0.171100  0.166700  1
  H  H35  1  0.764500  0.846800  0.858200  1
  H  H36  1  0.235500  0.153200  0.141800  1
  H  H37  1  0.787300  0.782600  0.921600  1
  H  H38  1  0.212700  0.217400  0.078400  1
  H  H39  1  0.788900  0.782800  0.849700  1
  H  H40  1  0.211100  0.217200  0.150300  1
  H  H41  1  0.812400  0.929500  0.801100  1
  H  H42  1  0.187600  0.070500  0.198900  1
  H  H43  1  0.857900  0.915900  0.744100  1
  H  H44  1  0.142100  0.084100  0.255900  1
  H  H45  1  0.888300  0.945500  0.785500  1
  H  H46  1  0.111700  0.054500  0.214500  1
  H  H47  1  0.925700  0.053200  0.830600  1
  H  H48  1  0.074300  0.946800  0.169400  1
  H  H49  1  0.001700  0.025900  0.772300  1
  H  H50  1  0.998300  0.974100  0.227700  1
  H  H51  1  0.021700  0.079900  0.689900  1
  H  H52  1  0.978300  0.920100  0.310100  1
  H  H53  1  0.974400  0.012200  0.717900  1
  H  H54  1  0.025600  0.987800  0.282100  1
  H  H55  1  0.900900  0.097700  0.652100  1
  H  H56  1  0.099100  0.902300  0.347900  1
  H  H57  1  0.963700  0.147500  0.632300  1
  H  H58  1  0.036300  0.852500  0.367700  1
  H  H59  1  0.895800  0.162300  0.664600  1
  H  H60  1  0.104200  0.837700  0.335400  1
  H  H61  1  0.877400  0.929700  0.864000  1
  H  H62  1  0.122600  0.070300  0.136000  1
  H  H63  1  0.881200  0.858100  0.932800  1
  H  H64  1  0.118800  0.141900  0.067200  1
  H  H65  1  0.823700  0.904000  0.934300  1
  H  H66  1  0.176300  0.096000  0.065700  1
  H  H67  1  0.281900  0.716700  0.953200  1.0
  H  H68  1  0.718100  0.283300  0.046800  1.0
  H  H69  1  0.345300  0.707000  0.856800  1.0
  H  H70  1  0.654700  0.293000  0.143200  1.0
  H  H71  1  0.454900  0.690100  0.854700  1.0
  H  H72  1  0.545100  0.309900  0.145300  1.0
  H  H73  1  0.497100  0.676200  0.950300  1.0
  H  H74  1  0.502900  0.323800  0.049700  1.0
  H  H75  1  0.228400  0.742400  0.053000  1.0
  H  H76  1  0.771600  0.257600  0.947000  1.0
  H  H77  1  0.215900  0.730600  0.174100  1.0
  H  H78  1  0.784100  0.269400  0.825900  1.0
  H  H79  1  0.351300  0.650500  0.254100  1.0
  H  H80  1  0.648700  0.349500  0.745900  1.0
  H  H81  1  0.288700  0.684400  0.270100  1.0
  H  H82  1  0.711300  0.315600  0.729900  1.0
  H  H83  1  0.583200  0.088100  0.256200  1.0
  H  H84  1  0.416800  0.911900  0.743800  1.0
  H  H85  1  0.548700  0.177800  0.280300  1.0
  H  H86  1  0.451300  0.822200  0.719700  1.0
  H  H87  1  0.441500  0.168900  0.337700  1.0
  H  H88  1  0.558500  0.831100  0.662300  1.0
  H  H89  1  0.370900  0.074600  0.370600  1.0
  H  H90  1  0.629100  0.925400  0.629400  1.0
  H  H91  1  0.610700  0.989700  0.233400  1.0
  H  H92  1  0.389300  0.010300  0.766600  1.0
  H  H93  1  0.590700  0.872100  0.246400  1.0
  H  H94  1  0.409300  0.127900  0.753600  1.0
  H  H95  1  0.435000  0.784900  0.362900  1.0
  H  H96  1  0.565000  0.215100  0.637100  1.0
  H  H97  1  0.499200  0.767700  0.326700  1.0
  H  H98  1  0.500800  0.232300  0.673300  1.0
  H  H99  1  0.397800  0.708400  0.312300  1.0
  H  H100  1  0.602200  0.291600  0.687700  1.0
  H  H101  1  0.465500  0.913000  0.188000  1.0
  H  H102  1  0.534500  0.087000  0.812000  1.0
  H  H103  1  0.414300  0.919600  0.101000  1.0
  H  H104  1  0.585700  0.080400  0.899000  1.0
  H  H105  1  0.353000  0.822600  0.118800  1.0
  H  H106  1  0.647000  0.177400  0.881200  1.0
  H  H107  1  0.433700  0.413400  0.129500  1.0
  H  H108  1  0.566300  0.586600  0.870500  1.0
  H  H109  1  0.322000  0.378900  0.177000  1.0
  H  H110  1  0.678000  0.621100  0.823000  1.0
  H  H111  1  0.255700  0.455300  0.197800  1.0
  H  H112  1  0.744300  0.544700  0.802200  1.0
  H  H113  1  0.303500  0.560500  0.176900  1.0
  H  H114  1  0.696500  0.439500  0.823100  1.0
  H  H115  1  0.545000  0.475500  0.045400  1.0
  H  H116  1  0.455000  0.524500  0.954600  1.0
  H  H117  1  0.637700  0.567700  0.991400  1.0
  H  H118  1  0.362300  0.432300  0.008600  1.0
  H  H119  1  0.599600  0.711000  0.024400  1.0
  H  H120  1  0.400400  0.289000  0.975600  1.0
  H  H121  1  0.658800  0.686900  0.988500  1.0
  H  H122  1  0.341200  0.313100  0.011500  1.0
  H  H123  1  0.873600  0.360300  0.455400  1.0
  H  H124  1  0.126400  0.639700  0.544600  1.0
  H  H125  1  0.981800  0.336000  0.447900  1.0
  H  H126  1  0.018200  0.664000  0.552100  1.0
  H  H127  1  0.049400  0.376300  0.333800  1.0
  H  H128  1  0.950600  0.623700  0.666200  1.0
  H  H129  1  0.007500  0.440000  0.232700  1.0
  H  H130  1  0.992500  0.560000  0.767300  1.0
  H  H131  1  0.766600  0.419800  0.450100  1.0
  H  H132  1  0.233400  0.580200  0.549900  1.0
  H  H133  1  0.670600  0.458000  0.396800  1.0
  H  H134  1  0.329400  0.542000  0.603200  1.0
  H  H135  1  0.638600  0.468600  0.284600  1.0
  H  H136  1  0.361400  0.531400  0.715400  1.0
  H  H137  1  0.692800  0.458600  0.231100  1.0
  H  H138  1  0.307200  0.541400  0.768900  1.0
  H  H139  1  0.632600  0.546700  0.144200  1.0
  H  H140  1  0.367400  0.453300  0.855800  1.0
  H  H141  1  0.740200  0.600700  0.245600  1.0
  H  H142  1  0.259800  0.399300  0.754400  1.0
  H  H143  1  0.744200  0.719300  0.156600  1.0
  H  H144  1  0.255800  0.280700  0.843400  1.0
  H  H145  1  0.688700  0.749100  0.067500  1.0
  H  H146  1  0.311300  0.250900  0.932500  1.0
  H  H147  1  0.586900  0.806100  0.149100  1.0
  H  H148  1  0.413100  0.193900  0.850900  1.0
  H  H149  1  0.585500  0.910400  0.044300  1.0
  H  H150  1  0.414500  0.089600  0.955700  1.0
  H  H151  1  0.526400  0.913300  0.964800  1.0
  H  H152  1  0.473600  0.086700  0.035200  1.0
  H  H153  1  0.475400  0.809000  0.986900  1.0
  H  H154  1  0.524600  0.191000  0.013100  1.0
  H  H155  1  0.584000  0.687600  0.256400  1.0
  H  H156  1  0.416000  0.312400  0.743600  1.0
  H  H157  1  0.550400  0.560400  0.337900  1.0
  H  H158  1  0.449600  0.439600  0.662100  1.0
  H  H159  1  0.475400  0.466400  0.338600  1.0
  H  H160  1  0.524600  0.533600  0.661400  1.0
  H  H161  1  0.452900  0.488700  0.266900  1.0
  H  H162  1  0.547100  0.511300  0.733100  1.0
  H  H163  1  0.007700  0.327300  0.636600  1.0
  H  H164  1  0.992300  0.672700  0.363400  1.0
  H  H165  1  0.991600  0.237700  0.755700  1.0
  H  H166  1  0.008400  0.762300  0.244300  1.0
  H  H167  1  0.068500  0.155300  0.787700  1.0
  H  H168  1  0.931500  0.844700  0.212300  1.0
  H  H169  1  0.150400  0.158700  0.700100  1.0
  H  H170  1  0.849600  0.841300  0.299900  1.0
  H  H171  1  0.027700  0.417800  0.502400  1.0
  H  H172  1  0.972300  0.582200  0.497600  1.0
  H  H173  1  0.095800  0.482200  0.379100  1.0
  H  H174  1  0.904200  0.517800  0.620900  1.0
  H  H175  1  0.202300  0.459700  0.311800  1.0
  H  H176  1  0.797700  0.540300  0.688200  1.0
  H  H177  1  0.230500  0.387600  0.354200  1.0
  H  H178  1  0.769500  0.612400  0.645800  1.0
  H  H179  1  0.342800  0.443400  0.308000  1.0
  H  H180  1  0.657200  0.556600  0.692000  1.0
  H  H181  1  0.214500  0.504000  0.422700  1.0
  H  H182  1  0.785500  0.496000  0.577300  1.0
  H  H183  1  0.300600  0.560400  0.435200  1.0
  H  H184  1  0.699400  0.439600  0.564800  1.0
  H  H185  1  0.406700  0.558700  0.383800  1.0
  H  H186  1  0.593300  0.441300  0.616200  1.0
  H  H187  1  0.265300  0.945400  0.166600  1.0
  H  H188  1  0.734700  0.054600  0.833400  1.0
  H  H189  1  0.295000  0.062200  0.078700  1.0
  H  H190  1  0.705000  0.937800  0.921300  1.0
  H  H191  1  0.358900  0.130600  0.101400  1.0
  H  H192  1  0.641100  0.869400  0.898600  1.0
  H  H193  1  0.393800  0.083800  0.207500  1.0
  H  H194  1  0.606200  0.916200  0.792500  1.0
  H  H195  1  0.236900  0.819300  0.267400  1.0
  H  H196  1  0.763100  0.180700  0.732600  1.0
  H  H197  1  0.242800  0.718100  0.384800  1.0
  H  H198  1  0.757200  0.281900  0.615200  1.0
  H  H199  1  0.347100  0.760900  0.473100  1.0
  H  H200  1  0.652900  0.239100  0.526900  1.0
  H  H201  1  0.304200  0.696300  0.485100  1.0
  H  H202  1  0.695800  0.303700  0.514900  1.0
  H  H203  1  0.044900  0.391400  0.074900  1.0
  H  H204  1  0.955100  0.608600  0.925100  1.0
  H  H205  1  0.116200  0.492600  0.011000  1.0
  H  H206  1  0.883800  0.507400  0.989000  1.0
  H  H207  1  0.088900  0.593200  0.014200  1.0
  H  H208  1  0.911100  0.406800  0.985800  1.0
  H  H209  1  0.990100  0.589000  0.084900  1.0
  H  H210  1  0.009900  0.411000  0.915100  1.0
  H  H211  1  0.962000  0.289200  0.142900  1.0
  H  H212  1  0.038000  0.710800  0.857100  1.0
  H  H213  1  0.856800  0.223600  0.221900  1.0
  H  H214  1  0.143200  0.776400  0.778100  1.0
  H  H215  1  0.748300  0.259600  0.283500  1.0
  H  H216  1  0.251700  0.740400  0.716500  1.0
  H  H217  1  0.753100  0.336300  0.271300  1.0
  H  H218  1  0.246900  0.663700  0.728700  1.0
  H  H219  1  0.295400  0.705000  0.605200  1.0
  H  H220  1  0.704600  0.295000  0.394800  1.0
  H  H221  1  0.875300  0.228800  0.345200  1.0
  H  H222  1  0.124700  0.771200  0.654800  1.0
  H  H223  1  0.887000  0.184000  0.460100  1.0
  H  H224  1  0.113000  0.816000  0.539900  1.0
  H  H225  1  0.193600  0.810900  0.454400  1.0
  H  H226  1  0.806400  0.189100  0.545600  1.0
  H  H227  1  0.211200  0.941600  0.556900  1.0
  H  H228  1  0.788800  0.058400  0.443100  1.0
  H  H229  1  0.133500  0.002200  0.493800  1.0
  H  H230  1  0.866500  0.997800  0.506200  1.0
  H  H231  1  0.152600  0.041400  0.373300  1.0
  H  H232  1  0.847400  0.958600  0.626700  1.0
  H  H233  1  0.248000  0.021500  0.316400  1.0
  H  H234  1  0.752000  0.978500  0.683600  1.0
  H  H235  1  0.298900  0.880700  0.616800  1.0
  H  H236  1  0.701100  0.119300  0.383200  1.0
  H  H237  1  0.396800  0.812700  0.628000  1.0
  H  H238  1  0.603200  0.187300  0.372000  1.0
  H  H239  1  0.455300  0.798600  0.471700  1.0
  H  H240  1  0.544700  0.201400  0.528300  1.0
  H  H241  1  0.467700  0.770100  0.548900  1.0
  H  H242  1  0.532300  0.229900  0.451100  1.0
  H  H243  1  0.065300  0.041500  0.577000  1.0
  H  H244  1  0.934700  0.958500  0.423000  1.0
  H  H245  1  0.002200  0.097200  0.492000  1.0
  H  H246  1  0.997800  0.902800  0.508000  1.0
  H  H247  1  0.021900  0.219400  0.414700  1.0
  H  H248  1  0.978100  0.780600  0.585300  1.0
  H  H249  1  0.101700  0.281100  0.428800  1.0
  H  H250  1  0.898300  0.718900  0.571200  1.0
  H  H251  1  0.132500  0.993900  0.675100  1.0
  H  H252  1  0.867500  0.006100  0.324900  1.0
  H  H253  1  0.226700  0.998000  0.725800  1.0
  H  H254  1  0.773300  0.002000  0.274200  1.0
  H  H255  1  0.318400  0.100000  0.692600  1.0
  H  H256  1  0.681600  0.900000  0.307400  1.0
  H  H257  1  0.313000  0.174200  0.627700  1.0
  H  H258  1  0.687000  0.825800  0.372300  1.0
  H  H259  1  0.572300  0.809400  0.426300  1.0
  H  H260  1  0.427700  0.190600  0.573700  1.0
  H  H261  1  0.318300  0.025200  0.603100  1.0
  H  H262  1  0.681700  0.974800  0.396900  1.0
  H  H263  1  0.405500  0.002700  0.538200  1.0
  H  H264  1  0.594500  0.997300  0.461800  1.0
  H  H265  1  0.497200  0.925600  0.512500  1.0
  H  H266  1  0.502800  0.074400  0.487500  1.0
  H  H267  1  0.809300  0.663400  0.974000  1.0
  H  H268  1  0.190700  0.336600  0.026000  1.0
  H  H269  1  0.753100  0.595000  0.946400  1.0
  H  H270  1  0.246900  0.405000  0.053600  1.0
  H  H271  1  0.730500  0.476400  0.026600  1.0
  H  H272  1  0.269500  0.523600  0.973400  1.0
  H  H273  1  0.769000  0.429600  0.128900  1.0
  H  H274  1  0.231000  0.570400  0.871100  1.0
  H  H275  1  0.867100  0.732000  0.013800  1.0
  H  H276  1  0.132900  0.268000  0.986200  1.0
  H  H277  1  0.928300  0.747800  0.091500  1.0
  H  H278  1  0.071700  0.252200  0.908500  1.0
  H  H279  1  0.976400  0.659100  0.204900  1.0
  H  H280  1  0.023600  0.340900  0.795100  1.0
  H  H281  1  0.962300  0.579100  0.230100  1.0
  H  H282  1  0.037700  0.420900  0.769900  1.0
  H  H283  1  0.435100  0.329000  0.397100  1.0
  H  H284  1  0.564900  0.671000  0.602900  1.0
  H  H285  1  0.430500  0.297300  0.310800  1.0
  H  H286  1  0.569500  0.702700  0.689200  1.0
  H  H287  1  0.332200  0.245600  0.315300  1.0
  H  H288  1  0.667800  0.754400  0.684700  1.0
  H  H289  1  0.242800  0.227900  0.403300  1.0
  H  H290  1  0.757200  0.772100  0.596700  1.0
  H  H291  1  0.424000  0.379800  0.479600  1.0
  H  H292  1  0.576000  0.620200  0.520400  1.0
  H  H293  1  0.376800  0.378900  0.592200  1.0
  H  H294  1  0.623200  0.621100  0.407800  1.0
  H  H295  1  0.277400  0.310200  0.695900  1.0
  H  H296  1  0.722600  0.689800  0.304100  1.0
  H  H297  1  0.231900  0.261000  0.685900  1.0
  H  H298  1  0.768100  0.739000  0.314100  1.0
  H  H299  1  0.838200  0.686300  0.237700  1.0
  H  H300  1  0.161800  0.313700  0.762300  1.0
  H  H301  1  0.219100  0.420200  0.549000  1.0
  H  H302  1  0.780900  0.579800  0.451000  1.0
  H  H303  1  0.132800  0.487200  0.543100  1.0
  H  H304  1  0.867200  0.512800  0.456900  1.0
  H  H305  1  0.938800  0.532400  0.352200  1.0
  H  H306  1  0.061200  0.467600  0.647800  1.0
  C  C307  1  0.828700  0.783400  0.706300  1
  C  C308  1  0.171300  0.216600  0.293700  1
  C  C309  1  0.703700  0.052000  0.998500  1
  C  C310  1  0.296300  0.948000  0.001500  1
  C  C311  1  0.984000  0.271100  0.037400  1
  C  C312  1  0.016000  0.728900  0.962600  1
  C  C313  1  0.115900  0.026000  0.984700  1
  C  C314  1  0.884100  0.974000  0.015300  1
  C  C315  1  0.908100  0.801600  0.858000  1
  C  C316  1  0.091900  0.198400  0.142000  1
  C  C317  1  0.794800  0.811600  0.870400  1
  C  C318  1  0.205200  0.188400  0.129600  1
  C  C319  1  0.853900  0.914600  0.789100  1
  C  C320  1  0.146100  0.085400  0.210900  1
  C  C321  1  0.907000  0.082800  0.792000  1
  C  C322  1  0.093000  0.917200  0.208000  1
  C  C323  1  0.987000  0.047700  0.728100  1
  C  C324  1  0.013000  0.952300  0.271900  1
  C  C325  1  0.922600  0.126200  0.665500  1
  C  C326  1  0.077400  0.873800  0.334500  1
  C  C327  1  0.852300  0.889200  0.905300  1
  C  C328  1  0.147700  0.110800  0.094700  1
  C  C329  1  0.355000  0.701100  0.005900  1.0
  C  C330  1  0.645000  0.298900  0.994100  1.0
  C  C331  1  0.325700  0.708500  0.951800  1.0
  C  C332  1  0.674300  0.291500  0.048200  1.0
  C  C333  1  0.363900  0.703200  0.893600  1.0
  C  C334  1  0.636100  0.296800  0.106400  1.0
  C  C335  1  0.428400  0.692300  0.892800  1.0
  C  C336  1  0.571600  0.307700  0.107200  1.0
  C  C337  1  0.453500  0.684500  0.950400  1.0
  C  C338  1  0.546500  0.315500  0.049600  1.0
  C  C339  1  0.320800  0.706900  0.068400  1.0
  C  C340  1  0.679200  0.293100  0.931600  1.0
  C  C341  1  0.258500  0.727600  0.082300  1.0
  C  C342  1  0.741500  0.272400  0.917700  1.0
  C  C343  1  0.251900  0.721000  0.149100  1.0
  C  C344  1  0.748100  0.279000  0.850900  1.0
  C  C345  1  0.327400  0.691600  0.234100  1.0
  C  C346  1  0.672600  0.308400  0.765900  1.0
  C  C347  1  0.495900  0.029400  0.302700  1.0
  C  C348  1  0.504100  0.970600  0.697300  1.0
  C  C349  1  0.540600  0.085800  0.280000  1.0
  C  C350  1  0.459400  0.914200  0.720000  1.0
  C  C351  1  0.519900  0.139100  0.293800  1.0
  C  C352  1  0.480100  0.860900  0.706200  1.0
  C  C353  1  0.456000  0.133600  0.328100  1.0
  C  C354  1  0.544000  0.866400  0.671900  1.0
  C  C355  1  0.413900  0.077100  0.347800  1.0
  C  C356  1  0.586100  0.922900  0.652200  1.0
  C  C357  1  0.514000  0.968800  0.293100  1.0
  C  C358  1  0.486000  0.031200  0.706900  1.0
  C  C359  1  0.572700  0.959000  0.257100  1.0
  C  C360  1  0.427300  0.041000  0.742900  1.0
  C  C361  1  0.561300  0.894100  0.264800  1.0
  C  C362  1  0.438700  0.105900  0.735200  1.0
  C  C363  1  0.467900  0.802400  0.318900  1.0
  C  C364  1  0.532100  0.197600  0.681100  1.0
  C  C365  1  0.369000  0.754800  0.217700  1.0
  C  C366  1  0.631000  0.245200  0.782300  1.0
  C  C367  1  0.400300  0.750900  0.269900  1.0
  C  C368  1  0.599700  0.249100  0.730100  1.0
  C  C369  1  0.435200  0.809900  0.259200  1.0
  C  C370  1  0.564800  0.190100  0.740800  1.0
  C  C371  1  0.441300  0.873600  0.195500  1.0
  C  C372  1  0.558700  0.126400  0.804500  1.0
  C  C373  1  0.410500  0.877200  0.143800  1.0
  C  C374  1  0.589500  0.122800  0.856200  1.0
  C  C375  1  0.373900  0.818900  0.154000  1.0
  C  C376  1  0.626100  0.181100  0.846000  1.0
  C  C377  1  0.431100  0.507700  0.125500  1.0
  C  C378  1  0.568900  0.492300  0.874500  1.0
  C  C379  1  0.406300  0.442800  0.139000  1.0
  C  C380  1  0.593700  0.557200  0.861000  1.0
  C  C381  1  0.339700  0.422300  0.167300  1.0
  C  C382  1  0.660300  0.577700  0.832700  1.0
  C  C383  1  0.300500  0.467000  0.180500  1.0
  C  C384  1  0.699500  0.533000  0.819500  1.0
  C  C385  1  0.329900  0.530500  0.167300  1.0
  C  C386  1  0.670100  0.469500  0.832700  1.0
  C  C387  1  0.499400  0.536900  0.088000  1.0
  C  C388  1  0.500600  0.463100  0.912000  1.0
  C  C389  1  0.547500  0.515600  0.049700  1.0
  C  C390  1  0.452500  0.484400  0.950300  1.0
  C  C391  1  0.598400  0.566500  0.020400  1.0
  C  C392  1  0.401600  0.433500  0.979600  1.0
  C  C393  1  0.624700  0.671500  0.031300  1.0
  C  C394  1  0.375300  0.328500  0.968700  1.0
  C  C395  1  0.878800  0.414000  0.348800  1.0
  C  C396  1  0.121200  0.586000  0.651200  1.0
  C  C397  1  0.901500  0.375900  0.411000  1.0
  C  C398  1  0.098500  0.624100  0.589000  1.0
  C  C399  1  0.965500  0.361400  0.406600  1.0
  C  C400  1  0.034500  0.638600  0.593400  1.0
  C  C401  1  0.006000  0.385700  0.338200  1.0
  C  C402  1  0.994000  0.614300  0.661800  1.0
  C  C403  1  0.980700  0.423700  0.277700  1.0
  C  C404  1  0.019300  0.576300  0.722300  1.0
  C  C405  1  0.812000  0.432300  0.348600  1.0
  C  C406  1  0.188000  0.567700  0.651400  1.0
  C  C407  1  0.763100  0.431900  0.403900  1.0
  C  C408  1  0.236900  0.568100  0.596100  1.0
  C  C409  1  0.710900  0.452900  0.374100  1.0
  C  C410  1  0.289100  0.547100  0.625900  1.0
  C  C411  1  0.683100  0.484200  0.256900  1.0
  C  C412  1  0.316900  0.515800  0.743100  1.0
  C  C413  1  0.655800  0.650800  0.094200  1.0
  C  C414  1  0.344200  0.349200  0.905800  1.0
  C  C415  1  0.655200  0.581600  0.146500  1.0
  C  C416  1  0.344800  0.418400  0.853500  1.0
  C  C417  1  0.686800  0.562000  0.202600  1.0
  C  C418  1  0.313200  0.438000  0.797400  1.0
  C  C419  1  0.719500  0.613100  0.207700  1.0
  C  C420  1  0.280500  0.386900  0.792300  1.0
  C  C421  1  0.721200  0.684400  0.154800  1.0
  C  C422  1  0.278800  0.315600  0.845200  1.0
  C  C423  1  0.688900  0.701800  0.100900  1.0
  C  C424  1  0.311100  0.298200  0.899100  1.0
  C  C425  1  0.527300  0.747800  0.129500  1.0
  C  C426  1  0.472700  0.252200  0.870500  1.0
  C  C427  1  0.563300  0.807800  0.116600  1.0
  C  C428  1  0.436700  0.192200  0.883400  1.0
  C  C429  1  0.562500  0.869400  0.054100  1.0
  C  C430  1  0.437500  0.130600  0.945900  1.0
  C  C431  1  0.528300  0.871200  0.006100  1.0
  C  C432  1  0.471700  0.128800  0.993900  1.0
  C  C433  1  0.496600  0.808600  0.020600  1.0
  C  C434  1  0.503400  0.191400  0.979400  1.0
  C  C435  1  0.522700  0.680500  0.195400  1.0
  C  C436  1  0.477300  0.319500  0.804600  1.0
  C  C437  1  0.555100  0.659600  0.251000  1.0
  C  C438  1  0.444900  0.340400  0.749000  1.0
  C  C439  1  0.536000  0.589600  0.296200  1.0
  C  C440  1  0.464000  0.410400  0.703800  1.0
  C  C441  1  0.454000  0.501700  0.303100  1.0
  C  C442  1  0.546000  0.498300  0.696900  1.0
  C  C443  1  0.087100  0.293500  0.600900  1.0
  C  C444  1  0.912900  0.706500  0.399100  1.0
  C  C445  1  0.036300  0.292500  0.650400  1.0
  C  C446  1  0.963700  0.707500  0.349600  1.0
  C  C447  1  0.027000  0.239800  0.721500  1.0
  C  C448  1  0.973000  0.760200  0.278500  1.0
  C  C449  1  0.072000  0.190200  0.740200  1.0
  C  C450  1  0.928000  0.809800  0.259800  1.0
  C  C451  1  0.121700  0.193300  0.687500  1.0
  C  C452  1  0.878300  0.806700  0.312500  1.0
  C  C453  1  0.100800  0.348400  0.525500  1.0
  C  C454  1  0.899200  0.651600  0.474500  1.0
  C  C455  1  0.067400  0.406000  0.485700  1.0
  C  C456  1  0.932600  0.594000  0.514300  1.0
  C  C457  1  0.104800  0.441200  0.417400  1.0
  C  C458  1  0.895200  0.558800  0.582600  1.0
  C  C459  1  0.215000  0.428400  0.356600  1.0
  C  C460  1  0.785000  0.571600  0.643400  1.0
  C  C461  1  0.384700  0.502200  0.338800  1.0
  C  C462  1  0.615300  0.497800  0.661200  1.0
  C  C463  1  0.333800  0.467200  0.333600  1.0
  C  C464  1  0.666200  0.532800  0.666400  1.0
  C  C465  1  0.270300  0.466300  0.364700  1.0
  C  C466  1  0.729700  0.533700  0.635300  1.0
  C  C467  1  0.257300  0.502500  0.402300  1.0
  C  C468  1  0.742700  0.497500  0.597700  1.0
  C  C469  1  0.309200  0.536900  0.409200  1.0
  C  C470  1  0.690800  0.463100  0.590800  1.0
  C  C471  1  0.372500  0.536400  0.378400  1.0
  C  C472  1  0.627500  0.463600  0.621600  1.0
  C  C473  1  0.311400  0.948100  0.238000  1.0
  C  C474  1  0.688600  0.051900  0.762000  1.0
  C  C475  1  0.290900  0.974400  0.174100  1.0
  C  C476  1  0.709100  0.025600  0.825900  1.0
  C  C477  1  0.308500  0.043300  0.122000  1.0
  C  C478  1  0.691500  0.956700  0.878000  1.0
  C  C479  1  0.346700  0.083500  0.135800  1.0
  C  C480  1  0.653300  0.916500  0.864200  1.0
  C  C481  1  0.367500  0.055500  0.199800  1.0
  C  C482  1  0.632500  0.944500  0.800200  1.0
  C  C483  1  0.294300  0.875200  0.295300  1.0
  C  C484  1  0.705700  0.124800  0.704700  1.0
  C  C485  1  0.258500  0.819000  0.300800  1.0
  C  C486  1  0.741500  0.181000  0.699200  1.0
  C  C487  1  0.262100  0.763600  0.365600  1.0
  C  C488  1  0.737900  0.236400  0.634400  1.0
  C  C489  1  0.304900  0.745900  0.470400  1.0
  C  C490  1  0.695100  0.254100  0.529600  1.0
  C  C491  1  0.974900  0.434000  0.117100  1.0
  C  C492  1  0.025100  0.566000  0.882900  1.0
  C  C493  1  0.034300  0.432100  0.076200  1.0
  C  C494  1  0.965700  0.567900  0.923800  1.0
  C  C495  1  0.076300  0.492400  0.038400  1.0
  C  C496  1  0.923700  0.507600  0.961600  1.0
  C  C497  1  0.060700  0.552000  0.040200  1.0
  C  C498  1  0.939300  0.448000  0.959800  1.0
  C  C499  1  0.001200  0.549000  0.082400  1.0
  C  C500  1  0.998800  0.451000  0.917600  1.0
  C  C501  1  0.926700  0.371900  0.158500  1.0
  C  C502  1  0.073300  0.628100  0.841500  1.0
  C  C503  1  0.928600  0.305300  0.164300  1.0
  C  C504  1  0.071400  0.694700  0.835700  1.0
  C  C505  1  0.870800  0.269600  0.207900  1.0
  C  C506  1  0.129200  0.730400  0.792100  1.0
  C  C507  1  0.776300  0.294600  0.283400  1.0
  C  C508  1  0.223700  0.705400  0.716600  1.0
  C  C509  1  0.252300  0.755200  0.522300  1.0
  C  C510  1  0.747700  0.244800  0.477700  1.0
  C  C511  1  0.258600  0.727800  0.592000  1.0
  C  C512  1  0.741400  0.272200  0.408000  1.0
  C  C513  1  0.788400  0.267100  0.355900  1.0
  C  C514  1  0.211600  0.732900  0.644100  1.0
  C  C515  1  0.842900  0.233000  0.378100  1.0
  C  C516  1  0.157100  0.767000  0.621900  1.0
  C  C517  1  0.849700  0.205700  0.447000  1.0
  C  C518  1  0.150300  0.794300  0.553000  1.0
  C  C519  1  0.198000  0.790300  0.501800  1.0
  C  C520  1  0.802000  0.209700  0.498200  1.0
  C  C521  1  0.273100  0.945600  0.472600  1.0
  C  C522  1  0.726900  0.054400  0.527400  1.0
  C  C523  1  0.217600  0.957700  0.508000  1.0
  C  C524  1  0.782400  0.042300  0.492000  1.0
  C  C525  1  0.171700  0.993700  0.470800  1.0
  C  C526  1  0.828300  0.006300  0.529200  1.0
  C  C527  1  0.183200  0.016800  0.399500  1.0
  C  C528  1  0.816800  0.983200  0.600500  1.0
  C  C529  1  0.240100  0.004000  0.365600  1.0
  C  C530  1  0.759900  0.996000  0.634400  1.0
  C  C531  1  0.322600  0.902400  0.510100  1.0
  C  C532  1  0.677400  0.097600  0.489900  1.0
  C  C533  1  0.326200  0.875100  0.581500  1.0
  C  C534  1  0.673800  0.124900  0.418500  1.0
  C  C535  1  0.380100  0.837800  0.587000  1.0
  C  C536  1  0.619900  0.162200  0.413000  1.0
  C  C537  1  0.462500  0.812500  0.505700  1.0
  C  C538  1  0.537500  0.187500  0.494300  1.0
  C  C539  1  0.120100  0.130100  0.549900  1.0
  C  C540  1  0.879900  0.869900  0.450100  1.0
  C  C541  1  0.072100  0.090000  0.546100  1.0
  C  C542  1  0.927900  0.910000  0.453900  1.0
  C  C543  1  0.034700  0.123100  0.495600  1.0
  C  C544  1  0.965300  0.876900  0.504400  1.0
  C  C545  1  0.046000  0.195900  0.449800  1.0
  C  C546  1  0.954000  0.804100  0.550200  1.0
  C  C547  1  0.094700  0.232500  0.458300  1.0
  C  C548  1  0.905300  0.767500  0.541700  1.0
  C  C549  1  0.163700  0.100100  0.599900  1.0
  C  C550  1  0.836300  0.899900  0.400100  1.0
  C  C551  1  0.162600  0.032400  0.658500  1.0
  C  C552  1  0.837400  0.967600  0.341500  1.0
  C  C553  1  0.214700  0.035000  0.686100  1.0
  C  C554  1  0.785300  0.965000  0.313900  1.0
  C  C555  1  0.310600  0.124100  0.644300  1.0
  C  C556  1  0.689400  0.875900  0.355700  1.0
  C  C557  1  0.526100  0.861200  0.474000  1.0
  C  C558  1  0.473900  0.138800  0.526000  1.0
  C  C559  1  0.577400  0.847200  0.433700  1.0
  C  C560  1  0.422600  0.152800  0.566300  1.0
  C  C561  1  0.363400  0.110300  0.595800  1.0
  C  C562  1  0.636600  0.889700  0.404200  1.0
  C  C563  1  0.357300  0.054100  0.584300  1.0
  C  C564  1  0.642700  0.945900  0.415700  1.0
  C  C565  1  0.409700  0.041200  0.544800  1.0
  C  C566  1  0.590300  0.958800  0.455200  1.0
  C  C567  1  0.531700  0.916500  0.485300  1.0
  C  C568  1  0.468300  0.083500  0.514700  1.0
  C  C569  1  0.820800  0.586100  0.068400  1.0
  C  C570  1  0.179200  0.413900  0.931600  1.0
  C  C571  1  0.800300  0.615300  0.005800  1.0
  C  C572  1  0.199700  0.384700  0.994200  1.0
  C  C573  1  0.767100  0.575000  0.989400  1.0
  C  C574  1  0.232900  0.425000  0.010600  1.0
  C  C575  1  0.754400  0.505100  0.036200  1.0
  C  C576  1  0.245600  0.494900  0.963800  1.0
  C  C577  1  0.777200  0.477800  0.097300  1.0
  C  C578  1  0.222800  0.522200  0.902700  1.0
  C  C579  1  0.856700  0.626300  0.090400  1.0
  C  C580  1  0.143300  0.373700  0.909600  1.0
  C  C581  1  0.875600  0.697000  0.056900  1.0
  C  C582  1  0.124400  0.303000  0.943100  1.0
  C  C583  1  0.909600  0.705300  0.100000  1.0
  C  C584  1  0.090400  0.294700  0.900000  1.0
  C  C585  1  0.942100  0.622500  0.218500  1.0
  C  C586  1  0.057900  0.377500  0.781500  1.0
  C  C587  1  0.339900  0.300000  0.447900  1.0
  C  C588  1  0.660100  0.700000  0.552100  1.0
  C  C589  1  0.396000  0.309500  0.396900  1.0
  C  C590  1  0.604000  0.690500  0.603100  1.0
  C  C591  1  0.393700  0.290000  0.345800  1.0
  C  C592  1  0.606300  0.710000  0.654200  1.0
  C  C593  1  0.335300  0.259600  0.348500  1.0
  C  C594  1  0.664700  0.740400  0.651500  1.0
  C  C595  1  0.281500  0.249900  0.401000  1.0
  C  C596  1  0.718500  0.750100  0.599000  1.0
  C  C597  1  0.338400  0.319700  0.502900  1.0
  C  C598  1  0.661600  0.680300  0.497100  1.0
  C  C599  1  0.383700  0.358300  0.510000  1.0
  C  C600  1  0.616300  0.641700  0.490000  1.0
  C  C601  1  0.356700  0.358500  0.571400  1.0
  C  C602  1  0.643300  0.641500  0.428600  1.0
  C  C603  1  0.252300  0.308700  0.663700  1.0
  C  C604  1  0.747700  0.691300  0.336300  1.0
  C  C605  1  0.894500  0.612800  0.284200  1.0
  C  C606  1  0.105500  0.387200  0.715800  1.0
  C  C607  1  0.844400  0.651600  0.282200  1.0
  C  C608  1  0.155600  0.348400  0.717800  1.0
  C  C609  1  0.199100  0.357500  0.656100  1.0
  C  C610  1  0.800900  0.642500  0.343900  1.0
  C  C611  1  0.190200  0.411300  0.591000  1.0
  C  C612  1  0.809800  0.588700  0.409000  1.0
  C  C613  1  0.138800  0.451900  0.587500  1.0
  C  C614  1  0.861200  0.548100  0.412500  1.0
  C  C615  1  0.904200  0.559700  0.349900  1.0
  C  C616  1  0.095800  0.440300  0.650100  1.0
  N  N617  1  0.839400  0.711000  0.731400  1
  N  N618  1  0.160600  0.289000  0.268600  1
  N  N619  1  0.646400  0.056200  0.041100  1
  N  N620  1  0.353600  0.943800  0.958900  1
  N  N621  1  0.937100  0.221700  0.048100  1
  N  N622  1  0.062900  0.778300  0.951900  1
  N  N623  1  0.100000  0.020900  0.927800  1
  N  N624  1  0.900000  0.979100  0.072200  1
  N  N625  1  0.858300  0.844200  0.843900  1
  N  N626  1  0.141700  0.155800  0.156100  1
  N  N627  1  0.933400  0.084500  0.733800  1
  N  N628  1  0.066600  0.915500  0.266200  1
  N  N629  1  0.814800  0.853400  0.883000  1
  N  N630  1  0.185200  0.146600  0.117000  1
  N  N631  1  0.418400  0.688300  0.005100  1.0
  N  N632  1  0.581600  0.311700  0.994900  1.0
  N  N633  1  0.307700  0.697900  0.171400  1.0
  N  N634  1  0.692300  0.302100  0.828600  1.0
  N  N635  1  0.350200  0.689200  0.122300  1.0
  N  N636  1  0.649800  0.310800  0.877700  1.0
  N  N637  1  0.432900  0.025000  0.335300  1.0
  N  N638  1  0.567100  0.975000  0.664700  1.0
  N  N639  1  0.501100  0.867600  0.303100  1.0
  N  N640  1  0.498900  0.132400  0.696900  1.0
  N  N641  1  0.469700  0.913400  0.319800  1.0
  N  N642  1  0.530300  0.086600  0.680200  1.0
  N  N643  1  0.393700  0.550300  0.141500  1.0
  N  N644  1  0.606300  0.449700  0.858500  1.0
  N  N645  1  0.582200  0.614600  0.040300  1.0
  N  N646  1  0.417800  0.385400  0.959700  1.0
  N  N647  1  0.520400  0.597000  0.082100  1.0
  N  N648  1  0.479600  0.403000  0.917900  1.0
  N  N649  1  0.917300  0.437700  0.283100  1.0
  N  N650  1  0.082700  0.562300  0.716900  1.0
  N  N651  1  0.726300  0.465400  0.306100  1.0
  N  N652  1  0.273700  0.534600  0.693900  1.0
  N  N653  1  0.788500  0.453500  0.289900  1.0
  N  N654  1  0.211500  0.546500  0.710100  1.0
  N  N655  1  0.495400  0.747000  0.082100  1.0
  N  N656  1  0.504600  0.253000  0.917900  1.0
  N  N657  1  0.492400  0.570400  0.269400  1.0
  N  N658  1  0.507600  0.429600  0.730600  1.0
  N  N659  1  0.482200  0.626200  0.207600  1.0
  N  N660  1  0.517800  0.373800  0.792400  1.0
  N  N661  1  0.130600  0.244400  0.618500  1.0
  N  N662  1  0.869400  0.755600  0.381500  1.0
  N  N663  1  0.156900  0.405300  0.416200  1.0
  N  N664  1  0.843100  0.594700  0.583800  1.0
  N  N665  1  0.157100  0.349800  0.481100  1.0
  N  N666  1  0.842900  0.650200  0.518900  1.0
  N  N667  1  0.349900  0.987100  0.251200  1.0
  N  N668  1  0.650100  0.012900  0.748800  1.0
  N  N669  1  0.297800  0.784700  0.397400  1.0
  N  N670  1  0.702200  0.215300  0.602600  1.0
  N  N671  1  0.318500  0.854300  0.354900  1.0
  N  N672  1  0.681500  0.145700  0.645100  1.0
  N  N673  1  0.958900  0.491400  0.119500  1.0
  N  N674  1  0.041100  0.508600  0.880500  1.0
  N  N675  1  0.836400  0.312700  0.228000  1.0
  N  N676  1  0.163600  0.687300  0.772000  1.0
  N  N677  1  0.871300  0.376100  0.198600  1.0
  N  N678  1  0.128700  0.623900  0.801400  1.0
  N  N679  1  0.283900  0.966900  0.402600  1.0
  N  N680  1  0.716100  0.033100  0.597400  1.0
  N  N681  1  0.404200  0.843700  0.523600  1.0
  N  N682  1  0.595800  0.156300  0.476400  1.0
  N  N683  1  0.369400  0.883900  0.475500  1.0
  N  N684  1  0.630600  0.116100  0.524500  1.0
  N  N685  1  0.131200  0.201500  0.506000  1.0
  N  N686  1  0.868800  0.798500  0.494000  1.0
  N  N687  1  0.246100  0.100400  0.645800  1.0
  N  N688  1  0.753900  0.899600  0.354200  1.0
  N  N689  1  0.215400  0.142700  0.591600  1.0
  N  N690  1  0.784600  0.857300  0.408400  1.0
  N  N691  1  0.810500  0.515800  0.114300  1.0
  N  N692  1  0.189500  0.484200  0.885700  1.0
  N  N693  1  0.911700  0.641700  0.156800  1.0
  N  N694  1  0.088300  0.358300  0.843200  1.0
  N  N695  1  0.878700  0.591200  0.152800  1.0
  N  N696  1  0.121300  0.408800  0.847200  1.0
  N  N697  1  0.282700  0.271000  0.448900  1.0
  N  N698  1  0.717300  0.729000  0.551100  1.0
  N  N699  1  0.296900  0.324700  0.597100  1.0
  N  N700  1  0.703100  0.675300  0.402900  1.0
  N  N701  1  0.284100  0.298800  0.555400  1.0
  N  N702  1  0.715900  0.701200  0.444600  1.0
  Cl  Cl703  1  0.720480  0.856880  0.171690  1
  Cl  Cl704  1  0.279520  0.143120  0.828310  1
  Cl  Cl705  1  0.637400  0.755810  0.829280  1
  Cl  Cl706  1  0.362600  0.244190  0.170720  1
  Cl  Cl707  1  0.145600  0.557610  0.167100  1
  Cl  Cl708  1  0.854400  0.442390  0.832900  1
  Cl  Cl709  1  0.128050  0.643190  0.397310  1
  Cl  Cl710  1  0.871950  0.356810  0.602690  1
  Cl  Cl711  1  0.269920  0.851960  0.775000  1
  Cl  Cl712  1  0.730080  0.148040  0.225000  1
  Cl  Cl713  1  0.986500  0.114330  0.334130  1
  Cl  Cl714  1  0.013500  0.885670  0.665870  1
  Cl  Cl715  1  0.582520  0.350890  0.264820  1
  Cl  Cl716  1  0.417480  0.649110  0.735180  1
  Cl  Cl717  1  0.554080  0.382080  0.516680  1
  Cl  Cl718  1  0.445920  0.617920  0.483320  1
  O  O719  1  0.783100  0.831300  0.182000  1
  O  O720  1  0.216900  0.168700  0.818000  1
  O  O721  1  0.713900  0.872400  0.101800  1
  O  O722  1  0.286100  0.127600  0.898200  1
  O  O723  1  0.670000  0.802100  0.225000  1
  O  O724  1  0.330000  0.197900  0.775000  1
  O  O725  1  0.713300  0.918700  0.176700  1
  O  O726  1  0.286700  0.081300  0.823300  1
  O  O727  1  0.685700  0.709700  0.862500  1
  O  O728  1  0.314300  0.290300  0.137500  1
  O  O729  1  0.593800  0.720100  0.810300  1
  O  O730  1  0.406200  0.279900  0.189700  1
  O  O731  1  0.600800  0.774800  0.879500  1
  O  O732  1  0.399200  0.225200  0.120500  1
  O  O733  1  0.671500  0.817500  0.765200  1
  O  O734  1  0.328500  0.182500  0.234800  1
  O  O735  1  0.179800  0.565800  0.214000  1
  O  O736  1  0.820200  0.434200  0.786000  1
  O  O737  1  0.128200  0.484900  0.194600  1
  O  O738  1  0.871800  0.515100  0.805400  1
  O  O739  1  0.089700  0.596700  0.159400  1
  O  O740  1  0.910300  0.403300  0.840600  1
  O  O741  1  0.189500  0.585800  0.095700  1
  O  O742  1  0.810500  0.414200  0.904300  1
  O  O743  1  0.175900  0.613500  0.439700  1
  O  O744  1  0.824100  0.386500  0.560300  1
  O  O745  1  0.159800  0.680800  0.323000  1
  O  O746  1  0.840200  0.319200  0.677000  1
  O  O747  1  0.094900  0.691400  0.416500  1
  O  O748  1  0.905100  0.308600  0.583500  1
  O  O749  1  0.082500  0.588700  0.409700  1
  O  O750  1  0.917500  0.411300  0.590300  1
  O  O751  1  0.322000  0.821100  0.750700  1
  O  O752  1  0.678000  0.178900  0.249300  1
  O  O753  1  0.227700  0.878500  0.725000  1
  O  O754  1  0.772300  0.121500  0.275000  1
  O  O755  1  0.295800  0.909000  0.781000  1
  O  O756  1  0.704200  0.091000  0.219000  1
  O  O757  1  0.233400  0.799400  0.844100  1
  O  O758  1  0.766600  0.200600  0.155900  1
  O  O759  1  0.004500  0.187300  0.305500  1
  O  O760  1  0.995500  0.812700  0.694500  1
  O  O761  1  0.042000  0.074700  0.351300  1
  O  O762  1  0.958000  0.925300  0.648700  1
  O  O763  1  0.937100  0.088800  0.400900  1
  O  O764  1  0.062900  0.911200  0.599100  1
  O  O765  1  0.959700  0.102100  0.285700  1
  O  O766  1  0.040300  0.897900  0.714300  1
  O  O767  1  0.547600  0.289200  0.274500  1
  O  O768  1  0.452400  0.710800  0.725500  1
  O  O769  1  0.637700  0.374600  0.206200  1
  O  O770  1  0.362300  0.625400  0.793800  1
  O  O771  1  0.541300  0.405300  0.251300  1
  O  O772  1  0.458700  0.594700  0.748700  1
  O  O773  1  0.605900  0.332400  0.328500  1
  O  O774  1  0.394100  0.667600  0.671500  1
  O  O775  1  0.618900  0.383000  0.530500  1
  O  O776  1  0.381100  0.617000  0.469500  1
  O  O777  1  0.506100  0.381400  0.574100  1
  O  O778  1  0.493900  0.618600  0.425900  1
  O  O779  1  0.550900  0.442800  0.450400  1
  O  O780  1  0.449100  0.557200  0.549600  1
  O  O781  1  0.540100  0.320100  0.513000  1
  O  O782  1  0.459900  0.679900  0.487000  1
  O  O783  1  0.823800  0.681100  0.700200  1
  O  O784  1  0.176200  0.318900  0.299800  1
  O  O785  1  0.871000  0.676200  0.788300  1
  O  O786  1  0.129000  0.323800  0.211700  1
  O  O787  1  0.651100  0.091300  0.073600  1
  O  O788  1  0.348900  0.908700  0.926400  1
  O  O789  1  0.592800  0.029800  0.047700  1
  O  O790  1  0.407200  0.970200  0.952300  1
  O  O791  1  0.894000  0.240400  0.013200  1
  O  O792  1  0.106000  0.759600  0.986800  1
  O  O793  1  0.930400  0.157500  0.104100  1
  O  O794  1  0.069600  0.842500  0.895900  1
  O  O795  1  0.049400  0.042600  0.908000  1
  O  O796  1  0.950600  0.957400  0.092000  1
  O  O797  1  0.133400  0.985700  0.903700  1
  O  O798  1  0.866600  0.014300  0.096300  1
  O  O799  1  0.916800  0.745700  0.888800  1
  O  O800  1  0.083200  0.254300  0.111200  1
  O  O801  1  0.861500  0.112500  0.808200  1
  O  O802  1  0.138500  0.887500  0.191800  1
  O  O803  1  0.086700  0.681500  0.223800  1
  O  O804  1  0.913300  0.318500  0.776200  1
  O  O805  1  0.118500  0.817700  0.113600  1
  O  O806  1  0.881500  0.182300  0.886400  1
  O  O807  1  0.996400  0.850000  0.069000  1
  O  O808  1  0.003600  0.150000  0.931000  1
  O  O809  1  0.780000  0.800600  0.927800  1
  O  O810  1  0.220000  0.199400  0.072200  1
  O  O811  1  0.815500  0.880700  0.814800  1
  O  O812  1  0.184500  0.119300  0.185200  1
  O  O813  1  0.989400  0.179300  0.336900  1
  O  O814  1  0.010600  0.820700  0.663100  1
  O  O815  1  0.015300  0.061600  0.388600  1
  O  O816  1  0.984700  0.938400  0.611400  1
  O  O817  1  0.920700  0.092700  0.340700  1
  O  O818  1  0.079300  0.907300  0.659300  1
  O  O819  1  0.024800  0.130000  0.263800  1
  O  O820  1  0.975200  0.870000  0.736200  1
