# generated using pymatgen
data_Zn8H228C276N84Cl19O110
_symmetry_space_group_name_H-M   'P 1'
_cell_length_a   23.04000000
_cell_length_b   23.30700000
_cell_length_c   26.68600000
_cell_angle_alpha   65.40800000
_cell_angle_beta   89.83300000
_cell_angle_gamma   61.51200000
_symmetry_Int_Tables_number   1
_chemical_formula_structural   Zn8H228C276N84Cl19O110
_chemical_formula_sum   'Zn8 H228 C276 N84 Cl19 O110'
_cell_volume   11104.37907595
_cell_formula_units_Z   1
loop_
 _symmetry_equiv_pos_site_id
 _symmetry_equiv_pos_as_xyz
  1  'x, y, z'
loop_
 _atom_site_type_symbol
 _atom_site_label
 _atom_site_symmetry_multiplicity
 _atom_site_fract_x
 _atom_site_fract_y
 _atom_site_fract_z
 _atom_site_occupancy
  Zn  Zn1  1  0.396880  0.185860  0.146100  1.0
  Zn  Zn2  1  0.603120  0.814140  0.853900  1.0
  Zn  Zn3  1  0.141590  0.233130  0.433970  1.0
  Zn  Zn4  1  0.858410  0.766870  0.566030  1.0
  Zn  Zn5  1  0.183530  0.718310  0.841660  1.0
  Zn  Zn6  1  0.816470  0.281690  0.158340  1.0
  Zn  Zn7  1  0.064860  0.254550  0.845320  1.0
  Zn  Zn8  1  0.935140  0.745450  0.154680  1.0
  H  H9  1  0.648000  0.015000  0.238600  1.0
  H  H10  1  0.352000  0.985000  0.761400  1.0
  H  H11  1  0.680700  0.958800  0.180100  1.0
  H  H12  1  0.319300  0.041200  0.819900  1.0
  H  H13  1  0.599000  0.991400  0.105500  1.0
  H  H14  1  0.401000  0.008600  0.894500  1.0
  H  H15  1  0.484700  0.080100  0.089500  1.0
  H  H16  1  0.515300  0.919900  0.910500  1.0
  H  H17  1  0.610200  0.079000  0.294500  1.0
  H  H18  1  0.389800  0.921000  0.705500  1.0
  H  H19  1  0.522000  0.159500  0.330600  1.0
  H  H20  1  0.478000  0.840500  0.669400  1.0
  H  H21  1  0.348700  0.264200  0.236500  1.0
  H  H22  1  0.651300  0.735800  0.763500  1.0
  H  H23  1  0.383100  0.249300  0.296400  1.0
  H  H24  1  0.616900  0.750700  0.703600  1.0
  H  H25  1  0.066800  0.047200  0.475700  1.0
  H  H26  1  0.933200  0.952800  0.524300  1.0
  H  H27  1  0.023900  0.051500  0.554400  1.0
  H  H28  1  0.976100  0.948500  0.445600  1.0
  H  H29  1  0.025900  0.129700  0.587000  1.0
  H  H30  1  0.974100  0.870300  0.413000  1.0
  H  H31  1  0.070900  0.203500  0.540900  1.0
  H  H32  1  0.929100  0.796500  0.459100  1.0
  H  H33  1  0.115500  0.046200  0.397200  1.0
  H  H34  1  0.884500  0.953800  0.602800  1.0
  H  H35  1  0.159600  0.092900  0.311300  1.0
  H  H36  1  0.840400  0.907100  0.688700  1.0
  H  H37  1  0.164300  0.255900  0.300400  1.0
  H  H38  1  0.835700  0.744100  0.699600  1.0
  H  H39  1  0.172700  0.214800  0.263000  1.0
  H  H40  1  0.827300  0.785200  0.737000  1.0
  H  H41  1  0.447700  0.075700  0.355000  1.0
  H  H42  1  0.552300  0.924300  0.645000  1.0
  H  H43  1  0.398900  0.008400  0.406100  1.0
  H  H44  1  0.601100  0.991600  0.593900  1.0
  H  H45  1  0.280400  0.064000  0.386400  1.0
  H  H46  1  0.719600  0.936000  0.613600  1.0
  H  H47  1  0.225300  0.117000  0.223000  1.0
  H  H48  1  0.774700  0.883000  0.777000  1.0
  H  H49  1  0.300400  0.988700  0.273800  1.0
  H  H50  1  0.699600  0.011300  0.726200  1.0
  H  H51  1  0.415500  0.937000  0.272600  1.0
  H  H52  1  0.584500  0.063000  0.727400  1.0
  H  H53  1  0.455700  0.013600  0.220500  1.0
  H  H54  1  0.544300  0.986400  0.779500  1.0
  H  H55  1  0.151900  0.255600  0.153300  1.0
  H  H56  1  0.848100  0.744400  0.846700  1.0
  H  H57  1  0.132000  0.385000  0.100900  1.0
  H  H58  1  0.868000  0.615000  0.899100  1.0
  H  H59  1  0.293400  0.377900  0.111500  1.0
  H  H60  1  0.706600  0.622100  0.888500  1.0
  H  H61  1  0.213000  0.435800  0.088100  1.0
  H  H62  1  0.787000  0.564200  0.911900  1.0
  H  H63  1  0.212000  0.754400  0.010500  1.0
  H  H64  1  0.788000  0.245600  0.989500  1.0
  H  H65  1  0.117500  0.874400  0.976600  1.0
  H  H66  1  0.882500  0.125600  0.023400  1.0
  H  H67  1  0.041800  0.932000  0.889200  1.0
  H  H68  1  0.958200  0.068000  0.110800  1.0
  H  H69  1  0.060500  0.869600  0.835500  1.0
  H  H70  1  0.939500  0.130400  0.164500  1.0
  H  H71  1  0.310200  0.629200  0.038400  1.0
  H  H72  1  0.689800  0.370800  0.961600  1.0
  H  H73  1  0.381500  0.512300  0.029700  1.0
  H  H74  1  0.618500  0.487700  0.970300  1.0
  H  H75  1  0.376300  0.479000  0.944200  1.0
  H  H76  1  0.623700  0.521000  0.055800  1.0
  H  H77  1  0.313300  0.539900  0.889900  1.0
  H  H78  1  0.686700  0.460100  0.110100  1.0
  H  H79  1  0.221300  0.349200  0.013400  1.0
  H  H80  1  0.778700  0.650800  0.986600  1.0
  H  H81  1  0.235900  0.382400  0.920800  1.0
  H  H82  1  0.764100  0.617600  0.079200  1.0
  H  H83  1  0.280700  0.458300  0.882600  1.0
  H  H84  1  0.719300  0.541700  0.117400  1.0
  H  H85  1  0.457300  0.330500  0.978200  1.0
  H  H86  1  0.542700  0.669500  0.021800  1.0
  H  H87  1  0.488500  0.387200  0.017900  1.0
  H  H88  1  0.511500  0.612800  0.982100  1.0
  H  H89  1  0.478400  0.368800  0.109900  1.0
  H  H90  1  0.521600  0.631200  0.890100  1.0
  H  H91  1  0.437000  0.293600  0.162100  1.0
  H  H92  1  0.563000  0.706400  0.837900  1.0
  H  H93  1  0.414800  0.272400  0.941400  1.0
  H  H94  1  0.585200  0.727600  0.058600  1.0
  H  H95  1  0.358200  0.201600  0.942600  1.0
  H  H96  1  0.641800  0.798400  0.057400  1.0
  H  H97  1  0.334000  0.121200  0.093500  1.0
  H  H98  1  0.666000  0.878800  0.906500  1.0
  H  H99  1  0.338300  0.101600  0.042200  1.0
  H  H100  1  0.661700  0.898400  0.957800  1.0
  H  H101  1  0.826800  0.483100  0.774100  1.0
  H  H102  1  0.173200  0.516900  0.225900  1.0
  H  H103  1  0.775300  0.450700  0.724000  1.0
  H  H104  1  0.224700  0.549300  0.276000  1.0
  H  H105  1  0.838700  0.337600  0.722900  1.0
  H  H106  1  0.161300  0.662400  0.277100  1.0
  H  H107  1  0.953500  0.256900  0.771900  1.0
  H  H108  1  0.046500  0.743100  0.228100  1.0
  H  H109  1  0.890900  0.496500  0.841000  1.0
  H  H110  1  0.109100  0.503500  0.159000  1.0
  H  H111  1  0.996500  0.475300  0.893700  1.0
  H  H112  1  0.003500  0.524700  0.106300  1.0
  H  H113  1  0.125500  0.393100  0.903900  1.0
  H  H114  1  0.874500  0.606900  0.096100  1.0
  H  H115  1  0.148600  0.338700  0.876400  1.0
  H  H116  1  0.851400  0.661300  0.123600  1.0
  H  H117  1  0.225500  0.132100  0.104300  1.0
  H  H118  1  0.774500  0.867900  0.895700  1.0
  H  H119  1  0.106700  0.205700  0.071800  1.0
  H  H120  1  0.893300  0.794300  0.928200  1.0
  H  H121  1  0.056400  0.305700  0.979900  1.0
  H  H122  1  0.943600  0.694300  0.020100  1.0
  H  H123  1  0.010900  0.438900  0.486700  1.0
  H  H124  1  0.989100  0.561100  0.513300  1.0
  H  H125  1  0.100800  0.403600  0.555400  1.0
  H  H126  1  0.899200  0.596400  0.444600  1.0
  H  H127  1  0.207700  0.298600  0.577000  1.0
  H  H128  1  0.792300  0.701400  0.423000  1.0
  H  H129  1  0.224700  0.228800  0.529800  1.0
  H  H130  1  0.775300  0.771200  0.470200  1.0
  H  H131  1  0.921400  0.464800  0.411500  1.0
  H  H132  1  0.078600  0.535200  0.588500  1.0
  H  H133  1  0.882800  0.458300  0.326100  1.0
  H  H134  1  0.117200  0.541700  0.673900  1.0
  H  H135  1  0.035500  0.316800  0.302200  1.0
  H  H136  1  0.964500  0.683200  0.697800  1.0
  H  H137  1  0.958700  0.383200  0.267700  1.0
  H  H138  1  0.041300  0.616800  0.732300  1.0
  H  H139  1  0.233600  0.922400  0.747200  1.0
  H  H140  1  0.766400  0.077600  0.252800  1.0
  H  H141  1  0.346600  0.859600  0.797700  1.0
  H  H142  1  0.653400  0.140400  0.202300  1.0
  H  H143  1  0.400900  0.734300  0.864800  1.0
  H  H144  1  0.599100  0.265700  0.135200  1.0
  H  H145  1  0.342300  0.671800  0.881400  1.0
  H  H146  1  0.657700  0.328200  0.118600  1.0
  H  H147  1  0.113800  0.981500  0.696500  1.0
  H  H148  1  0.886200  0.018500  0.303500  1.0
  H  H149  1  0.008000  0.982300  0.669000  1.0
  H  H150  1  0.992000  0.017700  0.331000  1.0
  H  H151  1  0.018400  0.806100  0.761700  1.0
  H  H152  1  0.981600  0.193900  0.238300  1.0
  H  H153  1  0.970100  0.882200  0.705200  1.0
  H  H154  1  0.029900  0.117800  0.294800  1.0
  H  H155  1  0.917600  0.301700  0.389800  1.0
  H  H156  1  0.082400  0.698300  0.610200  1.0
  H  H157  1  0.885500  0.214900  0.408700  1.0
  H  H158  1  0.114500  0.785100  0.591300  1.0
  H  H159  1  0.912900  0.148600  0.357500  1.0
  H  H160  1  0.087100  0.851400  0.642500  1.0
  H  H161  1  0.397700  0.117600  0.471300  1.0
  H  H162  1  0.602300  0.882400  0.528700  1.0
  H  H163  1  0.429300  0.000700  0.545100  1.0
  H  H164  1  0.570700  0.999300  0.454900  1.0
  H  H165  1  0.345700  0.975600  0.578200  1.0
  H  H166  1  0.654300  0.024400  0.421800  1.0
  H  H167  1  0.230400  0.067300  0.537500  1.0
  H  H168  1  0.769600  0.932700  0.462500  1.0
  H  H169  1  0.353100  0.248300  0.397000  1.0
  H  H170  1  0.646900  0.751700  0.603000  1.0
  H  H171  1  0.264100  0.371900  0.315000  1.0
  H  H172  1  0.735900  0.628100  0.685000  1.0
  H  H173  1  0.100700  0.376000  0.302700  1.0
  H  H174  1  0.899300  0.624000  0.697300  1.0
  H  H175  1  0.133900  0.421800  0.266500  1.0
  H  H176  1  0.866100  0.578200  0.733500  1.0
  H  H177  1  0.193000  0.062100  0.778300  1.0
  H  H178  1  0.807000  0.937900  0.221700  1.0
  H  H179  1  0.184800  0.964600  0.846600  1.0
  H  H180  1  0.815200  0.035400  0.153400  1.0
  H  H181  1  0.118100  0.983600  0.910900  1.0
  H  H182  1  0.881900  0.016400  0.089100  1.0
  H  H183  1  0.059500  0.100200  0.907000  1.0
  H  H184  1  0.940500  0.899800  0.093000  1.0
  H  H185  1  0.185700  0.186800  0.701000  1.0
  H  H186  1  0.814300  0.813200  0.299000  1.0
  H  H187  1  0.169500  0.314100  0.665200  1.0
  H  H188  1  0.830500  0.685900  0.334800  1.0
  H  H189  1  0.086900  0.386600  0.762800  1.0
  H  H190  1  0.913100  0.613400  0.237200  1.0
  H  H191  1  0.109000  0.416200  0.704800  1.0
  H  H192  1  0.891000  0.583800  0.295200  1.0
  H  H193  1  0.169500  0.424200  0.387800  1.0
  H  H194  1  0.830500  0.575800  0.612200  1.0
  H  H195  1  0.104600  0.523800  0.406000  1.0
  H  H196  1  0.895400  0.476200  0.594000  1.0
  H  H197  1  0.990700  0.610500  0.355900  1.0
  H  H198  1  0.009300  0.389500  0.644100  1.0
  H  H199  1  0.182200  0.558100  0.761200  1.0
  H  H200  1  0.817800  0.441900  0.238800  1.0
  H  H201  1  0.260300  0.562600  0.705700  1.0
  H  H202  1  0.739700  0.437400  0.294300  1.0
  H  H203  1  0.312100  0.627900  0.705500  1.0
  H  H204  1  0.687900  0.372100  0.294500  1.0
  H  H205  1  0.285900  0.688800  0.760800  1.0
  H  H206  1  0.714100  0.311200  0.239200  1.0
  H  H207  1  0.116400  0.541200  0.837500  1.0
  H  H208  1  0.883600  0.458800  0.162500  1.0
  H  H209  1  0.040000  0.586900  0.897800  1.0
  H  H210  1  0.960000  0.413100  0.102200  1.0
  H  H211  1  0.993900  0.704200  0.912800  1.0
  H  H212  1  0.006100  0.295800  0.087200  1.0
  H  H213  1  0.021300  0.758800  0.882600  1.0
  H  H214  1  0.978700  0.241200  0.117400  1.0
  H  H215  1  0.264900  0.043400  0.009200  1.0
  H  H216  1  0.735100  0.956600  0.990800  1.0
  H  H217  1  0.351700  0.051300  0.966900  1.0
  H  H218  1  0.648300  0.948700  0.033100  1.0
  H  H219  1  0.324500  0.148100  0.876000  1.0
  H  H220  1  0.675500  0.851900  0.124000  1.0
  H  H221  1  0.210400  0.237000  0.827200  1.0
  H  H222  1  0.789600  0.763000  0.172800  1.0
  H  H223  1  0.164600  0.052400  0.050100  1.0
  H  H224  1  0.835400  0.947600  0.949900  1.0
  H  H225  1  0.039500  0.104800  0.049900  1.0
  H  H226  1  0.960500  0.895200  0.950100  1.0
  H  H227  1  0.928500  0.198800  0.958400  1.0
  H  H228  1  0.071500  0.801200  0.041600  1.0
  H  H229  1  0.937400  0.253800  0.902600  1.0
  H  H230  1  0.062600  0.746200  0.097400  1.0
  H  H231  1  0.156200  0.577700  0.979000  1.0
  H  H232  1  0.843800  0.422300  0.021000  1.0
  H  H233  1  0.210100  0.547500  0.068000  1.0
  H  H234  1  0.789900  0.452500  0.932000  1.0
  H  H235  1  0.163000  0.631500  0.104100  1.0
  H  H236  1  0.837000  0.368500  0.895900  1.0
  C  C237  1  0.546900  0.080900  0.198800  1.0
  C  C238  1  0.453100  0.919100  0.801200  1.0
  C  C239  1  0.614800  0.028200  0.208400  1.0
  C  C240  1  0.385200  0.971800  0.791600  1.0
  C  C241  1  0.634300  0.994800  0.173600  1.0
  C  C242  1  0.365700  0.005200  0.826400  1.0
  C  C243  1  0.585800  0.014200  0.129300  1.0
  C  C244  1  0.414200  0.985800  0.870700  1.0
  C  C245  1  0.517800  0.066900  0.119800  1.0
  C  C246  1  0.482200  0.933100  0.880200  1.0
  C  C247  1  0.527400  0.109500  0.234300  1.0
  C  C248  1  0.472600  0.890500  0.765700  1.0
  C  C249  1  0.562300  0.106400  0.280000  1.0
  C  C250  1  0.437700  0.893600  0.720000  1.0
  C  C251  1  0.512900  0.151500  0.300200  1.0
  C  C252  1  0.487100  0.848500  0.699800  1.0
  C  C253  1  0.380900  0.225300  0.274000  1.0
  C  C254  1  0.619100  0.774700  0.726000  1.0
  C  C255  1  0.094300  0.122700  0.461500  1.0
  C  C256  1  0.905700  0.877300  0.538500  1.0
  C  C257  1  0.067600  0.078900  0.488900  1.0
  C  C258  1  0.932400  0.921100  0.511100  1.0
  C  C259  1  0.042100  0.081500  0.535700  1.0
  C  C260  1  0.957900  0.918500  0.464300  1.0
  C  C261  1  0.043300  0.127900  0.555000  1.0
  C  C262  1  0.956700  0.872100  0.445000  1.0
  C  C263  1  0.070000  0.171700  0.527600  1.0
  C  C264  1  0.930000  0.828300  0.472400  1.0
  C  C265  1  0.115600  0.127000  0.414700  1.0
  C  C266  1  0.884400  0.873000  0.585300  1.0
  C  C267  1  0.124500  0.085000  0.386100  1.0
  C  C268  1  0.875500  0.915000  0.613900  1.0
  C  C269  1  0.149200  0.111100  0.338000  1.0
  C  C270  1  0.850800  0.888900  0.662000  1.0
  C  C271  1  0.183900  0.206800  0.302000  1.0
  C  C272  1  0.816100  0.793200  0.698000  1.0
  C  C273  1  0.358200  0.171300  0.305100  1.0
  C  C274  1  0.641800  0.828700  0.694900  1.0
  C  C275  1  0.399600  0.098300  0.347000  1.0
  C  C276  1  0.600400  0.901700  0.653000  1.0
  C  C277  1  0.370600  0.058300  0.377400  1.0
  C  C278  1  0.629400  0.941700  0.622600  1.0
  C  C279  1  0.300200  0.091300  0.365700  1.0
  C  C280  1  0.699800  0.908700  0.634300  1.0
  C  C281  1  0.258800  0.164300  0.323700  1.0
  C  C282  1  0.741200  0.835700  0.676300  1.0
  C  C283  1  0.295900  0.141500  0.191600  1.0
  C  C284  1  0.704100  0.858500  0.808400  1.0
  C  C285  1  0.272100  0.096000  0.222500  1.0
  C  C286  1  0.727900  0.904000  0.777500  1.0
  C  C287  1  0.316700  0.019800  0.252700  1.0
  C  C288  1  0.683300  0.980200  0.747300  1.0
  C  C289  1  0.385100  0.989100  0.252000  1.0
  C  C290  1  0.614900  0.010900  0.748000  1.0
  C  C291  1  0.408900  0.034600  0.221000  1.0
  C  C292  1  0.591100  0.965400  0.779000  1.0
  C  C293  1  0.257500  0.216200  0.163400  1.0
  C  C294  1  0.742500  0.783800  0.836600  1.0
  C  C295  1  0.186200  0.267600  0.146300  1.0
  C  C296  1  0.813800  0.732400  0.853700  1.0
  C  C297  1  0.175000  0.340000  0.117000  1.0
  C  C298  1  0.825000  0.660000  0.883000  1.0
  C  C299  1  0.251100  0.390400  0.089200  1.0
  C  C300  1  0.748900  0.609600  0.910800  1.0
  C  C301  1  0.192400  0.740700  0.943100  1.0
  C  C302  1  0.807600  0.259300  0.056900  1.0
  C  C303  1  0.181200  0.777800  0.975000  1.0
  C  C304  1  0.818800  0.222200  0.025000  1.0
  C  C305  1  0.125100  0.849000  0.954900  1.0
  C  C306  1  0.874900  0.151000  0.045100  1.0
  C  C307  1  0.080100  0.883300  0.902900  1.0
  C  C308  1  0.919900  0.116700  0.097100  1.0
  C  C309  1  0.091300  0.846200  0.871100  1.0
  C  C310  1  0.908700  0.153800  0.128900  1.0
  C  C311  1  0.244500  0.671900  0.960100  1.0
  C  C312  1  0.755500  0.328100  0.039900  1.0
  C  C313  1  0.300800  0.621000  0.008200  1.0
  C  C314  1  0.699200  0.379000  0.991800  1.0
  C  C315  1  0.340700  0.555500  0.003300  1.0
  C  C316  1  0.659300  0.444500  0.996700  1.0
  C  C317  1  0.326400  0.513500  0.932000  1.0
  C  C318  1  0.673600  0.486500  0.068000  1.0
  C  C319  1  0.257500  0.405400  0.030300  1.0
  C  C320  1  0.742500  0.594600  0.969700  1.0
  C  C321  1  0.239500  0.380000  0.998000  1.0
  C  C322  1  0.760500  0.620000  0.002000  1.0
  C  C323  1  0.248200  0.399700  0.942900  1.0
  C  C324  1  0.751800  0.600300  0.057100  1.0
  C  C325  1  0.274800  0.444800  0.920300  1.0
  C  C326  1  0.725200  0.555200  0.079700  1.0
  C  C327  1  0.292800  0.470200  0.952700  1.0
  C  C328  1  0.707200  0.529800  0.047300  1.0
  C  C329  1  0.428600  0.278300  0.046500  1.0
  C  C330  1  0.571400  0.721700  0.953500  1.0
  C  C331  1  0.453200  0.323000  0.015500  1.0
  C  C332  1  0.546800  0.677000  0.984500  1.0
  C  C333  1  0.471800  0.356700  0.039100  1.0
  C  C334  1  0.528200  0.643300  0.960900  1.0
  C  C335  1  0.465700  0.345800  0.093700  1.0
  C  C336  1  0.534300  0.654200  0.906300  1.0
  C  C337  1  0.441200  0.301100  0.124800  1.0
  C  C338  1  0.558800  0.698900  0.875200  1.0
  C  C339  1  0.403300  0.249100  0.025300  1.0
  C  C340  1  0.596700  0.750900  0.974700  1.0
  C  C341  1  0.399100  0.249600  0.972100  1.0
  C  C342  1  0.600900  0.750400  0.027900  1.0
  C  C343  1  0.367400  0.209900  0.972700  1.0
  C  C344  1  0.632600  0.790100  0.027300  1.0
  C  C345  1  0.320900  0.142900  0.051600  1.0
  C  C346  1  0.679100  0.857100  0.948400  1.0
  C  C347  1  0.920700  0.389300  0.802800  1.0
  C  C348  1  0.079300  0.610700  0.197200  1.0
  C  C349  1  0.852500  0.437200  0.773700  1.0
  C  C350  1  0.147500  0.562800  0.226300  1.0
  C  C351  1  0.821900  0.417900  0.743900  1.0
  C  C352  1  0.178100  0.582100  0.256100  1.0
  C  C353  1  0.859600  0.350800  0.743200  1.0
  C  C354  1  0.140400  0.649200  0.256800  1.0
  C  C355  1  0.927800  0.302800  0.772400  1.0
  C  C356  1  0.072200  0.697200  0.227600  1.0
  C  C357  1  0.957400  0.402900  0.830500  1.0
  C  C358  1  0.042600  0.597100  0.169500  1.0
  C  C359  1  0.936500  0.458200  0.847900  1.0
  C  C360  1  0.063500  0.541800  0.152100  1.0
  C  C361  1  0.995600  0.446400  0.877400  1.0
  C  C362  1  0.004400  0.553600  0.122600  1.0
  C  C363  1  0.120500  0.354400  0.901600  1.0
  C  C364  1  0.879500  0.645600  0.098400  1.0
  C  C365  1  0.245600  0.188400  0.031700  1.0
  C  C366  1  0.754400  0.811600  0.968300  1.0
  C  C367  1  0.205000  0.172700  0.067000  1.0
  C  C368  1  0.795000  0.827300  0.933000  1.0
  C  C369  1  0.134500  0.216400  0.047700  1.0
  C  C370  1  0.865500  0.783600  0.952300  1.0
  C  C371  1  0.104600  0.275800  0.993100  1.0
  C  C372  1  0.895400  0.724200  0.006900  1.0
  C  C373  1  0.145200  0.291500  0.957800  1.0
  C  C374  1  0.854800  0.708500  0.042200  1.0
  C  C375  1  0.064400  0.354800  0.467400  1.0
  C  C376  1  0.935600  0.645200  0.532600  1.0
  C  C377  1  0.054300  0.396200  0.495400  1.0
  C  C378  1  0.945700  0.603800  0.504600  1.0
  C  C379  1  0.107700  0.375300  0.536300  1.0
  C  C380  1  0.892300  0.624700  0.463700  1.0
  C  C381  1  0.171200  0.312900  0.549100  1.0
  C  C382  1  0.828800  0.687100  0.450900  1.0
  C  C383  1  0.181300  0.271400  0.521100  1.0
  C  C384  1  0.818700  0.728600  0.478900  1.0
  C  C385  1  0.018600  0.374300  0.423300  1.0
  C  C386  1  0.981400  0.625700  0.576700  1.0
  C  C387  1  0.948900  0.430600  0.398400  1.0
  C  C388  1  0.051100  0.569400  0.601600  1.0
  C  C389  1  0.927200  0.427000  0.350600  1.0
  C  C390  1  0.072800  0.573000  0.649400  1.0
  C  C391  1  0.988000  0.341600  0.305600  1.0
  C  C392  1  0.012000  0.658400  0.694400  1.0
  C  C393  1  0.220900  0.834400  0.784200  1.0
  C  C394  1  0.779100  0.165600  0.215800  1.0
  C  C395  1  0.255700  0.871500  0.774400  1.0
  C  C396  1  0.744300  0.128500  0.225600  1.0
  C  C397  1  0.322800  0.834200  0.804400  1.0
  C  C398  1  0.677200  0.165800  0.195600  1.0
  C  C399  1  0.355000  0.759800  0.844300  1.0
  C  C400  1  0.645000  0.240200  0.155700  1.0
  C  C401  1  0.320200  0.722700  0.854100  1.0
  C  C402  1  0.679800  0.277300  0.145900  1.0
  C  C403  1  0.156300  0.867900  0.755300  1.0
  C  C404  1  0.843700  0.132100  0.244700  1.0
  C  C405  1  0.107800  0.940400  0.712300  1.0
  C  C406  1  0.892200  0.059600  0.287700  1.0
  C  C407  1  0.048500  0.940900  0.696800  1.0
  C  C408  1  0.951500  0.059100  0.303200  1.0
  C  C409  1  0.017700  0.840300  0.723600  1.0
  C  C410  1  0.982300  0.159700  0.276400  1.0
  C  C411  1  0.964000  0.287100  0.327300  1.0
  C  C412  1  0.036000  0.712900  0.672700  1.0
  C  C413  1  0.928700  0.274800  0.369000  1.0
  C  C414  1  0.071300  0.725200  0.631000  1.0
  C  C415  1  0.909700  0.223200  0.380200  1.0
  C  C416  1  0.090300  0.776800  0.619800  1.0
  C  C417  1  0.925900  0.183900  0.349800  1.0
  C  C418  1  0.074100  0.816100  0.650200  1.0
  C  C419  1  0.038800  0.803900  0.691900  1.0
  C  C420  1  0.961200  0.196100  0.308100  1.0
  C  C421  1  0.295200  0.161900  0.460600  1.0
  C  C422  1  0.704800  0.838100  0.539400  1.0
  C  C423  1  0.363700  0.107400  0.484800  1.0
  C  C424  1  0.636300  0.892600  0.515200  1.0
  C  C425  1  0.382500  0.038000  0.528600  1.0
  C  C426  1  0.617500  0.962000  0.471400  1.0
  C  C427  1  0.332800  0.023000  0.548200  1.0
  C  C428  1  0.667200  0.977000  0.451800  1.0
  C  C429  1  0.264300  0.077500  0.524000  1.0
  C  C430  1  0.735700  0.922500  0.476000  1.0
  C  C431  1  0.273100  0.227900  0.415300  1.0
  C  C432  1  0.726900  0.772100  0.584700  1.0
  C  C433  1  0.306000  0.266000  0.387000  1.0
  C  C434  1  0.694000  0.734000  0.613000  1.0
  C  C435  1  0.256200  0.335100  0.341100  1.0
  C  C436  1  0.743800  0.664900  0.658900  1.0
  C  C437  1  0.128900  0.396600  0.305200  1.0
  C  C438  1  0.871100  0.603400  0.694800  1.0
  C  C439  1  0.131000  0.139000  0.802100  1.0
  C  C440  1  0.869000  0.861000  0.197900  1.0
  C  C441  1  0.165900  0.069800  0.804400  1.0
  C  C442  1  0.834100  0.930200  0.195600  1.0
  C  C443  1  0.161000  0.011900  0.845000  1.0
  C  C444  1  0.839000  0.988100  0.155000  1.0
  C  C445  1  0.121400  0.023200  0.883200  1.0
  C  C446  1  0.878600  0.976800  0.116800  1.0
  C  C447  1  0.086600  0.092400  0.880900  1.0
  C  C448  1  0.913400  0.907600  0.119100  1.0
  C  C449  1  0.126800  0.209800  0.758900  1.0
  C  C450  1  0.873200  0.790200  0.241100  1.0
  C  C451  1  0.161000  0.221000  0.714700  1.0
  C  C452  1  0.839000  0.779000  0.285300  1.0
  C  C453  1  0.151900  0.292200  0.694700  1.0
  C  C454  1  0.848100  0.707800  0.305300  1.0
  C  C455  1  0.084000  0.392000  0.724000  1.0
  C  C456  1  0.916000  0.608000  0.276000  1.0
  C  C457  1  0.094000  0.451800  0.327000  1.0
  C  C458  1  0.906000  0.548200  0.673000  1.0
  C  C459  1  0.123200  0.459400  0.367500  1.0
  C  C460  1  0.876800  0.540600  0.632500  1.0
  C  C461  1  0.084700  0.518600  0.378300  1.0
  C  C462  1  0.915300  0.481400  0.621700  1.0
  C  C463  1  0.017000  0.570100  0.348500  1.0
  C  C464  1  0.983000  0.429900  0.651500  1.0
  C  C465  1  0.012200  0.437500  0.692000  1.0
  C  C466  1  0.987800  0.562500  0.308000  1.0
  C  C467  1  0.187700  0.620800  0.794000  1.0
  C  C468  1  0.812300  0.379200  0.206000  1.0
  C  C469  1  0.203300  0.584700  0.761100  1.0
  C  C470  1  0.796700  0.415300  0.238900  1.0
  C  C471  1  0.249600  0.587300  0.728100  1.0
  C  C472  1  0.750400  0.412700  0.271900  1.0
  C  C473  1  0.280400  0.626100  0.728000  1.0
  C  C474  1  0.719600  0.373900  0.272000  1.0
  C  C475  1  0.264900  0.662300  0.760900  1.0
  C  C476  1  0.735100  0.337700  0.239100  1.0
  C  C477  1  0.142400  0.621000  0.826300  1.0
  C  C478  1  0.857600  0.379000  0.173700  1.0
  C  C479  1  0.110300  0.579500  0.845700  1.0
  C  C480  1  0.889700  0.420500  0.154300  1.0
  C  C481  1  0.067600  0.605000  0.879400  1.0
  C  C482  1  0.932400  0.395000  0.120600  1.0
  C  C483  1  0.035500  0.706500  0.907500  1.0
  C  C484  1  0.964500  0.293500  0.092500  1.0
  C  C485  1  0.186000  0.135500  0.943300  1.0
  C  C486  1  0.814000  0.864500  0.056700  1.0
  C  C487  1  0.253800  0.082700  0.972200  1.0
  C  C488  1  0.746200  0.917300  0.027800  1.0
  C  C489  1  0.305400  0.087400  0.947100  1.0
  C  C490  1  0.694600  0.912600  0.052900  1.0
  C  C491  1  0.289300  0.144900  0.893100  1.0
  C  C492  1  0.710700  0.855100  0.106900  1.0
  C  C493  1  0.221500  0.197700  0.864200  1.0
  C  C494  1  0.778500  0.802300  0.135800  1.0
  C  C495  1  0.131800  0.138000  0.965100  1.0
  C  C496  1  0.868200  0.862000  0.034900  1.0
  C  C497  1  0.127300  0.094100  0.019200  1.0
  C  C498  1  0.872700  0.905900  0.980800  1.0
  C  C499  1  0.057300  0.123400  0.019100  1.0
  C  C500  1  0.942700  0.876600  0.980900  1.0
  C  C501  1  0.949000  0.229800  0.944600  1.0
  C  C502  1  0.051000  0.770200  0.055400  1.0
  C  C503  1  0.077000  0.679500  0.962300  1.0
  C  C504  1  0.923000  0.320500  0.037700  1.0
  C  C505  1  0.137000  0.611700  0.993700  1.0
  C  C506  1  0.863000  0.388300  0.006300  1.0
  C  C507  1  0.169100  0.593900  0.046500  1.0
  C  C508  1  0.830900  0.406100  0.953500  1.0
  C  C509  1  0.141100  0.643700  0.068000  1.0
  C  C510  1  0.858900  0.356300  0.932000  1.0
  C  C511  1  0.919000  0.288500  0.963400  1.0
  C  C512  1  0.081000  0.711500  0.036600  1.0
  N  N513  1  0.498400  0.100300  0.154600  1.0
  N  N514  1  0.501600  0.899700  0.845400  1.0
  N  N515  1  0.447500  0.182400  0.267000  1.0
  N  N516  1  0.552500  0.817600  0.733000  1.0
  N  N517  1  0.456400  0.156400  0.226300  1.0
  N  N518  1  0.543600  0.843600  0.773700  1.0
  N  N519  1  0.095500  0.169100  0.480800  1.0
  N  N520  1  0.904500  0.830900  0.519200  1.0
  N  N521  1  0.155500  0.169300  0.336900  1.0
  N  N522  1  0.844500  0.830700  0.663100  1.0
  N  N523  1  0.134700  0.179100  0.384400  1.0
  N  N524  1  0.865300  0.820900  0.615600  1.0
  N  N525  1  0.287800  0.204300  0.293400  1.0
  N  N526  1  0.712200  0.795700  0.706600  1.0
  N  N527  1  0.364300  0.110800  0.190900  1.0
  N  N528  1  0.635700  0.889200  0.809100  1.0
  N  N529  1  0.239500  0.333400  0.115900  1.0
  N  N530  1  0.760500  0.666600  0.884100  1.0
  N  N531  1  0.290500  0.256900  0.144600  1.0
  N  N532  1  0.709500  0.743100  0.855400  1.0
  N  N533  1  0.147400  0.774900  0.891200  1.0
  N  N534  1  0.852600  0.225100  0.108800  1.0
  N  N535  1  0.309000  0.566000  0.952100  1.0
  N  N536  1  0.691000  0.434000  0.047900  1.0
  N  N537  1  0.249600  0.638000  0.925400  1.0
  N  N538  1  0.750400  0.362000  0.074600  1.0
  N  N539  1  0.284100  0.450500  0.007700  1.0
  N  N540  1  0.715900  0.549500  0.992300  1.0
  N  N541  1  0.422600  0.267400  0.101100  1.0
  N  N542  1  0.577400  0.732600  0.898900  1.0
  N  N543  1  0.352000  0.185000  0.026400  1.0
  N  N544  1  0.648000  0.815000  0.973600  1.0
  N  N545  1  0.374200  0.209200  0.058900  1.0
  N  N546  1  0.625800  0.790800  0.941100  1.0
  N  N547  1  0.958400  0.322100  0.802100  1.0
  N  N548  1  0.041600  0.677900  0.197900  1.0
  N  N549  1  0.053100  0.383600  0.878300  1.0
  N  N550  1  0.946900  0.616400  0.121700  1.0
  N  N551  1  0.029500  0.356700  0.849300  1.0
  N  N552  1  0.970500  0.643300  0.150700  1.0
  N  N553  1  0.215700  0.247800  0.977100  1.0
  N  N554  1  0.784300  0.752200  0.022900  1.0
  N  N555  1  0.127900  0.292400  0.480200  1.0
  N  N556  1  0.872100  0.707600  0.519800  1.0
  N  N557  1  0.983700  0.368400  0.345900  1.0
  N  N558  1  0.016300  0.631600  0.654100  1.0
  N  N559  1  0.040200  0.335900  0.390900  1.0
  N  N560  1  0.959800  0.664100  0.609100  1.0
  N  N561  1  0.253200  0.760000  0.824100  1.0
  N  N562  1  0.746800  0.240000  0.175900  1.0
  N  N563  1  0.060500  0.868700  0.730300  1.0
  N  N564  1  0.939500  0.131300  0.269700  1.0
  N  N565  1  0.127100  0.823500  0.766500  1.0
  N  N566  1  0.872900  0.176500  0.233500  1.0
  N  N567  1  0.980200  0.247700  0.296800  1.0
  N  N568  1  0.019800  0.752300  0.703200  1.0
  N  N569  1  0.245500  0.146900  0.480200  1.0
  N  N570  1  0.754500  0.853100  0.519800  1.0
  N  N571  1  0.192500  0.339800  0.341000  1.0
  N  N572  1  0.807500  0.660200  0.659000  1.0
  N  N573  1  0.202900  0.273500  0.386900  1.0
  N  N574  1  0.797100  0.726500  0.613100  1.0
  N  N575  1  0.091400  0.150400  0.840300  1.0
  N  N576  1  0.908600  0.849600  0.159700  1.0
  N  N577  1  0.112000  0.325000  0.726500  1.0
  N  N578  1  0.888000  0.675000  0.273500  1.0
  N  N579  1  0.096500  0.274100  0.766200  1.0
  N  N580  1  0.903500  0.725900  0.233800  1.0
  N  N581  1  0.026300  0.503300  0.297200  1.0
  N  N582  1  0.973700  0.496700  0.702800  1.0
  N  N583  1  0.218500  0.659600  0.793800  1.0
  N  N584  1  0.781500  0.340400  0.206200  1.0
  N  N585  1  0.073200  0.662400  0.880800  1.0
  N  N586  1  0.926800  0.337600  0.119200  1.0
  N  N587  1  0.119500  0.672300  0.848000  1.0
  N  N588  1  0.880500  0.327700  0.152000  1.0
  N  N589  1  0.169900  0.193000  0.889200  1.0
  N  N590  1  0.830100  0.807000  0.110800  1.0
  N  N591  1  0.018500  0.185400  0.964900  1.0
  N  N592  1  0.981500  0.814600  0.035100  1.0
  N  N593  1  0.064600  0.194500  0.931500  1.0
  N  N594  1  0.935400  0.805500  0.068500  1.0
  N  N595  1  0.049000  0.729400  0.983700  1.0
  N  N596  1  0.951000  0.270600  0.016300  1.0
  Cl  Cl597  1  0.118000  0.092700  0.208400  1
  Cl  Cl598  1  0.882000  0.907300  0.791600  1
  Cl  Cl599  1  0.303300  0.435700  0.201700  1
  Cl  Cl600  1  0.696700  0.564300  0.798300  1
  Cl  Cl601  1  0.520700  0.480300  0.106700  1
  Cl  Cl602  1  0.479300  0.519700  0.893300  1
  Cl  Cl603  1  0.515000  0.160900  0.446900  1
  Cl  Cl604  1  0.485000  0.839100  0.553100  1
  Cl  Cl605  1  0.774500  0.595700  0.214090  1
  Cl  Cl606  1  0.225500  0.404300  0.785910  1
  Cl  Cl607  1  0.213400  0.064700  0.660130  1
  Cl  Cl608  1  0.786600  0.935300  0.339870  1
  Cl  Cl609  1  0.120100  0.065000  0.193900  1
  Cl  Cl610  1  0.879900  0.935000  0.806100  1
  Cl  Cl611  1  0.462600  0.575000  0.078100  1
  Cl  Cl612  1  0.537400  0.425000  0.921900  1
  Cl  Cl613  1  0.490800  0.953700  0.034800  1
  Cl  Cl614  1  0.509200  0.046300  0.965200  1
  Cl  Cl615  1  0.000000  0.500000  0.000000  1
  O  O616  1  0.053200  0.098600  0.200100  1
  O  O617  1  0.946800  0.901400  0.799900  1
  O  O618  1  0.154100  0.073200  0.168500  1
  O  O619  1  0.845900  0.926800  0.831500  1
  O  O620  1  0.105900  0.164200  0.198500  1
  O  O621  1  0.894100  0.835800  0.801500  1
  O  O622  1  0.157800  0.038500  0.265400  1
  O  O623  1  0.842200  0.961500  0.734600  1
  O  O624  1  0.244800  0.428800  0.195400  1
  O  O625  1  0.755200  0.571200  0.804600  1
  O  O626  1  0.363200  0.373600  0.204700  1
  O  O627  1  0.636800  0.626400  0.795300  1
  O  O628  1  0.309700  0.441500  0.253400  1
  O  O629  1  0.690300  0.558500  0.746600  1
  O  O630  1  0.291400  0.503100  0.154100  1
  O  O631  1  0.708600  0.496900  0.845900  1
  O  O632  1  0.581800  0.434400  0.152400  1
  O  O633  1  0.418200  0.565600  0.847600  1
  O  O634  1  0.465900  0.474400  0.127900  1
  O  O635  1  0.534100  0.525600  0.872100  1
  O  O636  1  0.534700  0.455800  0.064000  1
  O  O637  1  0.465300  0.544200  0.936000  1
  O  O638  1  0.504000  0.556200  0.081900  1
  O  O639  1  0.496000  0.443800  0.918100  1
  O  O640  1  0.479200  0.143000  0.417900  1
  O  O641  1  0.520800  0.857000  0.582100  1
  O  O642  1  0.571100  0.091500  0.488900  1
  O  O643  1  0.428900  0.908500  0.511100  1
  O  O644  1  0.535000  0.205000  0.403100  1
  O  O645  1  0.465000  0.795000  0.596900  1
  O  O646  1  0.465600  0.203000  0.470200  1
  O  O647  1  0.534400  0.797000  0.529800  1
  O  O648  1  0.838100  0.550100  0.206300  1
  O  O649  1  0.161900  0.449900  0.793700  1
  O  O650  1  0.720100  0.605800  0.178100  1
  O  O651  1  0.279900  0.394200  0.821900  1
  O  O652  1  0.772700  0.560200  0.272500  1
  O  O653  1  0.227300  0.439800  0.727500  1
  O  O654  1  0.765200  0.666500  0.199900  1
  O  O655  1  0.234800  0.333500  0.800100  1
  O  O656  1  0.197300  0.132600  0.611900  1
  O  O657  1  0.802700  0.867400  0.388100  1
  O  O658  1  0.233700  0.067200  0.711000  1
  O  O659  1  0.766300  0.932800  0.289000  1
  O  O660  1  0.159000  0.053400  0.664500  1
  O  O661  1  0.841000  0.946600  0.335500  1
  O  O662  1  0.272900  0.003700  0.658700  1
  O  O663  1  0.727100  0.996300  0.341300  1
  O  O664  1  0.094200  0.142900  0.166800  1
  O  O665  1  0.905800  0.857100  0.833200  1
  O  O666  1  0.159800  0.033700  0.159700  1
  O  O667  1  0.840200  0.966300  0.840300  1
  O  O668  1  0.164700  0.029500  0.249200  1
  O  O669  1  0.835300  0.970500  0.750800  1
  O  O670  1  0.065600  0.050900  0.200200  1
  O  O671  1  0.934400  0.949100  0.799800  1
  O  O672  1  0.353800  0.395000  0.178900  1
  O  O673  1  0.646200  0.605000  0.821100  1
  O  O674  1  0.330600  0.405500  0.261600  1
  O  O675  1  0.669400  0.594500  0.738400  1
  O  O676  1  0.282400  0.512500  0.172500  1
  O  O677  1  0.717600  0.487500  0.827500  1
  O  O678  1  0.416000  0.612000  0.023400  1
  O  O679  1  0.584000  0.388000  0.976600  1
  O  O680  1  0.452000  0.628000  0.096000  1
  O  O681  1  0.548000  0.372000  0.904000  1
  O  O682  1  0.450000  0.521000  0.119000  1
  O  O683  1  0.550000  0.479000  0.881000  1
  O  O684  1  0.532000  0.539000  0.073000  1
  O  O685  1  0.468000  0.461000  0.927000  1
  O  O686  1  0.537900  0.103200  0.505200  1
  O  O687  1  0.462100  0.896800  0.494800  1
  O  O688  1  0.570200  0.157200  0.420100  1
  O  O689  1  0.429800  0.842800  0.579900  1
  O  O690  1  0.466500  0.232700  0.439300  1
  O  O691  1  0.533500  0.767300  0.560700  1
  O  O692  1  0.721100  0.631400  0.164500  1
  O  O693  1  0.278900  0.368600  0.835500  1
  O  O694  1  0.760600  0.549900  0.262600  1
  O  O695  1  0.239400  0.450100  0.737400  1
  O  O696  1  0.776200  0.650600  0.224200  1
  O  O697  1  0.223800  0.349400  0.775800  1
  O  O698  1  0.267600  0.037000  0.703100  1
  O  O699  1  0.732400  0.963000  0.296900  1
  O  O700  1  0.152000  0.078400  0.681900  1
  O  O701  1  0.848000  0.921600  0.318100  1
  O  O702  1  0.225000  0.010900  0.641100  1
  O  O703  1  0.775000  0.989100  0.358900  1
  O  O704  1  0.455300  0.027800  0.026900  1
  O  O705  1  0.544700  0.972200  0.973100  1
  O  O706  1  0.503200  0.954500  0.981900  1
  O  O707  1  0.496800  0.045500  0.018100  1
  O  O708  1  0.555000  0.910700  0.076200  1
  O  O709  1  0.445000  0.089300  0.923800  1
  O  O710  1  0.450900  0.920200  0.055400  1
  O  O711  1  0.549100  0.079800  0.944600  1
  O  O712  1  0.457900  0.947600  0.994100  1
  O  O713  1  0.542100  0.052400  0.005900  1
  O  O714  1  0.560000  0.931700  0.031000  1
  O  O715  1  0.440000  0.068300  0.969000  1
  O  O716  1  0.492000  0.904700  0.091900  1
  O  O717  1  0.508000  0.095300  0.908100  1
  O  O718  1  0.059800  0.466200  0.975900  1
  O  O719  1  0.940200  0.533800  0.024100  1
  O  O720  1  0.948500  0.488300  0.980400  1
  O  O721  1  0.051500  0.511700  0.019600  1
  O  O722  1  0.978700  0.539600  0.942000  1
  O  O723  1  0.021300  0.460400  0.058000  1
  O  O724  1  0.971100  0.575100  0.973900  1
  O  O725  1  0.028900  0.424900  0.026100  1
