# generated using pymatgen
data_Ni2B6H57C69N21OF34
_symmetry_space_group_name_H-M   'P 1'
_cell_length_a   14.43567141
_cell_length_b   14.43567141
_cell_length_c   37.08300000
_cell_angle_alpha   80.14958906
_cell_angle_beta   80.14958906
_cell_angle_gamma   84.44621677
_symmetry_Int_Tables_number   1
_chemical_formula_structural   Ni2B6H57C69N21OF34
_chemical_formula_sum   'Ni8 B24 H228 C276 N84 O4 F136'
_cell_volume   7483.34348565
_cell_formula_units_Z   4
loop_
 _symmetry_equiv_pos_site_id
 _symmetry_equiv_pos_as_xyz
  1  'x, y, z'
loop_
 _atom_site_type_symbol
 _atom_site_label
 _atom_site_symmetry_multiplicity
 _atom_site_fract_x
 _atom_site_fract_y
 _atom_site_fract_z
 _atom_site_occupancy
  B  B1  1  0.711200  0.590400  0.815950  1
  B  B2  1  0.409600  0.288800  0.684050  1
  B  B3  1  0.288800  0.409600  0.184050  1
  B  B4  1  0.590400  0.711200  0.315950  1
  B  B5  1  0.057700  0.205700  0.976830  1
  B  B6  1  0.794300  0.942300  0.523170  1
  B  B7  1  0.942300  0.794300  0.023170  1
  B  B8  1  0.205700  0.057700  0.476830  1
  B  B9  1  0.818900  0.898100  0.704700  1
  B  B10  1  0.101900  0.181100  0.795300  1
  B  B11  1  0.181100  0.101900  0.295300  1
  B  B12  1  0.898100  0.818900  0.204700  1
  B  B13  1  0.543100  0.654900  0.973130  1
  B  B14  1  0.345100  0.456900  0.526870  1
  B  B15  1  0.456900  0.345100  0.026870  1
  B  B16  1  0.654900  0.543100  0.473130  1
  B  B17  1  0.367300  0.799100  0.965500  1
  B  B18  1  0.200900  0.632700  0.534500  1
  B  B19  1  0.632700  0.200900  0.034500  1
  B  B20  1  0.799100  0.367300  0.465500  1
  B  B21  1  0.384000  0.823600  0.960300  1
  B  B22  1  0.176400  0.616000  0.539700  1
  B  B23  1  0.616000  0.176400  0.039700  1
  B  B24  1  0.823600  0.384000  0.460300  1
  C  C25  1  0.738500  0.172900  0.929600  1.0
  C  C26  1  0.827100  0.261500  0.570400  1.0
  C  C27  1  0.261500  0.827100  0.070400  1.0
  C  C28  1  0.172900  0.738500  0.429600  1.0
  C  C29  1  0.816000  0.157000  0.947500  1.0
  C  C30  1  0.843000  0.184000  0.552500  1.0
  C  C31  1  0.184000  0.843000  0.052500  1.0
  C  C32  1  0.157000  0.816000  0.447500  1.0
  C  C33  1  0.858000  0.066800  0.953400  1.0
  C  C34  1  0.933200  0.142000  0.546600  1.0
  C  C35  1  0.142000  0.933200  0.046600  1.0
  C  C36  1  0.066800  0.858000  0.453400  1.0
  C  C37  1  0.823000  0.996400  0.940700  1.0
  C  C38  1  0.003600  0.177000  0.559300  1.0
  C  C39  1  0.177000  0.003600  0.059300  1.0
  C  C40  1  0.996400  0.823000  0.440700  1.0
  C  C41  1  0.744800  0.015800  0.922000  1.0
  C  C42  1  0.984200  0.255200  0.578000  1.0
  C  C43  1  0.255200  0.984200  0.078000  1.0
  C  C44  1  0.015800  0.744800  0.422000  1.0
  C  C45  1  0.691500  0.264500  0.921600  1.0
  C  C46  1  0.735500  0.308500  0.578400  1.0
  C  C47  1  0.308500  0.735500  0.078400  1.0
  C  C48  1  0.264500  0.691500  0.421600  1.0
  C  C49  1  0.700200  0.350000  0.933200  1.0
  C  C50  1  0.650000  0.299800  0.566800  1.0
  C  C51  1  0.299800  0.650000  0.066800  1.0
  C  C52  1  0.350000  0.700200  0.433200  1.0
  C  C53  1  0.639300  0.414700  0.916400  1.0
  C  C54  1  0.585300  0.360700  0.583600  1.0
  C  C55  1  0.360700  0.585300  0.083600  1.0
  C  C56  1  0.414700  0.639300  0.416400  1.0
  C  C57  1  0.530300  0.412700  0.870900  1.0
  C  C58  1  0.587300  0.469700  0.629100  1.0
  C  C59  1  0.469700  0.587300  0.129100  1.0
  C  C60  1  0.412700  0.530300  0.370900  1.0
  C  C61  1  0.911600  0.601000  0.896900  1.0
  C  C62  1  0.399000  0.088400  0.603100  1.0
  C  C63  1  0.088400  0.399000  0.103100  1.0
  C  C64  1  0.601000  0.911600  0.396900  1.0
  C  C65  1  0.815400  0.597800  0.899800  1.0
  C  C66  1  0.402200  0.184600  0.600200  1.0
  C  C67  1  0.184600  0.402200  0.100200  1.0
  C  C68  1  0.597800  0.815400  0.399800  1.0
  C  C69  1  0.756500  0.669500  0.914400  1.0
  C  C70  1  0.330500  0.243500  0.585600  1.0
  C  C71  1  0.243500  0.330500  0.085600  1.0
  C  C72  1  0.669500  0.756500  0.414400  1.0
  C  C73  1  0.795700  0.738300  0.926400  1.0
  C  C74  1  0.261700  0.204300  0.573600  1.0
  C  C75  1  0.204300  0.261700  0.073600  1.0
  C  C76  1  0.738300  0.795700  0.426400  1.0
  C  C77  1  0.893900  0.737900  0.923000  1.0
  C  C78  1  0.262100  0.106100  0.577000  1.0
  C  C79  1  0.106100  0.262100  0.077000  1.0
  C  C80  1  0.737900  0.893900  0.423000  1.0
  C  C81  1  0.979200  0.528400  0.882400  1.0
  C  C82  1  0.471600  0.020800  0.617600  1.0
  C  C83  1  0.020800  0.471600  0.117600  1.0
  C  C84  1  0.528400  0.979200  0.382400  1.0
  C  C85  1  0.964300  0.440300  0.875600  1.0
  C  C86  1  0.559700  0.035700  0.624400  1.0
  C  C87  1  0.035700  0.559700  0.124400  1.0
  C  C88  1  0.440300  0.964300  0.375600  1.0
  C  C89  1  0.051100  0.404100  0.862400  1.0
  C  C90  1  0.595900  0.948900  0.637600  1.0
  C  C91  1  0.948900  0.595900  0.137600  1.0
  C  C92  1  0.404100  0.051100  0.362400  1.0
  C  C93  1  0.214600  0.461000  0.847600  1.0
  C  C94  1  0.539000  0.785400  0.652400  1.0
  C  C95  1  0.785400  0.539000  0.152400  1.0
  C  C96  1  0.461000  0.214600  0.347600  1.0
  C  C97  1  0.428200  0.401200  0.888700  1.0
  C  C98  1  0.598800  0.571800  0.611300  1.0
  C  C99  1  0.571800  0.598800  0.111300  1.0
  C  C100  1  0.401200  0.428200  0.388700  1.0
  C  C101  1  0.399100  0.368900  0.925200  1.0
  C  C102  1  0.631100  0.600900  0.574800  1.0
  C  C103  1  0.600900  0.631100  0.074800  1.0
  C  C104  1  0.368900  0.399100  0.425200  1.0
  C  C105  1  0.303300  0.364500  0.937800  1.0
  C  C106  1  0.635500  0.696700  0.562200  1.0
  C  C107  1  0.696700  0.635500  0.062200  1.0
  C  C108  1  0.364500  0.303300  0.437800  1.0
  C  C109  1  0.240100  0.392300  0.913500  1.0
  C  C110  1  0.607700  0.759900  0.586500  1.0
  C  C111  1  0.759900  0.607700  0.086500  1.0
  C  C112  1  0.392300  0.240100  0.413500  1.0
  C  C113  1  0.275500  0.427100  0.876800  1.0
  C  C114  1  0.572900  0.724500  0.623200  1.0
  C  C115  1  0.724500  0.572900  0.123200  1.0
  C  C116  1  0.427100  0.275500  0.376800  1.0
  C  C117  1  0.398000  0.148600  0.913100  1.0
  C  C118  1  0.851400  0.602000  0.586900  1.0
  C  C119  1  0.602000  0.851400  0.086900  1.0
  C  C120  1  0.148600  0.398000  0.413100  1.0
  C  C121  1  0.314400  0.135200  0.937800  1.0
  C  C122  1  0.864800  0.685600  0.562200  1.0
  C  C123  1  0.685600  0.864800  0.062200  1.0
  C  C124  1  0.135200  0.314400  0.437800  1.0
  C  C125  1  0.317900  0.111300  0.975600  1.0
  C  C126  1  0.888700  0.682100  0.524400  1.0
  C  C127  1  0.682100  0.888700  0.024400  1.0
  C  C128  1  0.111300  0.317900  0.475600  1.0
  C  C129  1  0.404500  0.101300  0.986900  1.0
  C  C130  1  0.898700  0.595500  0.513100  1.0
  C  C131  1  0.595500  0.898700  0.013100  1.0
  C  C132  1  0.101300  0.404500  0.486900  1.0
  C  C133  1  0.485600  0.112600  0.960900  1.0
  C  C134  1  0.887400  0.514400  0.539100  1.0
  C  C135  1  0.514400  0.887400  0.039100  1.0
  C  C136  1  0.112600  0.485600  0.460900  1.0
  C  C137  1  0.400800  0.183800  0.873300  1.0
  C  C138  1  0.816200  0.599200  0.626700  1.0
  C  C139  1  0.599200  0.816200  0.126700  1.0
  C  C140  1  0.183800  0.400800  0.373300  1.0
  C  C141  1  0.330600  0.206600  0.851500  1.0
  C  C142  1  0.793400  0.669400  0.648500  1.0
  C  C143  1  0.669400  0.793400  0.148500  1.0
  C  C144  1  0.206600  0.330600  0.351500  1.0
  C  C145  1  0.376700  0.244700  0.817300  1.0
  C  C146  1  0.755300  0.623300  0.682700  1.0
  C  C147  1  0.623300  0.755300  0.182700  1.0
  C  C148  1  0.244700  0.376700  0.317300  1.0
  C  C149  1  0.545100  0.269900  0.788900  1.0
  C  C150  1  0.730100  0.454900  0.711100  1.0
  C  C151  1  0.454900  0.730100  0.211100  1.0
  C  C152  1  0.269900  0.545100  0.288900  1.0
  C  C153  1  0.008300  0.343900  0.658400  1.0
  C  C154  1  0.656100  0.991700  0.841600  1.0
  C  C155  1  0.991700  0.656100  0.341600  1.0
  C  C156  1  0.343900  0.008300  0.158400  1.0
  C  C157  1  0.096800  0.338600  0.669400  1.0
  C  C158  1  0.661400  0.903200  0.830600  1.0
  C  C159  1  0.903200  0.661400  0.330600  1.0
  C  C160  1  0.338600  0.096800  0.169400  1.0
  C  C161  1  0.162500  0.401700  0.650300  1.0
  C  C162  1  0.598300  0.837500  0.849700  1.0
  C  C163  1  0.837500  0.598300  0.349700  1.0
  C  C164  1  0.401700  0.162500  0.150300  1.0
  C  C165  1  0.139300  0.466500  0.622600  1.0
  C  C166  1  0.533500  0.860700  0.877400  1.0
  C  C167  1  0.860700  0.533500  0.377400  1.0
  C  C168  1  0.466500  0.139300  0.122600  1.0
  C  C169  1  0.049100  0.469300  0.613100  1.0
  C  C170  1  0.530700  0.950900  0.886900  1.0
  C  C171  1  0.950900  0.530700  0.386900  1.0
  C  C172  1  0.469300  0.049100  0.113100  1.0
  C  C173  1  0.937700  0.278100  0.674900  1.0
  C  C174  1  0.721900  0.062300  0.825100  1.0
  C  C175  1  0.062300  0.721900  0.325100  1.0
  C  C176  1  0.278100  0.937700  0.174900  1.0
  C  C177  1  0.940900  0.196100  0.700700  1.0
  C  C178  1  0.803900  0.059100  0.799300  1.0
  C  C179  1  0.059100  0.803900  0.299300  1.0
  C  C180  1  0.196100  0.940900  0.200700  1.0
  C  C181  1  0.856300  0.158500  0.703700  1.0
  C  C182  1  0.841500  0.143700  0.796300  1.0
  C  C183  1  0.143700  0.841500  0.296300  1.0
  C  C184  1  0.158500  0.856300  0.203700  1.0
  C  C185  1  0.711600  0.200400  0.672500  1.0
  C  C186  1  0.799600  0.288400  0.827500  1.0
  C  C187  1  0.288400  0.799600  0.327500  1.0
  C  C188  1  0.200400  0.711600  0.172500  1.0
  C  C189  1  0.571800  0.195400  0.764400  1.0
  C  C190  1  0.804600  0.428200  0.735600  1.0
  C  C191  1  0.428200  0.804600  0.235600  1.0
  C  C192  1  0.195400  0.571800  0.264400  1.0
  C  C193  1  0.539400  0.105800  0.774000  1.0
  C  C194  1  0.894200  0.460600  0.726000  1.0
  C  C195  1  0.460600  0.894200  0.226000  1.0
  C  C196  1  0.105800  0.539400  0.274000  1.0
  C  C197  1  0.564800  0.043200  0.748900  1.0
  C  C198  1  0.956800  0.435200  0.751100  1.0
  C  C199  1  0.435200  0.956800  0.251100  1.0
  C  C200  1  0.043200  0.564800  0.248900  1.0
  C  C201  1  0.620000  0.072000  0.716000  1.0
  C  C202  1  0.928000  0.380000  0.784000  1.0
  C  C203  1  0.380000  0.928000  0.284000  1.0
  C  C204  1  0.072000  0.620000  0.216000  1.0
  C  C205  1  0.650100  0.163500  0.708800  1.0
  C  C206  1  0.836500  0.349900  0.791200  1.0
  C  C207  1  0.349900  0.836500  0.291200  1.0
  C  C208  1  0.163500  0.650100  0.208800  1.0
  C  C209  1  0.234400  0.610200  0.935800  1.0
  C  C210  1  0.389800  0.765600  0.564200  1.0
  C  C211  1  0.765600  0.389800  0.064200  1.0
  C  C212  1  0.610200  0.234400  0.435800  1.0
  C  C213  1  0.274800  0.569400  0.967100  1.0
  C  C214  1  0.430600  0.725200  0.532900  1.0
  C  C215  1  0.725200  0.430600  0.032900  1.0
  C  C216  1  0.569400  0.274800  0.467100  1.0
  C  C217  1  0.215700  0.540300  0.999800  1.0
  C  C218  1  0.459700  0.784300  0.500200  1.0
  C  C219  1  0.784300  0.459700  0.000200  1.0
  C  C220  1  0.540300  0.215700  0.499800  1.0
  C  C221  1  0.121300  0.552300  0.001400  1.0
  C  C222  1  0.447700  0.878700  0.498600  1.0
  C  C223  1  0.878700  0.447700  0.998600  1.0
  C  C224  1  0.552300  0.121300  0.501400  1.0
  C  C225  1  0.084300  0.593500  0.969400  1.0
  C  C226  1  0.406500  0.915700  0.530600  1.0
  C  C227  1  0.915700  0.406500  0.030600  1.0
  C  C228  1  0.593500  0.084300  0.469400  1.0
  C  C229  1  0.289900  0.637900  0.900000  1.0
  C  C230  1  0.362100  0.710100  0.600000  1.0
  C  C231  1  0.710100  0.362100  0.100000  1.0
  C  C232  1  0.637900  0.289900  0.400000  1.0
  C  C233  1  0.386600  0.638600  0.887700  1.0
  C  C234  1  0.361400  0.613400  0.612300  1.0
  C  C235  1  0.613400  0.361400  0.112300  1.0
  C  C236  1  0.638600  0.386600  0.387700  1.0
  C  C237  1  0.397700  0.667100  0.850500  1.0
  C  C238  1  0.332900  0.602300  0.649500  1.0
  C  C239  1  0.602300  0.332900  0.149500  1.0
  C  C240  1  0.667100  0.397700  0.350500  1.0
  C  C241  1  0.289500  0.724500  0.804300  1.0
  C  C242  1  0.275500  0.710500  0.695700  1.0
  C  C243  1  0.710500  0.275500  0.195700  1.0
  C  C244  1  0.724500  0.289500  0.304300  1.0
  C  C245  1  0.112900  0.926500  0.628400  1.0
  C  C246  1  0.073500  0.887100  0.871600  1.0
  C  C247  1  0.887100  0.073500  0.371600  1.0
  C  C248  1  0.926500  0.112900  0.128400  1.0
  C  C249  1  0.018200  0.929800  0.624400  1.0
  C  C250  1  0.070200  0.981800  0.875600  1.0
  C  C251  1  0.981800  0.070200  0.375600  1.0
  C  C252  1  0.929800  0.018200  0.124400  1.0
  C  C253  1  0.993700  0.909500  0.593300  1.0
  C  C254  1  0.090500  0.006300  0.906700  1.0
  C  C255  1  0.006300  0.090500  0.406700  1.0
  C  C256  1  0.909500  0.993700  0.093300  1.0
  C  C257  1  0.062600  0.886600  0.566100  1.0
  C  C258  1  0.113400  0.937400  0.933900  1.0
  C  C259  1  0.937400  0.113400  0.433900  1.0
  C  C260  1  0.886600  0.062600  0.066100  1.0
  C  C261  1  0.155800  0.886000  0.571300  1.0
  C  C262  1  0.114000  0.844200  0.928700  1.0
  C  C263  1  0.844200  0.114000  0.428700  1.0
  C  C264  1  0.886000  0.155800  0.071300  1.0
  C  C265  1  0.145100  0.952100  0.659500  1.0
  C  C266  1  0.047900  0.854900  0.840500  1.0
  C  C267  1  0.854900  0.047900  0.340500  1.0
  C  C268  1  0.952100  0.145100  0.159500  1.0
  C  C269  1  0.093900  0.986300  0.691700  1.0
  C  C270  1  0.013700  0.906100  0.808300  1.0
  C  C271  1  0.906100  0.013700  0.308300  1.0
  C  C272  1  0.986300  0.093900  0.191700  1.0
  C  C273  1  0.159900  0.003100  0.711000  1.0
  C  C274  1  0.996900  0.840100  0.789000  1.0
  C  C275  1  0.840100  0.996900  0.289000  1.0
  C  C276  1  0.003100  0.159900  0.211000  1.0
  C  C277  1  0.335300  0.984700  0.704700  1.0
  C  C278  1  0.015300  0.664700  0.795300  1.0
  C  C279  1  0.664700  0.015300  0.295300  1.0
  C  C280  1  0.984700  0.335300  0.204700  1.0
  C  C281  1  0.303700  0.829100  0.794500  1.0
  C  C282  1  0.170900  0.696300  0.705500  1.0
  C  C283  1  0.696300  0.170900  0.205500  1.0
  C  C284  1  0.829100  0.303700  0.294500  1.0
  C  C285  1  0.305000  0.887600  0.820400  1.0
  C  C286  1  0.112400  0.695000  0.679600  1.0
  C  C287  1  0.695000  0.112400  0.179600  1.0
  C  C288  1  0.887600  0.305000  0.320400  1.0
  C  C289  1  0.317400  0.980800  0.808600  1.0
  C  C290  1  0.019200  0.682600  0.691400  1.0
  C  C291  1  0.682600  0.019200  0.191400  1.0
  C  C292  1  0.980800  0.317400  0.308600  1.0
  C  C293  1  0.327900  0.016100  0.770900  1.0
  C  C294  1  0.983900  0.672100  0.729100  1.0
  C  C295  1  0.672100  0.983900  0.229100  1.0
  C  C296  1  0.016100  0.327900  0.270900  1.0
  C  C297  1  0.326700  0.952700  0.746000  1.0
  C  C298  1  0.047300  0.673300  0.754000  1.0
  C  C299  1  0.673300  0.047300  0.254000  1.0
  C  C300  1  0.952700  0.326700  0.246000  1.0
  F  F301  1  0.775500  0.655900  0.815150  1
  F  F302  1  0.344100  0.224500  0.684850  1
  F  F303  1  0.224500  0.344100  0.184850  1
  F  F304  1  0.655900  0.775500  0.315150  1
  F  F305  1  0.742300  0.504700  0.834420  1
  F  F306  1  0.495300  0.257700  0.665580  1
  F  F307  1  0.257700  0.495300  0.165580  1
  F  F308  1  0.504700  0.742300  0.334420  1
  F  F309  1  0.625000  0.620400  0.834220  1
  F  F310  1  0.379600  0.375000  0.665780  1
  F  F311  1  0.375000  0.379600  0.165780  1
  F  F312  1  0.620400  0.625000  0.334220  1
  F  F313  1  0.703900  0.582100  0.780040  1
  F  F314  1  0.417900  0.296100  0.719960  1
  F  F315  1  0.296100  0.417900  0.219960  1
  F  F316  1  0.582100  0.703900  0.280040  1
  F  F317  1  0.082000  0.218200  0.938740  1
  F  F318  1  0.781800  0.918000  0.561260  1
  F  F319  1  0.918000  0.781800  0.061260  1
  F  F320  1  0.218200  0.082000  0.438740  1
  F  F321  1  0.964000  0.236000  0.985230  1
  F  F322  1  0.764000  0.036000  0.514770  1
  F  F323  1  0.036000  0.764000  0.014770  1
  F  F324  1  0.236000  0.964000  0.485230  1
  F  F325  1  0.114600  0.257400  0.990770  1
  F  F326  1  0.742600  0.885400  0.509230  1
  F  F327  1  0.885400  0.742600  0.009230  1
  F  F328  1  0.257400  0.114600  0.490770  1
  F  F329  1  0.071500  0.110500  0.989920  1
  F  F330  1  0.889500  0.928500  0.510080  1
  F  F331  1  0.928500  0.889500  0.010080  1
  F  F332  1  0.110500  0.071500  0.489920  1
  F  F333  1  0.755400  0.912000  0.736100  1
  F  F334  1  0.088000  0.244600  0.763900  1
  F  F335  1  0.244600  0.088000  0.263900  1
  F  F336  1  0.912000  0.755400  0.236100  1
  F  F337  1  0.814100  0.806900  0.698900  1
  F  F338  1  0.193100  0.185900  0.801100  1
  F  F339  1  0.185900  0.193100  0.301100  1
  F  F340  1  0.806900  0.814100  0.198900  1
  F  F341  1  0.793800  0.962400  0.675400  1
  F  F342  1  0.037600  0.206200  0.824600  1
  F  F343  1  0.206200  0.037600  0.324600  1
  F  F344  1  0.962400  0.793800  0.175400  1
  F  F345  1  0.907500  0.911900  0.711200  1
  F  F346  1  0.088100  0.092500  0.788800  1
  F  F347  1  0.092500  0.088100  0.288800  1
  F  F348  1  0.911900  0.907500  0.211200  1
  F  F349  1  0.456800  0.660800  0.995500  1
  F  F350  1  0.339200  0.543200  0.504500  1
  F  F351  1  0.543200  0.339200  0.004500  1
  F  F352  1  0.660800  0.456800  0.495500  1
  F  F353  1  0.534100  0.616300  0.942480  1
  F  F354  1  0.383700  0.465900  0.557520  1
  F  F355  1  0.465900  0.383700  0.057520  1
  F  F356  1  0.616300  0.534100  0.442480  1
  F  F357  1  0.575200  0.743800  0.961900  1
  F  F358  1  0.256200  0.424800  0.538100  1
  F  F359  1  0.424800  0.256200  0.038100  1
  F  F360  1  0.743800  0.575200  0.461900  1
  F  F361  1  0.606600  0.598600  0.992600  1
  F  F362  1  0.401400  0.393400  0.507400  1
  F  F363  1  0.393400  0.401400  0.007400  1
  F  F364  1  0.598600  0.606600  0.492600  1
  F  F365  1  0.758500  0.502700  0.815300  1
  F  F366  1  0.497300  0.241500  0.684700  1
  F  F367  1  0.241500  0.497300  0.184700  1
  F  F368  1  0.502700  0.758500  0.315300  1
  F  F369  1  0.645900  0.589900  0.848000  1
  F  F370  1  0.410100  0.354100  0.652000  1
  F  F371  1  0.354100  0.410100  0.152000  1
  F  F372  1  0.589900  0.645900  0.348000  1
  F  F373  1  0.666700  0.614700  0.785300  1
  F  F374  1  0.385300  0.333300  0.714700  1
  F  F375  1  0.333300  0.385300  0.214700  1
  F  F376  1  0.614700  0.666700  0.285300  1
  F  F377  1  0.962600  0.192800  0.985510  1
  F  F378  1  0.807200  0.037400  0.514490  1
  F  F379  1  0.037400  0.807200  0.014490  1
  F  F380  1  0.192800  0.962600  0.485510  1
  F  F381  1  0.078000  0.286000  0.988900  1
  F  F382  1  0.714000  0.922000  0.511100  1
  F  F383  1  0.922000  0.714000  0.011100  1
  F  F384  1  0.286000  0.078000  0.488900  1
  F  F385  1  0.110100  0.127900  0.991500  1
  F  F386  1  0.872100  0.889900  0.508500  1
  F  F387  1  0.889900  0.872100  0.008500  1
  F  F388  1  0.127900  0.110100  0.491500  1
  F  F389  1  0.805800  0.927000  0.738900  1
  F  F390  1  0.073000  0.194200  0.761100  1
  F  F391  1  0.194200  0.073000  0.261100  1
  F  F392  1  0.927000  0.805800  0.238900  1
  F  F393  1  0.904700  0.846900  0.700200  1
  F  F394  1  0.153100  0.095300  0.799800  1
  F  F395  1  0.095300  0.153100  0.299800  1
  F  F396  1  0.846900  0.904700  0.200200  1
  F  F397  1  0.818100  0.977700  0.678100  1
  F  F398  1  0.022300  0.181900  0.821900  1
  F  F399  1  0.181900  0.022300  0.321900  1
  F  F400  1  0.977700  0.818100  0.178100  1
  F  F401  1  0.746100  0.843500  0.704000  1
  F  F402  1  0.156500  0.253900  0.796000  1
  F  F403  1  0.253900  0.156500  0.296000  1
  F  F404  1  0.843500  0.746100  0.204000  1
  F  F405  1  0.423700  0.717700  0.972900  1
  F  F406  1  0.282300  0.576300  0.527100  1
  F  F407  1  0.576300  0.282300  0.027100  1
  F  F408  1  0.717700  0.423700  0.472900  1
  F  F409  1  0.369600  0.893000  0.982400  1
  F  F410  1  0.107000  0.630400  0.517600  1
  F  F411  1  0.630400  0.107000  0.017600  1
  F  F412  1  0.893000  0.369600  0.482400  1
  F  F413  1  0.409800  0.874800  0.972000  1
  F  F414  1  0.125200  0.590200  0.528000  1
  F  F415  1  0.590200  0.125200  0.028000  1
  F  F416  1  0.874800  0.409800  0.472000  1
  F  F417  1  0.477800  0.791400  0.956000  1
  F  F418  1  0.208600  0.522200  0.544000  1
  F  F419  1  0.522200  0.208600  0.044000  1
  F  F420  1  0.791400  0.477800  0.456000  1
  F  F421  1  0.281000  0.791400  0.988100  1
  F  F422  1  0.208600  0.719000  0.511900  1
  F  F423  1  0.719000  0.208600  0.011900  1
  F  F424  1  0.791400  0.281000  0.488100  1
  F  F425  1  0.359600  0.860000  0.926000  1
  F  F426  1  0.140000  0.640400  0.574000  1
  F  F427  1  0.640400  0.140000  0.074000  1
  F  F428  1  0.860000  0.359600  0.426000  1
  F  F429  1  0.354300  0.812700  0.928900  1
  F  F430  1  0.187300  0.645700  0.571100  1
  F  F431  1  0.645700  0.187300  0.071100  1
  F  F432  1  0.812700  0.354300  0.428900  1
  F  F433  1  0.329300  0.749900  0.976600  1
  F  F434  1  0.250100  0.670700  0.523400  1
  F  F435  1  0.670700  0.250100  0.023400  1
  F  F436  1  0.749900  0.329300  0.476600  1
  H  H437  1  0.840200  0.207400  0.955600  1.0
  H  H438  1  0.792600  0.159800  0.544400  1.0
  H  H439  1  0.159800  0.792600  0.044400  1.0
  H  H440  1  0.207400  0.840200  0.455600  1.0
  H  H441  1  0.910700  0.053900  0.966200  1.0
  H  H442  1  0.946100  0.089300  0.533800  1.0
  H  H443  1  0.089300  0.946100  0.033800  1.0
  H  H444  1  0.053900  0.910700  0.466200  1.0
  H  H445  1  0.851400  0.934000  0.944500  1.0
  H  H446  1  0.066000  0.148600  0.555500  1.0
  H  H447  1  0.148600  0.066000  0.055500  1.0
  H  H448  1  0.934000  0.851400  0.444500  1.0
  H  H449  1  0.721000  0.966400  0.913100  1.0
  H  H450  1  0.033600  0.279000  0.586900  1.0
  H  H451  1  0.279000  0.033600  0.086900  1.0
  H  H452  1  0.966400  0.721000  0.413100  1.0
  H  H453  1  0.740600  0.361000  0.949500  1.0
  H  H454  1  0.639000  0.259400  0.550500  1.0
  H  H455  1  0.259400  0.639000  0.050500  1.0
  H  H456  1  0.361000  0.740600  0.449500  1.0
  H  H457  1  0.628800  0.479200  0.919200  1.0
  H  H458  1  0.520800  0.371200  0.580800  1.0
  H  H459  1  0.371200  0.520800  0.080800  1.0
  H  H460  1  0.479200  0.628800  0.419200  1.0
  H  H461  1  0.542900  0.383300  0.848200  1.0
  H  H462  1  0.616700  0.457100  0.651800  1.0
  H  H463  1  0.457100  0.616700  0.151800  1.0
  H  H464  1  0.383300  0.542900  0.348200  1.0
  H  H465  1  0.540100  0.480700  0.863600  1.0
  H  H466  1  0.519300  0.459900  0.636400  1.0
  H  H467  1  0.459900  0.519300  0.136400  1.0
  H  H468  1  0.480700  0.540100  0.363600  1.0
  H  H469  1  0.789700  0.547900  0.891900  1.0
  H  H470  1  0.452100  0.210300  0.608100  1.0
  H  H471  1  0.210300  0.452100  0.108100  1.0
  H  H472  1  0.547900  0.789700  0.391900  1.0
  H  H473  1  0.690100  0.670100  0.916100  1.0
  H  H474  1  0.329900  0.309900  0.583900  1.0
  H  H475  1  0.309900  0.329900  0.083900  1.0
  H  H476  1  0.670100  0.690100  0.416100  1.0
  H  H477  1  0.756500  0.786700  0.937000  1.0
  H  H478  1  0.213300  0.243500  0.563000  1.0
  H  H479  1  0.243500  0.213300  0.063000  1.0
  H  H480  1  0.786700  0.756500  0.437000  1.0
  H  H481  1  0.920400  0.785400  0.932100  1.0
  H  H482  1  0.214600  0.079600  0.567900  1.0
  H  H483  1  0.079600  0.214600  0.067900  1.0
  H  H484  1  0.785400  0.920400  0.432100  1.0
  H  H485  1  0.906200  0.411600  0.879300  1.0
  H  H486  1  0.588400  0.093800  0.620700  1.0
  H  H487  1  0.093800  0.588400  0.120700  1.0
  H  H488  1  0.411600  0.906200  0.379300  1.0
  H  H489  1  0.065600  0.343400  0.855400  1.0
  H  H490  1  0.656600  0.934400  0.644600  1.0
  H  H491  1  0.934400  0.656600  0.144600  1.0
  H  H492  1  0.343400  0.065600  0.355400  1.0
  H  H493  1  0.233700  0.523700  0.834600  1.0
  H  H494  1  0.476300  0.766300  0.665400  1.0
  H  H495  1  0.766300  0.476300  0.165400  1.0
  H  H496  1  0.523700  0.233700  0.334600  1.0
  H  H497  1  0.226700  0.417300  0.829100  1.0
  H  H498  1  0.582700  0.773300  0.670900  1.0
  H  H499  1  0.773300  0.582700  0.170900  1.0
  H  H500  1  0.417300  0.226700  0.329100  1.0
  H  H501  1  0.443500  0.349700  0.941700  1.0
  H  H502  1  0.650300  0.556500  0.558300  1.0
  H  H503  1  0.556500  0.650300  0.058300  1.0
  H  H504  1  0.349700  0.443500  0.441700  1.0
  H  H505  1  0.281400  0.342400  0.963200  1.0
  H  H506  1  0.657600  0.718600  0.536800  1.0
  H  H507  1  0.718600  0.657600  0.036800  1.0
  H  H508  1  0.342400  0.281400  0.463200  1.0
  H  H509  1  0.174300  0.387900  0.921400  1.0
  H  H510  1  0.612100  0.825700  0.578600  1.0
  H  H511  1  0.825700  0.612100  0.078600  1.0
  H  H512  1  0.387900  0.174300  0.421400  1.0
  H  H513  1  0.255600  0.142200  0.929000  1.0
  H  H514  1  0.857800  0.744400  0.571000  1.0
  H  H515  1  0.744400  0.857800  0.071000  1.0
  H  H516  1  0.142200  0.255600  0.429000  1.0
  H  H517  1  0.262000  0.102200  0.993100  1.0
  H  H518  1  0.897800  0.738000  0.506900  1.0
  H  H519  1  0.738000  0.897800  0.006900  1.0
  H  H520  1  0.102200  0.262000  0.493100  1.0
  H  H521  1  0.408700  0.086700  0.012600  1.0
  H  H522  1  0.913300  0.591300  0.487400  1.0
  H  H523  1  0.591300  0.913300  0.987400  1.0
  H  H524  1  0.086700  0.408700  0.512600  1.0
  H  H525  1  0.545000  0.103200  0.969200  1.0
  H  H526  1  0.896800  0.455000  0.530800  1.0
  H  H527  1  0.455000  0.896800  0.030800  1.0
  H  H528  1  0.103200  0.545000  0.469200  1.0
  H  H529  1  0.265200  0.197800  0.858600  1.0
  H  H530  1  0.802200  0.734800  0.641400  1.0
  H  H531  1  0.734800  0.802200  0.141400  1.0
  H  H532  1  0.197800  0.265200  0.358600  1.0
  H  H533  1  0.348400  0.268000  0.795900  1.0
  H  H534  1  0.732000  0.651600  0.704100  1.0
  H  H535  1  0.651600  0.732000  0.204100  1.0
  H  H536  1  0.268000  0.348400  0.295900  1.0
  H  H537  1  0.601200  0.281600  0.799000  1.0
  H  H538  1  0.718400  0.398800  0.701000  1.0
  H  H539  1  0.398800  0.718400  0.201000  1.0
  H  H540  1  0.281600  0.601200  0.299000  1.0
  H  H541  1  0.524700  0.329300  0.773800  1.0
  H  H542  1  0.670700  0.475300  0.726200  1.0
  H  H543  1  0.475300  0.670700  0.226200  1.0
  H  H544  1  0.329300  0.524700  0.273800  1.0
  H  H545  1  0.112000  0.292800  0.689600  1.0
  H  H546  1  0.707200  0.888000  0.810400  1.0
  H  H547  1  0.888000  0.707200  0.310400  1.0
  H  H548  1  0.292800  0.112000  0.189600  1.0
  H  H549  1  0.223500  0.398500  0.657000  1.0
  H  H550  1  0.601500  0.776500  0.843000  1.0
  H  H551  1  0.776500  0.601500  0.343000  1.0
  H  H552  1  0.398500  0.223500  0.157000  1.0
  H  H553  1  0.183300  0.510100  0.609400  1.0
  H  H554  1  0.489900  0.816700  0.890600  1.0
  H  H555  1  0.816700  0.489900  0.390600  1.0
  H  H556  1  0.510100  0.183300  0.109400  1.0
  H  H557  1  0.033300  0.515700  0.593200  1.0
  H  H558  1  0.484300  0.966700  0.906800  1.0
  H  H559  1  0.966700  0.484300  0.406800  1.0
  H  H560  1  0.515700  0.033300  0.093200  1.0
  H  H561  1  0.991500  0.171500  0.713700  1.0
  H  H562  1  0.828500  0.008500  0.786300  1.0
  H  H563  1  0.008500  0.828500  0.286300  1.0
  H  H564  1  0.171500  0.991500  0.213700  1.0
  H  H565  1  0.836900  0.102100  0.719300  1.0
  H  H566  1  0.897900  0.163100  0.780700  1.0
  H  H567  1  0.163100  0.897900  0.280700  1.0
  H  H568  1  0.102100  0.836900  0.219300  1.0
  H  H569  1  0.718000  0.154200  0.655200  1.0
  H  H570  1  0.845800  0.282000  0.844800  1.0
  H  H571  1  0.282000  0.845800  0.344800  1.0
  H  H572  1  0.154200  0.718000  0.155200  1.0
  H  H573  1  0.682300  0.260300  0.660800  1.0
  H  H574  1  0.739700  0.317700  0.839200  1.0
  H  H575  1  0.317700  0.739700  0.339200  1.0
  H  H576  1  0.260300  0.682300  0.160800  1.0
  H  H577  1  0.500800  0.087800  0.797200  1.0
  H  H578  1  0.912200  0.499200  0.702800  1.0
  H  H579  1  0.499200  0.912200  0.202800  1.0
  H  H580  1  0.087800  0.500800  0.297200  1.0
  H  H581  1  0.544100  0.981100  0.754600  1.0
  H  H582  1  0.018900  0.455900  0.745400  1.0
  H  H583  1  0.455900  0.018900  0.245400  1.0
  H  H584  1  0.981100  0.544100  0.254600  1.0
  H  H585  1  0.637700  0.030700  0.698200  1.0
  H  H586  1  0.969300  0.362300  0.801800  1.0
  H  H587  1  0.362300  0.969300  0.301800  1.0
  H  H588  1  0.030700  0.637700  0.198200  1.0
  H  H589  1  0.341300  0.561900  0.965800  1.0
  H  H590  1  0.438100  0.658700  0.534200  1.0
  H  H591  1  0.658700  0.438100  0.034200  1.0
  H  H592  1  0.561900  0.341300  0.465800  1.0
  H  H593  1  0.241800  0.511800  0.021300  1.0
  H  H594  1  0.488200  0.758200  0.478700  1.0
  H  H595  1  0.758200  0.488200  0.978700  1.0
  H  H596  1  0.511800  0.241800  0.521300  1.0
  H  H597  1  0.080500  0.533100  0.023900  1.0
  H  H598  1  0.466900  0.919500  0.476100  1.0
  H  H599  1  0.919500  0.466900  0.976100  1.0
  H  H600  1  0.533100  0.080500  0.523900  1.0
  H  H601  1  0.017900  0.603100  0.970500  1.0
  H  H602  1  0.396900  0.982100  0.529500  1.0
  H  H603  1  0.982100  0.396900  0.029500  1.0
  H  H604  1  0.603100  0.017900  0.470500  1.0
  H  H605  1  0.435200  0.622200  0.902500  1.0
  H  H606  1  0.377800  0.564800  0.597500  1.0
  H  H607  1  0.564800  0.377800  0.097500  1.0
  H  H608  1  0.622200  0.435200  0.402500  1.0
  H  H609  1  0.455900  0.673300  0.834200  1.0
  H  H610  1  0.326700  0.544100  0.665800  1.0
  H  H611  1  0.544100  0.326700  0.165800  1.0
  H  H612  1  0.673300  0.455900  0.334200  1.0
  H  H613  1  0.223400  0.714000  0.803100  1.0
  H  H614  1  0.286000  0.776600  0.696900  1.0
  H  H615  1  0.776600  0.286000  0.196900  1.0
  H  H616  1  0.714000  0.223400  0.303100  1.0
  H  H617  1  0.330800  0.690800  0.785700  1.0
  H  H618  1  0.309200  0.669200  0.714300  1.0
  H  H619  1  0.669200  0.309200  0.214300  1.0
  H  H620  1  0.690800  0.330800  0.285700  1.0
  H  H621  1  0.970700  0.946300  0.643800  1.0
  H  H622  1  0.053700  0.029300  0.856200  1.0
  H  H623  1  0.029300  0.053700  0.356200  1.0
  H  H624  1  0.946300  0.970700  0.143800  1.0
  H  H625  1  0.929300  0.911300  0.590500  1.0
  H  H626  1  0.088700  0.070700  0.909500  1.0
  H  H627  1  0.070700  0.088700  0.409500  1.0
  H  H628  1  0.911300  0.929300  0.090500  1.0
  H  H629  1  0.047700  0.871300  0.543900  1.0
  H  H630  1  0.128700  0.952300  0.956100  1.0
  H  H631  1  0.952300  0.128700  0.456100  1.0
  H  H632  1  0.871300  0.047700  0.043900  1.0
  H  H633  1  0.203700  0.873100  0.551500  1.0
  H  H634  1  0.126900  0.796300  0.948500  1.0
  H  H635  1  0.796300  0.126900  0.448500  1.0
  H  H636  1  0.873100  0.203700  0.051500  1.0
  H  H637  1  0.027400  0.995200  0.698200  1.0
  H  H638  1  0.004800  0.972600  0.801800  1.0
  H  H639  1  0.972600  0.004800  0.301800  1.0
  H  H640  1  0.995200  0.027400  0.198200  1.0
  H  H641  1  0.148400  0.028000  0.733600  1.0
  H  H642  1  0.972000  0.851600  0.766400  1.0
  H  H643  1  0.851600  0.972000  0.266400  1.0
  H  H644  1  0.028000  0.148400  0.233600  1.0
  H  H645  1  0.353800  0.050400  0.698500  1.0
  H  H646  1  0.949600  0.646200  0.801500  1.0
  H  H647  1  0.646200  0.949600  0.301500  1.0
  H  H648  1  0.050400  0.353800  0.198500  1.0
  H  H649  1  0.384500  0.944300  0.691600  1.0
  H  H650  1  0.055700  0.615500  0.808400  1.0
  H  H651  1  0.615500  0.055700  0.308400  1.0
  H  H652  1  0.944300  0.384500  0.191600  1.0
  H  H653  1  0.297500  0.862900  0.846000  1.0
  H  H654  1  0.137100  0.702500  0.654000  1.0
  H  H655  1  0.702500  0.137100  0.154000  1.0
  H  H656  1  0.862900  0.297500  0.346000  1.0
  H  H657  1  0.318800  0.021600  0.826000  1.0
  H  H658  1  0.978400  0.681200  0.674000  1.0
  H  H659  1  0.681200  0.978400  0.174000  1.0
  H  H660  1  0.021600  0.318800  0.326000  1.0
  H  H661  1  0.335900  0.081100  0.762200  1.0
  H  H662  1  0.918900  0.664100  0.737800  1.0
  H  H663  1  0.664100  0.918900  0.237800  1.0
  H  H664  1  0.081100  0.335900  0.262200  1.0
  N  N665  1  0.702800  0.104600  0.916500  1.0
  N  N666  1  0.895400  0.297200  0.583500  1.0
  N  N667  1  0.297200  0.895400  0.083500  1.0
  N  N668  1  0.104600  0.702800  0.416500  1.0
  N  N669  1  0.596700  0.370500  0.895180  1.0
  N  N670  1  0.629500  0.403300  0.604820  1.0
  N  N671  1  0.403300  0.629500  0.104820  1.0
  N  N672  1  0.370500  0.596700  0.395180  1.0
  N  N673  1  0.627900  0.278700  0.897790  1.0
  N  N674  1  0.721300  0.372100  0.602210  1.0
  N  N675  1  0.372100  0.721300  0.102210  1.0
  N  N676  1  0.278700  0.627900  0.397790  1.0
  N  N677  1  0.951500  0.671900  0.907300  1.0
  N  N678  1  0.328100  0.048500  0.592700  1.0
  N  N679  1  0.048500  0.328100  0.092700  1.0
  N  N680  1  0.671900  0.951500  0.407300  1.0
  N  N681  1  0.113000  0.468600  0.861090  1.0
  N  N682  1  0.531400  0.887000  0.638910  1.0
  N  N683  1  0.887000  0.531400  0.138910  1.0
  N  N684  1  0.468600  0.113000  0.361090  1.0
  N  N685  1  0.069600  0.546800  0.874420  1.0
  N  N686  1  0.453200  0.930400  0.625580  1.0
  N  N687  1  0.930400  0.453200  0.125580  1.0
  N  N688  1  0.546800  0.069600  0.374420  1.0
  N  N689  1  0.368100  0.431100  0.863910  1.0
  N  N690  1  0.568900  0.631900  0.636090  1.0
  N  N691  1  0.631900  0.568900  0.136090  1.0
  N  N692  1  0.431100  0.368100  0.363910  1.0
  N  N693  1  0.483300  0.135900  0.925080  1.0
  N  N694  1  0.864100  0.516700  0.574920  1.0
  N  N695  1  0.516700  0.864100  0.074920  1.0
  N  N696  1  0.135900  0.483300  0.425080  1.0
  N  N697  1  0.469100  0.243300  0.819700  1.0
  N  N698  1  0.756700  0.530900  0.680300  1.0
  N  N699  1  0.530900  0.756700  0.180300  1.0
  N  N700  1  0.243300  0.469100  0.319700  1.0
  N  N701  1  0.487200  0.205000  0.853830  1.0
  N  N702  1  0.795000  0.512800  0.646170  1.0
  N  N703  1  0.512800  0.795000  0.146170  1.0
  N  N704  1  0.205000  0.487200  0.353830  1.0
  N  N705  1  0.984000  0.409600  0.630700  1.0
  N  N706  1  0.590400  0.016000  0.869300  1.0
  N  N707  1  0.016000  0.590400  0.369300  1.0
  N  N708  1  0.409600  0.984000  0.130700  1.0
  N  N709  1  0.805000  0.215800  0.680400  1.0
  N  N710  1  0.784200  0.195000  0.819600  1.0
  N  N711  1  0.195000  0.784200  0.319600  1.0
  N  N712  1  0.215800  0.805000  0.180400  1.0
  N  N713  1  0.853900  0.289500  0.662560  1.0
  N  N714  1  0.710500  0.146100  0.837440  1.0
  N  N715  1  0.146100  0.710500  0.337440  1.0
  N  N716  1  0.289500  0.853900  0.162560  1.0
  N  N717  1  0.626900  0.224500  0.732350  1.0
  N  N718  1  0.775500  0.373100  0.767650  1.0
  N  N719  1  0.373100  0.775500  0.267650  1.0
  N  N720  1  0.224500  0.626900  0.232350  1.0
  N  N721  1  0.140400  0.620000  0.936880  1.0
  N  N722  1  0.380000  0.859600  0.563120  1.0
  N  N723  1  0.859600  0.380000  0.063120  1.0
  N  N724  1  0.620000  0.140400  0.436880  1.0
  N  N725  1  0.310800  0.685400  0.841080  1.0
  N  N726  1  0.314600  0.689200  0.658920  1.0
  N  N727  1  0.689200  0.314600  0.158920  1.0
  N  N728  1  0.685400  0.310800  0.341080  1.0
  N  N729  1  0.243500  0.668900  0.870970  1.0
  N  N730  1  0.331100  0.756500  0.629030  1.0
  N  N731  1  0.756500  0.331100  0.129030  1.0
  N  N732  1  0.668900  0.243500  0.370970  1.0
  N  N733  1  0.182200  0.902000  0.601700  1.0
  N  N734  1  0.098000  0.817800  0.898300  1.0
  N  N735  1  0.817800  0.098000  0.398300  1.0
  N  N736  1  0.902000  0.182200  0.101700  1.0
  N  N737  1  0.244000  0.978400  0.692900  1.0
  N  N738  1  0.021600  0.756000  0.807100  1.0
  N  N739  1  0.756000  0.021600  0.307100  1.0
  N  N740  1  0.978400  0.244000  0.192900  1.0
  N  N741  1  0.236500  0.944900  0.662100  1.0
  N  N742  1  0.055100  0.763500  0.837900  1.0
  N  N743  1  0.763500  0.055100  0.337900  1.0
  N  N744  1  0.944900  0.236500  0.162100  1.0
  N  N745  1  0.313700  0.861300  0.757670  1.0
  N  N746  1  0.138700  0.686300  0.742330  1.0
  N  N747  1  0.686300  0.138700  0.242330  1.0
  N  N748  1  0.861300  0.313700  0.257670  1.0
  Ni  Ni749  1  0.599290  0.151730  0.882230  1.0
  Ni  Ni750  1  0.848270  0.400710  0.617770  1.0
  Ni  Ni751  1  0.400710  0.848270  0.117770  1.0
  Ni  Ni752  1  0.151730  0.599290  0.382230  1.0
  Ni  Ni753  1  0.095990  0.679670  0.886760  1.0
  Ni  Ni754  1  0.320330  0.904010  0.613240  1.0
  Ni  Ni755  1  0.904010  0.320330  0.113240  1.0
  Ni  Ni756  1  0.679670  0.095990  0.386760  1.0
  O  O757  1  0.410000  0.590000  0.750000  1
  O  O758  1  0.590000  0.410000  0.250000  1
  O  O759  1  0.478000  0.522000  0.750000  1
  O  O760  1  0.522000  0.478000  0.250000  1
