# generated using pymatgen
data_H20PdC26S2N8(OF)6
_symmetry_space_group_name_H-M   'P 1'
_cell_length_a   16.40800000
_cell_length_b   18.79920000
_cell_length_c   18.87100000
_cell_angle_alpha   106.90700000
_cell_angle_beta   107.48600000
_cell_angle_gamma   103.42900000
_symmetry_Int_Tables_number   1
_chemical_formula_structural   H20PdC26S2N8(OF)6
_chemical_formula_sum   'H120 Pd6 C156 S12 N48 O36 F36'
_cell_volume   4975.47826898
_cell_formula_units_Z   6
loop_
 _symmetry_equiv_pos_site_id
 _symmetry_equiv_pos_as_xyz
  1  'x, y, z'
loop_
 _atom_site_type_symbol
 _atom_site_label
 _atom_site_symmetry_multiplicity
 _atom_site_fract_x
 _atom_site_fract_y
 _atom_site_fract_z
 _atom_site_occupancy
  H  H1  1  0.037585  0.271050  0.471354  1
  H  H2  1  0.962415  0.728950  0.528646  1
  H  H3  1  0.950680  0.281402  0.546691  1
  H  H4  1  0.049320  0.718598  0.453309  1
  H  H5  1  0.863836  0.357260  0.541252  1
  H  H6  1  0.136164  0.642740  0.458748  1
  H  H7  1  0.809054  0.452448  0.479581  1
  H  H8  1  0.190946  0.547552  0.520419  1
  H  H9  1  0.813236  0.516569  0.397399  1
  H  H10  1  0.186764  0.483431  0.602601  1
  H  H11  1  0.878175  0.551632  0.296671  1
  H  H12  1  0.121825  0.448368  0.703329  1
  H  H13  1  0.974231  0.536043  0.231950  1
  H  H14  1  0.025769  0.463957  0.768050  1
  H  H15  1  0.063651  0.463779  0.258014  1
  H  H16  1  0.936349  0.536221  0.741986  1
  H  H17  1  0.152830  0.216197  0.262461  1
  H  H18  1  0.847170  0.783803  0.737539  1
  H  H19  1  0.195466  0.119206  0.327485  1
  H  H20  1  0.804534  0.880794  0.672515  1
  H  H21  1  0.242411  0.197537  0.535929  1
  H  H22  1  0.757589  0.802463  0.464071  1
  H  H23  1  0.210418  0.113031  0.467378  1
  H  H24  1  0.789582  0.886969  0.532622  1
  H  H25  1  0.143636  0.217719  0.603644  1
  H  H26  1  0.856364  0.782281  0.396356  1
  H  H27  1  0.008999  0.183418  0.624719  1
  H  H28  1  0.991001  0.816582  0.375281  1
  H  H29  1  0.896007  0.008314  0.406431  1
  H  H30  1  0.103993  0.991686  0.593569  1
  H  H31  1  0.032949  0.040109  0.394163  1
  H  H32  1  0.967051  0.959891  0.605837  1
  H  H33  1  0.827727  0.015174  0.520098  1
  H  H34  1  0.172273  0.984826  0.479902  1
  H  H35  1  0.858995  0.101222  0.584685  1
  H  H36  1  0.141005  0.898778  0.415315  1
  H  H37  1  0.276507  0.449722  0.355986  1
  H  H38  1  0.723493  0.550278  0.644014  1
  H  H39  1  0.295191  0.446200  0.231941  1
  H  H40  1  0.704809  0.553800  0.768059  1
  H  H41  1  0.132105  0.283281  0.068444  1
  H  H42  1  0.867895  0.716719  0.931556  1
  H  H43  1  0.188308  0.369101  0.081419  1
  H  H44  1  0.811692  0.630899  0.918581  1
  H  H45  1  0.088014  0.464623  0.127371  1
  H  H46  1  0.911986  0.535377  0.872629  1
  H  H47  1  0.954165  0.482279  0.062178  1
  H  H48  1  0.045835  0.517721  0.937822  1
  H  H49  1  0.622084  0.327355  0.285787  1
  H  H50  1  0.377916  0.672645  0.714213  1
  H  H51  1  0.634563  0.398543  0.205490  1
  H  H52  1  0.365437  0.601457  0.794510  1
  H  H53  1  0.725104  0.384145  0.134596  1
  H  H54  1  0.274896  0.615855  0.865404  1
  H  H55  1  0.843156  0.318437  0.102886  1
  H  H56  1  0.156844  0.681563  0.897114  1
  H  H57  1  0.922575  0.240131  0.122628  1
  H  H58  1  0.077425  0.759869  0.877372  1
  H  H59  1  0.955468  0.144421  0.184257  1
  H  H60  1  0.044532  0.855579  0.815743  1
  H  H61  1  0.930998  0.079221  0.262123  1
  H  H62  1  0.069002  0.920779  0.737877  1
  H  H63  1  0.833883  0.101256  0.329881  1
  H  H64  1  0.166117  0.898744  0.670119  1
  H  H65  1  0.584968  0.075731  0.376083  1
  H  H66  1  0.415032  0.924269  0.623917  1
  H  H67  1  0.657244  0.014797  0.468129  1
  H  H68  1  0.342756  0.985203  0.531871  1
  H  H69  1  0.675914  0.286999  0.495719  1
  H  H70  1  0.324086  0.713001  0.504281  1
  H  H71  1  0.527889  0.299453  0.489958  1
  H  H72  1  0.472111  0.700547  0.510042  1
  H  H73  1  0.380884  0.282497  0.366885  1
  H  H74  1  0.619116  0.717503  0.633115  1
  H  H75  1  0.354606  0.191222  0.319171  1
  H  H76  1  0.645394  0.808778  0.680829  1
  H  H77  1  0.464009  0.365931  0.297243  1
  H  H78  1  0.535991  0.634069  0.702757  1
  H  H79  1  0.436675  0.383480  0.177702  1
  H  H80  1  0.563325  0.616520  0.822298  1
  H  H81  1  0.247358  0.166439  0.062286  1
  H  H82  1  0.752642  0.833561  0.937714  1
  H  H83  1  0.277800  0.149203  0.181877  1
  H  H84  1  0.722200  0.850797  0.818123  1
  H  H85  1  0.272289  0.239651  0.984594  1
  H  H86  1  0.727711  0.760349  0.015406  1
  H  H87  1  0.306198  0.332346  0.029589  1
  H  H88  1  0.693802  0.667654  0.970411  1
  H  H89  1  0.473814  0.170111  0.091486  1
  H  H90  1  0.526186  0.829889  0.908514  1
  H  H91  1  0.454092  0.095511  0.164701  1
  H  H92  1  0.545908  0.904489  0.835299  1
  H  H93  1  0.538268  0.013097  0.181922  1
  H  H94  1  0.461732  0.986903  0.818078  1
  H  H95  1  0.654183  0.956663  0.145696  1
  H  H96  1  0.345817  0.043337  0.854304  1
  H  H97  1  0.746538  0.950595  0.081837  1
  H  H98  1  0.253462  0.049405  0.918163  1
  H  H99  1  0.816957  0.000332  0.988285  1
  H  H100  1  0.183043  0.999668  0.011715  1
  H  H101  1  0.815004  0.071570  0.910938  1
  H  H102  1  0.184996  0.928430  0.089062  1
  H  H103  1  0.724354  0.147968  0.904908  1
  H  H104  1  0.275646  0.852032  0.095092  1
  H  H105  1  0.541829  0.199216  0.801472  1
  H  H106  1  0.458171  0.800784  0.198528  1
  H  H107  1  0.656164  0.296802  0.783984  1
  H  H108  1  0.343836  0.703198  0.216016  1
  H  H109  1  0.579075  0.361753  0.990890  1
  H  H110  1  0.420925  0.638247  0.009110  1
  H  H111  1  0.451927  0.400321  0.006069  1
  H  H112  1  0.548073  0.599679  0.993931  1
  H  H113  1  0.810316  0.441865  0.963336  1
  H  H114  1  0.189684  0.558135  0.036664  1
  H  H115  1  0.816163  0.402072  0.880254  1
  H  H116  1  0.183837  0.597928  0.119746  1
  H  H117  1  0.864445  0.263730  0.895014  1
  H  H118  1  0.135555  0.736270  0.104986  1
  H  H119  1  0.991033  0.242938  0.960707  1
  H  H120  1  0.008967  0.757062  0.039293  1
  Pd  Pd121  1  0.080200  0.350330  0.352330  1
  Pd  Pd122  1  0.919800  0.649670  0.647670  1
  Pd  Pd123  1  0.707960  0.206150  0.333430  1
  Pd  Pd124  1  0.292040  0.793850  0.666570  1
  Pd  Pd125  1  0.589150  0.187500  0.983730  1
  Pd  Pd126  1  0.410850  0.812500  0.016270  1
  C  C127  1  0.003200  0.303900  0.468200  1
  C  C128  1  0.996800  0.696100  0.531800  1
  C  C129  1  0.950000  0.309600  0.513500  1
  C  C130  1  0.050000  0.690400  0.486500  1
  C  C131  1  0.898700  0.354100  0.510400  1
  C  C132  1  0.101300  0.645900  0.489600  1
  C  C133  1  0.897100  0.397700  0.458900  1
  C  C134  1  0.102900  0.602300  0.541100  1
  C  C135  1  0.845900  0.446700  0.450800  1
  C  C136  1  0.154100  0.553300  0.549200  1
  C  C137  1  0.849200  0.485200  0.402600  1
  C  C138  1  0.150800  0.514800  0.597400  1
  C  C139  1  0.906500  0.480300  0.357700  1
  C  C140  1  0.093500  0.519700  0.642300  1
  C  C141  1  0.913100  0.520000  0.305200  1
  C  C142  1  0.086900  0.480000  0.694800  1
  C  C143  1  0.970400  0.511500  0.267700  1
  C  C144  1  0.029600  0.488500  0.732300  1
  C  C145  1  0.022500  0.466800  0.282600  1
  C  C146  1  0.977500  0.533200  0.717400  1
  C  C147  1  0.957900  0.433400  0.366900  1
  C  C148  1  0.042100  0.566600  0.633100  1
  C  C149  1  0.954300  0.389100  0.416900  1
  C  C150  1  0.045700  0.610900  0.583100  1
  C  C151  1  0.154900  0.215900  0.312200  1
  C  C152  1  0.845100  0.784100  0.687800  1
  C  C153  1  0.180700  0.163300  0.348700  1
  C  C154  1  0.819300  0.836700  0.651300  1
  C  C155  1  0.193700  0.159200  0.485500  1
  C  C156  1  0.806300  0.840800  0.514500  1
  C  C157  1  0.099800  0.134400  0.497300  1
  C  C158  1  0.900200  0.865600  0.502700  1
  C  C159  1  0.093200  0.174800  0.563800  1
  C  C160  1  0.906800  0.825200  0.436200  1
  C  C161  1  0.011900  0.155000  0.576700  1
  C  C162  1  0.988100  0.845000  0.423300  1
  C  C163  1  0.937700  0.093200  0.516800  1
  C  C164  1  0.062300  0.906800  0.483200  1
  C  C165  1  0.946000  0.050700  0.447700  1
  C  C166  1  0.054000  0.949300  0.552300  1
  C  C167  1  0.027300  0.070700  0.439800  1
  C  C168  1  0.972700  0.929300  0.560200  1
  C  C169  1  0.847800  0.071000  0.529300  1
  C  C170  1  0.152200  0.929000  0.470700  1
  C  C171  1  0.233600  0.418500  0.303800  1
  C  C172  1  0.766400  0.581500  0.696200  1
  C  C173  1  0.244600  0.417100  0.237000  1
  C  C174  1  0.755400  0.582900  0.763000  1
  C  C175  1  0.139500  0.338900  0.091400  1
  C  C176  1  0.860500  0.661100  0.908600  1
  C  C177  1  0.052200  0.350300  0.049700  1
  C  C178  1  0.947800  0.649700  0.950300  1
  C  C179  1  0.042300  0.423900  0.080900  1
  C  C180  1  0.957700  0.576100  0.919100  1
  C  C181  1  0.962300  0.434500  0.040600  1
  C  C182  1  0.037700  0.565500  0.959400  1
  C  C183  1  0.660300  0.321600  0.258400  1
  C  C184  1  0.339700  0.678400  0.741600  1
  C  C185  1  0.667200  0.364500  0.209400  1
  C  C186  1  0.332800  0.635500  0.790600  1
  C  C187  1  0.721300  0.356600  0.167900  1
  C  C188  1  0.278700  0.643400  0.832100  1
  C  C189  1  0.771100  0.306600  0.175700  1
  C  C190  1  0.228900  0.693400  0.824300  1
  C  C191  1  0.835400  0.292500  0.136800  1
  C  C192  1  0.164600  0.707500  0.863200  1
  C  C193  1  0.882000  0.245500  0.147500  1
  C  C194  1  0.118000  0.754500  0.852500  1
  C  C195  1  0.870400  0.202800  0.197100  1
  C  C196  1  0.129600  0.797200  0.802900  1
  C  C197  1  0.915300  0.152400  0.209000  1
  C  C198  1  0.084700  0.847600  0.791000  1
  C  C199  1  0.901500  0.115000  0.255500  1
  C  C200  1  0.098500  0.885000  0.744500  1
  C  C201  1  0.842000  0.128000  0.296700  1
  C  C202  1  0.158000  0.872000  0.703300  1
  C  C203  1  0.812400  0.215000  0.237400  1
  C  C204  1  0.187600  0.785000  0.762600  1
  C  C205  1  0.763200  0.265300  0.226200  1
  C  C206  1  0.236800  0.734700  0.773800  1
  C  C207  1  0.647000  0.086800  0.402500  1
  C  C208  1  0.353000  0.913200  0.597500  1
  C  C209  1  0.686600  0.052900  0.453100  1
  C  C210  1  0.313400  0.947100  0.546900  1
  C  C211  1  0.624100  0.271500  0.449200  1
  C  C212  1  0.375900  0.728500  0.550800  1
  C  C213  1  0.543400  0.279100  0.446800  1
  C  C214  1  0.456600  0.720900  0.553200  1
  C  C215  1  0.394400  0.243600  0.330000  1
  C  C216  1  0.605600  0.756400  0.670000  1
  C  C217  1  0.376500  0.256500  0.252200  1
  C  C218  1  0.623500  0.743500  0.747800  1
  C  C219  1  0.420900  0.324900  0.249600  1
  C  C220  1  0.579100  0.675100  0.750400  1
  C  C221  1  0.404100  0.335900  0.177900  1
  C  C222  1  0.595900  0.664100  0.822100  1
  C  C223  1  0.339300  0.276500  0.106700  1
  C  C224  1  0.660700  0.723500  0.893300  1
  C  C225  1  0.292100  0.206900  0.109500  1
  C  C226  1  0.707900  0.793100  0.890500  1
  C  C227  1  0.310100  0.196500  0.181100  1
  C  C228  1  0.689900  0.803500  0.818900  1
  C  C229  1  0.322400  0.285600  0.027500  1
  C  C230  1  0.677600  0.714400  0.972500  1
  C  C231  1  0.505600  0.135300  0.094500  1
  C  C232  1  0.494400  0.864700  0.905500  1
  C  C233  1  0.495000  0.091700  0.139900  1
  C  C234  1  0.505000  0.908300  0.860100  1
  C  C235  1  0.544200  0.041600  0.149800  1
  C  C236  1  0.455800  0.958400  0.850200  1
  C  C237  1  0.602500  0.035900  0.109900  1
  C  C238  1  0.397500  0.964100  0.890100  1
  C  C239  1  0.657600  0.986800  0.114700  1
  C  C240  1  0.342400  0.013200  0.885300  1
  C  C241  1  0.712200  0.983200  0.076900  1
  C  C242  1  0.287800  0.016800  0.923100  1
  C  C243  1  0.720900  0.028100  0.027600  1
  C  C244  1  0.279100  0.971900  0.972400  1
  C  C245  1  0.778500  0.029600  0.984900  1
  C  C246  1  0.221500  0.970400  0.015100  1
  C  C247  1  0.778200  0.072300  0.940000  1
  C  C248  1  0.221800  0.927700  0.060000  1
  C  C249  1  0.723100  0.118100  0.936400  1
  C  C250  1  0.276900  0.881900  0.063600  1
  C  C251  1  0.666900  0.076300  0.019500  1
  C  C252  1  0.333100  0.923700  0.980500  1
  C  C253  1  0.609400  0.080100  0.064000  1
  C  C254  1  0.390600  0.919900  0.936000  1
  C  C255  1  0.598100  0.235000  0.840900  1
  C  C256  1  0.401900  0.765000  0.159100  1
  C  C257  1  0.660200  0.288500  0.831000  1
  C  C258  1  0.339800  0.711500  0.169000  1
  C  C259  1  0.528900  0.331400  0.995600  1
  C  C260  1  0.471100  0.668600  0.004400  1
  C  C261  1  0.460200  0.352700  0.004700  1
  C  C262  1  0.539800  0.647300  0.995300  1
  C  C263  1  0.812200  0.393800  0.927700  1
  C  C264  1  0.187800  0.606200  0.072300  1
  C  C265  1  0.895600  0.376800  0.970500  1
  C  C266  1  0.104400  0.623200  0.029500  1
  C  C267  1  0.909100  0.304400  0.942100  1
  C  C268  1  0.090900  0.695600  0.057900  1
  C  C269  1  0.984900  0.291900  0.981000  1
  C  C270  1  0.015100  0.708100  0.019000  1
  C  C271  1  0.828500  0.633100  0.135900  1
  C  C272  1  0.171500  0.366900  0.864100  1
  C  C273  1  0.184000  0.719200  0.322900  1
  C  C274  1  0.816000  0.280800  0.677100  1
  C  C275  1  0.717800  0.827600  0.229900  1
  C  C276  1  0.282200  0.172400  0.770100  1
  C  C277  1  0.679100  0.061700  0.694000  1
  C  C278  1  0.320900  0.938300  0.306000  1
  C  C279  1  0.594200  0.585200  0.445200  1
  C  C280  1  0.405800  0.414800  0.554800  1
  C  C281  1  0.988700  0.095600  0.805800  1
  C  C282  1  0.011300  0.904400  0.194200  1
  S  S283  1  0.736400  0.544700  0.091600  1
  S  S284  1  0.263600  0.455300  0.908400  1
  S  S285  1  0.223500  0.639180  0.313960  1
  S  S286  1  0.776500  0.360820  0.686040  1
  S  S287  1  0.680800  0.894740  0.285800  1
  S  S288  1  0.319200  0.105260  0.714200  1
  S  S289  1  0.629000  0.976600  0.707900  1
  S  S290  1  0.371000  0.023400  0.292100  1
  S  S291  1  0.649300  0.516500  0.436700  1
  S  S292  1  0.350700  0.483500  0.563300  1
  S  S293  1  0.031500  0.072300  0.889100  1
  S  S294  1  0.968500  0.927700  0.110900  1
  N  N295  1  0.006700  0.343000  0.421400  1
  N  N296  1  0.993300  0.657000  0.578600  1
  N  N297  1  0.018300  0.427100  0.329800  1
  N  N298  1  0.981700  0.572900  0.670200  1
  N  N299  1  0.134000  0.265900  0.367500  1
  N  N300  1  0.866000  0.734100  0.632500  1
  N  N301  1  0.146800  0.251400  0.432900  1
  N  N302  1  0.853200  0.748600  0.567100  1
  N  N303  1  0.177900  0.194800  0.423400  1
  N  N304  1  0.822100  0.805200  0.576600  1
  N  N305  1  0.150600  0.367800  0.284200  1
  N  N306  1  0.849400  0.632200  0.715800  1
  N  N307  1  0.109200  0.333500  0.206700  1
  N  N308  1  0.890800  0.666500  0.793300  1
  N  N309  1  0.165500  0.363600  0.177900  1
  N  N310  1  0.834500  0.636400  0.822100  1
  N  N311  1  0.704800  0.274600  0.266800  1
  N  N312  1  0.295200  0.725400  0.733200  1
  N  N313  1  0.798900  0.178000  0.287100  1
  N  N314  1  0.201100  0.822000  0.712900  1
  N  N315  1  0.715000  0.138200  0.399000  1
  N  N316  1  0.285000  0.861800  0.601000  1
  N  N317  1  0.794500  0.138500  0.442700  1
  N  N318  1  0.205500  0.861500  0.557300  1
  N  N319  1  0.775300  0.086400  0.475400  1
  N  N320  1  0.224700  0.913600  0.524600  1
  N  N321  1  0.616800  0.238200  0.374400  1
  N  N322  1  0.383200  0.761800  0.625600  1
  N  N323  1  0.535000  0.224600  0.324100  1
  N  N324  1  0.465000  0.775400  0.675900  1
  N  N325  1  0.491100  0.250700  0.368000  1
  N  N326  1  0.508900  0.749300  0.632000  1
  N  N327  1  0.559300  0.129900  0.054900  1
  N  N328  1  0.440700  0.870100  0.945100  1
  N  N329  1  0.668900  0.121000  0.975800  1
  N  N330  1  0.331100  0.879000  0.024200  1
  N  N331  1  0.633500  0.243300  0.919900  1
  N  N332  1  0.366500  0.756700  0.080100  1
  N  N333  1  0.713300  0.300000  0.958000  1
  N  N334  1  0.286700  0.700000  0.042000  1
  N  N335  1  0.728700  0.326900  0.903900  1
  N  N336  1  0.271300  0.673100  0.096100  1
  N  N337  1  0.512200  0.256700  0.994400  1
  N  N338  1  0.487800  0.743300  0.005600  1
  N  N339  1  0.436400  0.233100  0.003700  1
  N  N340  1  0.563600  0.766900  0.996300  1
  N  N341  1  0.404800  0.293100  0.011500  1
  N  N342  1  0.595200  0.706900  0.988500  1
  O  O343  1  0.694000  0.546500  0.014500  1
  O  O344  1  0.306000  0.453500  0.985500  1
  O  O345  1  0.698000  0.568400  0.151000  1
  O  O346  1  0.302000  0.431600  0.849000  1
  O  O347  1  0.768400  0.481000  0.088500  1
  O  O348  1  0.231600  0.519000  0.911500  1
  O  O349  1  0.158800  0.584500  0.233800  1
  O  O350  1  0.841200  0.415500  0.766200  1
  O  O351  1  0.211200  0.613500  0.375900  1
  O  O352  1  0.788800  0.386500  0.624100  1
  O  O353  1  0.315700  0.674600  0.324500  1
  O  O354  1  0.684300  0.325400  0.675500  1
  O  O355  1  0.699500  0.882500  0.358900  1
  O  O356  1  0.300500  0.117500  0.641100  1
  O  O357  1  0.595600  0.882800  0.224600  1
  O  O358  1  0.404400  0.117200  0.775400  1
  O  O359  1  0.745900  0.970900  0.299700  1
  O  O360  1  0.254100  0.029100  0.700300  1
  O  O361  1  0.580900  0.003200  0.757700  1
  O  O362  1  0.419100  0.996800  0.242300  1
  O  O363  1  0.711100  0.959800  0.742300  1
  O  O364  1  0.288900  0.040200  0.257700  1
  O  O365  1  0.565700  0.919500  0.624900  1
  O  O366  1  0.434300  0.080500  0.375100  1
  O  O367  1  0.633500  0.497400  0.353300  1
  O  O368  1  0.366500  0.502600  0.646700  1
  O  O369  1  0.732800  0.566300  0.503900  1
  O  O370  1  0.267200  0.433700  0.496100  1
  O  O371  1  0.596500  0.449000  0.449200  1
  O  O372  1  0.403500  0.551000  0.550800  1
  O  O373  1  0.055900  0.005800  0.875500  1
  O  O374  1  0.944100  0.994200  0.124500  1
  O  O375  1  0.117800  0.143600  0.933300  1
  O  O376  1  0.882200  0.856400  0.066700  1
  O  O377  1  0.969800  0.082100  0.926700  1
  O  O378  1  0.030200  0.917900  0.073300  1
  F  F379  1  0.808100  0.692000  0.129000  1
  F  F380  1  0.191900  0.308000  0.871000  1
  F  F381  1  0.885800  0.623100  0.105000  1
  F  F382  1  0.114200  0.376900  0.895000  1
  F  F383  1  0.874400  0.653800  0.209300  1
  F  F384  1  0.125600  0.346200  0.790700  1
  F  F385  1  0.228100  0.776400  0.393000  1
  F  F386  1  0.771900  0.223600  0.607000  1
  F  F387  1  0.187300  0.749300  0.269800  1
  F  F388  1  0.812700  0.250700  0.730200  1
  F  F389  1  0.100700  0.700800  0.319700  1
  F  F390  1  0.899300  0.299200  0.680300  1
  F  F391  1  0.727000  0.837400  0.167300  1
  F  F392  1  0.273000  0.162600  0.832700  1
  F  F393  1  0.661200  0.755600  0.204400  1
  F  F394  1  0.338800  0.244400  0.795600  1
  F  F395  1  0.793600  0.825900  0.267800  1
  F  F396  1  0.206400  0.174100  0.732200  1
  F  F397  1  0.732200  0.117800  0.763000  1
  F  F398  1  0.267800  0.882200  0.237000  1
  F  F399  1  0.724600  0.051600  0.648300  1
  F  F400  1  0.275400  0.948400  0.351700  1
  F  F401  1  0.618000  0.085300  0.656100  1
  F  F402  1  0.382000  0.914700  0.343900  1
  F  F403  1  0.508100  0.546000  0.398900  1
  F  F404  1  0.491900  0.454000  0.601100  1
  F  F405  1  0.603400  0.621600  0.516800  1
  F  F406  1  0.396600  0.378400  0.483200  1
  F  F407  1  0.627400  0.639100  0.422800  1
  F  F408  1  0.372600  0.360900  0.577200  1
  F  F409  1  0.932300  0.130900  0.811200  1
  F  F410  1  0.067700  0.869100  0.188800  1
  F  F411  1  0.939500  0.035200  0.741400  1
  F  F412  1  0.060500  0.964800  0.258600  1
  F  F413  1  0.045800  0.140400  0.790700  1
  F  F414  1  0.954200  0.859600  0.209300  1
