# generated using pymatgen
data_H43Pd2C54S4N17(OF)12
_symmetry_space_group_name_H-M   'P 1'
_cell_length_a   13.20230000
_cell_length_b   13.58060000
_cell_length_c   35.86900000
_cell_angle_alpha   92.71900000
_cell_angle_beta   90.00000000
_cell_angle_gamma   90.00000000
_symmetry_Int_Tables_number   1
_chemical_formula_structural   H43Pd2C54S4N17(OF)12
_chemical_formula_sum   'H172 Pd8 C216 S16 N68 O48 F48'
_cell_volume   6423.89774649
_cell_formula_units_Z   4
loop_
 _symmetry_equiv_pos_site_id
 _symmetry_equiv_pos_as_xyz
  1  'x, y, z'
loop_
 _atom_site_type_symbol
 _atom_site_label
 _atom_site_symmetry_multiplicity
 _atom_site_fract_x
 _atom_site_fract_y
 _atom_site_fract_z
 _atom_site_occupancy
  H  H1  1  0.133000  0.329500  0.846700  1
  H  H2  1  0.633000  0.170500  0.653300  1
  H  H3  1  0.867000  0.670500  0.153300  1
  H  H4  1  0.367000  0.829500  0.346700  1
  H  H5  1  0.227900  0.223800  0.880900  1
  H  H6  1  0.727900  0.276200  0.619100  1
  H  H7  1  0.772100  0.776200  0.119100  1
  H  H8  1  0.272100  0.723800  0.380900  1
  H  H9  1  0.150400  0.106300  0.914400  1
  H  H10  1  0.650400  0.393700  0.585600  1
  H  H11  1  0.849600  0.893700  0.085600  1
  H  H12  1  0.349600  0.606300  0.414400  1
  H  H13  1  0.982800  0.030000  0.936200  1
  H  H14  1  0.482800  0.470000  0.563800  1
  H  H15  1  0.017200  0.970000  0.063800  1
  H  H16  1  0.517200  0.530000  0.436200  1
  H  H17  1  0.812600  0.039900  0.940000  1
  H  H18  1  0.312600  0.460100  0.560000  1
  H  H19  1  0.187400  0.960100  0.060000  1
  H  H20  1  0.687400  0.539900  0.440000  1
  H  H21  1  0.647800  0.131700  0.923900  1
  H  H22  1  0.147800  0.368300  0.576100  1
  H  H23  1  0.352200  0.868300  0.076100  1
  H  H24  1  0.852200  0.631700  0.423900  1
  H  H25  1  0.571900  0.249200  0.889700  1
  H  H26  1  0.071900  0.250800  0.610300  1
  H  H27  1  0.428100  0.750800  0.110300  1
  H  H28  1  0.928100  0.749200  0.389700  1
  H  H29  1  0.668600  0.344700  0.851500  1
  H  H30  1  0.168600  0.155300  0.648500  1
  H  H31  1  0.331400  0.655300  0.148500  1
  H  H32  1  0.831400  0.844700  0.351500  1
  H  H33  1  0.822500  0.579700  0.813000  1
  H  H34  1  0.322500  0.920300  0.687000  1
  H  H35  1  0.177500  0.420300  0.187000  1
  H  H36  1  0.677500  0.079700  0.313000  1
  H  H37  1  0.693600  0.604500  0.764500  1
  H  H38  1  0.193600  0.895500  0.735500  1
  H  H39  1  0.306400  0.395500  0.235500  1
  H  H40  1  0.806400  0.104500  0.264500  1
  H  H41  1  0.545500  0.435700  0.742500  1
  H  H42  1  0.045500  0.064300  0.757500  1
  H  H43  1  0.454500  0.564300  0.257500  1
  H  H44  1  0.954500  0.935700  0.242500  1
  H  H45  1  0.621800  0.359600  0.723800  1
  H  H46  1  0.121800  0.140400  0.776200  1
  H  H47  1  0.378200  0.640400  0.276200  1
  H  H48  1  0.878200  0.859600  0.223800  1
  H  H49  1  0.493800  0.565700  0.706700  1
  H  H50  1  0.993800  0.934300  0.793300  1
  H  H51  1  0.506200  0.434300  0.293300  1
  H  H52  1  0.006200  0.065700  0.206700  1
  H  H53  1  0.510700  0.664700  0.656800  1
  H  H54  1  0.010700  0.835300  0.843200  1
  H  H55  1  0.489300  0.335300  0.343200  1
  H  H56  1  0.989300  0.164700  0.156800  1
  H  H57  1  0.779200  0.545000  0.633600  1
  H  H58  1  0.279200  0.955000  0.866400  1
  H  H59  1  0.220800  0.455000  0.366400  1
  H  H60  1  0.720800  0.045000  0.133600  1
  H  H61  1  0.760500  0.442300  0.682200  1
  H  H62  1  0.260500  0.057700  0.817800  1
  H  H63  1  0.239500  0.557700  0.317800  1
  H  H64  1  0.739500  0.942300  0.182200  1
  H  H65  1  0.681500  0.644600  0.585900  1
  H  H66  1  0.181500  0.855400  0.914100  1
  H  H67  1  0.318500  0.355400  0.414100  1
  H  H68  1  0.818500  0.144600  0.085900  1
  H  H69  1  0.591100  0.709100  0.601700  1
  H  H70  1  0.091100  0.790900  0.898300  1
  H  H71  1  0.408900  0.290900  0.398300  1
  H  H72  1  0.908900  0.209100  0.101700  1
  H  H73  1  0.706800  0.797000  0.672800  1
  H  H74  1  0.206800  0.703000  0.827200  1
  H  H75  1  0.293200  0.203000  0.327200  1
  H  H76  1  0.793200  0.297000  0.172800  1
  H  H77  1  0.838100  0.922200  0.663800  1
  H  H78  1  0.338100  0.577800  0.836200  1
  H  H79  1  0.161900  0.077800  0.336200  1
  H  H80  1  0.661900  0.422200  0.163800  1
  H  H81  1  0.723700  0.996600  0.573100  1
  H  H82  1  0.223700  0.503400  0.926900  1
  H  H83  1  0.276300  0.003400  0.426900  1
  H  H84  1  0.776300  0.496600  0.073100  1
  H  H85  1  0.636300  0.110400  0.539500  1
  H  H86  1  0.136300  0.389600  0.960500  1
  H  H87  1  0.363700  0.889600  0.460500  1
  H  H88  1  0.863700  0.610400  0.039500  1
  H  H89  1  0.722800  0.218900  0.504300  1
  H  H90  1  0.222800  0.281100  0.995700  1
  H  H91  1  0.277200  0.781100  0.495700  1
  H  H92  1  0.777200  0.718900  0.004300  1
  H  H93  1  0.894500  0.279900  0.481200  1
  H  H94  1  0.394500  0.220100  0.018800  1
  H  H95  1  0.105500  0.720100  0.518800  1
  H  H96  1  0.605500  0.779900  0.981200  1
  H  H97  1  0.065100  0.265100  0.480000  1
  H  H98  1  0.565100  0.234900  0.020000  1
  H  H99  1  0.934900  0.734900  0.520000  1
  H  H100  1  0.434900  0.765100  0.980000  1
  H  H101  1  0.224000  0.181200  0.504100  1
  H  H102  1  0.724000  0.318800  0.995900  1
  H  H103  1  0.776000  0.818800  0.495900  1
  H  H104  1  0.276000  0.681200  0.004100  1
  H  H105  1  0.292000  0.062600  0.540400  1
  H  H106  1  0.792000  0.437400  0.959600  1
  H  H107  1  0.708000  0.937400  0.459600  1
  H  H108  1  0.208000  0.562600  0.040400  1
  H  H109  1  0.187500  0.960900  0.572900  1
  H  H110  1  0.687500  0.539100  0.927100  1
  H  H111  1  0.812500  0.039100  0.427100  1
  H  H112  1  0.312500  0.460900  0.072900  1
  H  H113  1  0.086800  0.921600  0.659900  1
  H  H114  1  0.586800  0.578400  0.840100  1
  H  H115  1  0.913200  0.078400  0.340100  1
  H  H116  1  0.413200  0.421600  0.159900  1
  H  H117  1  0.196900  0.775600  0.668000  1
  H  H118  1  0.696900  0.724400  0.832000  1
  H  H119  1  0.803100  0.224400  0.332000  1
  H  H120  1  0.303100  0.275600  0.168000  1
  H  H121  1  0.259400  0.648300  0.598500  1
  H  H122  1  0.759400  0.851700  0.901500  1
  H  H123  1  0.740600  0.351700  0.401500  1
  H  H124  1  0.240600  0.148300  0.098500  1
  H  H125  1  0.154100  0.604800  0.585800  1
  H  H126  1  0.654100  0.895200  0.914200  1
  H  H127  1  0.845900  0.395200  0.414200  1
  H  H128  1  0.345900  0.104800  0.085800  1
  H  H129  1  0.341500  0.562800  0.644500  1
  H  H130  1  0.841500  0.937200  0.855500  1
  H  H131  1  0.658500  0.437200  0.355500  1
  H  H132  1  0.158500  0.062800  0.144500  1
  H  H133  1  0.342500  0.462600  0.694900  1
  H  H134  1  0.842500  0.037400  0.805100  1
  H  H135  1  0.657500  0.537400  0.305100  1
  H  H136  1  0.157500  0.962600  0.194900  1
  H  H137  1  0.041500  0.457100  0.694100  1
  H  H138  1  0.541500  0.042900  0.805900  1
  H  H139  1  0.958500  0.542900  0.305900  1
  H  H140  1  0.458500  0.957100  0.194100  1
  H  H141  1  0.040800  0.553800  0.643000  1
  H  H142  1  0.540800  0.946200  0.857000  1
  H  H143  1  0.959200  0.446200  0.357000  1
  H  H144  1  0.459200  0.053800  0.143000  1
  H  H145  1  0.179800  0.322800  0.727300  1
  H  H146  1  0.679800  0.177200  0.772700  1
  H  H147  1  0.820200  0.677200  0.272700  1
  H  H148  1  0.320200  0.822800  0.227300  1
  H  H149  1  0.265700  0.391500  0.744000  1
  H  H150  1  0.765700  0.108500  0.756000  1
  H  H151  1  0.734300  0.608500  0.256000  1
  H  H152  1  0.234300  0.891500  0.244000  1
  H  H153  1  0.162400  0.573200  0.773900  1
  H  H154  1  0.662400  0.926800  0.726100  1
  H  H155  1  0.837600  0.426800  0.226100  1
  H  H156  1  0.337600  0.073200  0.273900  1
  H  H157  1  0.025300  0.567300  0.820300  1
  H  H158  1  0.525300  0.932700  0.679700  1
  H  H159  1  0.974700  0.432700  0.179700  1
  H  H160  1  0.474700  0.067300  0.320300  1
  H  H161  1  0.458900  0.380900  0.478800  1
  H  H162  1  0.958900  0.119100  0.021200  1
  H  H163  1  0.541100  0.619100  0.521200  1
  H  H164  1  0.041100  0.880900  0.978800  1
  H  H165  1  0.542500  0.310600  0.461500  1
  H  H166  1  0.042500  0.189400  0.038500  1
  H  H167  1  0.457500  0.689400  0.538500  1
  H  H168  1  0.957500  0.810600  0.961500  1
  H  H169  1  0.565400  0.375100  0.497900  1
  H  H170  1  0.065400  0.124900  0.002100  1
  H  H171  1  0.434600  0.624900  0.502100  1
  H  H172  1  0.934600  0.875100  0.997900  1
  Pd  Pd173  1  0.900450  0.360020  0.832040  1
  Pd  Pd174  1  0.400450  0.139980  0.667960  1
  Pd  Pd175  1  0.099550  0.639980  0.167960  1
  Pd  Pd176  1  0.599550  0.860020  0.332040  1
  Pd  Pd177  1  0.951350  0.941740  0.584270  1
  Pd  Pd178  1  0.451350  0.558260  0.915730  1
  Pd  Pd179  1  0.048650  0.058260  0.415730  1
  Pd  Pd180  1  0.548650  0.441740  0.084270  1
  C  C181  1  0.100300  0.283200  0.860700  1
  C  C182  1  0.600300  0.216800  0.639300  1
  C  C183  1  0.899700  0.716800  0.139300  1
  C  C184  1  0.399700  0.783200  0.360700  1
  C  C185  1  0.157600  0.219300  0.881070  1
  C  C186  1  0.657600  0.280700  0.618930  1
  C  C187  1  0.842400  0.780700  0.118930  1
  C  C188  1  0.342400  0.719300  0.381070  1
  C  C189  1  0.111700  0.150200  0.901280  1
  C  C190  1  0.611700  0.349800  0.598720  1
  C  C191  1  0.888300  0.849800  0.098720  1
  C  C192  1  0.388300  0.650200  0.401280  1
  C  C193  1  0.006200  0.145300  0.902260  1
  C  C194  1  0.506200  0.354700  0.597740  1
  C  C195  1  0.993800  0.854700  0.097740  1
  C  C196  1  0.493800  0.645300  0.402260  1
  C  C197  1  0.949100  0.078500  0.923550  1
  C  C198  1  0.449100  0.421500  0.576450  1
  C  C199  1  0.050900  0.921500  0.076450  1
  C  C200  1  0.550900  0.578500  0.423550  1
  C  C201  1  0.847400  0.084300  0.925760  1
  C  C202  1  0.347400  0.415700  0.574240  1
  C  C203  1  0.152600  0.915700  0.074240  1
  C  C204  1  0.652600  0.584300  0.425760  1
  C  C205  1  0.791600  0.156900  0.906840  1
  C  C206  1  0.291600  0.343100  0.593160  1
  C  C207  1  0.208400  0.843100  0.093160  1
  C  C208  1  0.708400  0.656900  0.406840  1
  C  C209  1  0.686800  0.170400  0.908710  1
  C  C210  1  0.186800  0.329600  0.591290  1
  C  C211  1  0.313200  0.829600  0.091290  1
  C  C212  1  0.813200  0.670400  0.408710  1
  C  C213  1  0.641700  0.240000  0.888360  1
  C  C214  1  0.141700  0.260000  0.611640  1
  C  C215  1  0.358300  0.760000  0.111640  1
  C  C216  1  0.858300  0.740000  0.388360  1
  C  C217  1  0.700400  0.297600  0.865430  1
  C  C218  1  0.200400  0.202400  0.634570  1
  C  C219  1  0.299600  0.702400  0.134570  1
  C  C220  1  0.799600  0.797600  0.365430  1
  C  C221  1  0.845700  0.219400  0.883820  1
  C  C222  1  0.345700  0.280600  0.616180  1
  C  C223  1  0.154300  0.780600  0.116180  1
  C  C224  1  0.654300  0.719400  0.383820  1
  C  C225  1  0.952900  0.213800  0.882060  1
  C  C226  1  0.452900  0.286200  0.617940  1
  C  C227  1  0.047100  0.786200  0.117940  1
  C  C228  1  0.547100  0.713800  0.382060  1
  C  C229  1  0.787400  0.530800  0.799370  1
  C  C230  1  0.287400  0.969200  0.700630  1
  C  C231  1  0.212600  0.469200  0.200630  1
  C  C232  1  0.712600  0.030800  0.299370  1
  C  C233  1  0.717000  0.544800  0.772750  1
  C  C234  1  0.217000  0.955200  0.727250  1
  C  C235  1  0.283000  0.455200  0.227250  1
  C  C236  1  0.783000  0.044800  0.272750  1
  C  C237  1  0.613000  0.428000  0.732160  1
  C  C238  1  0.113000  0.072000  0.767840  1
  C  C239  1  0.387000  0.572000  0.267840  1
  C  C240  1  0.887000  0.928000  0.232160  1
  C  C241  1  0.624700  0.493100  0.699490  1
  C  C242  1  0.124700  0.006900  0.800510  1
  C  C243  1  0.375300  0.506900  0.300510  1
  C  C244  1  0.875300  0.993100  0.199490  1
  C  C245  1  0.551300  0.560300  0.691750  1
  C  C246  1  0.051300  0.939700  0.808250  1
  C  C247  1  0.448700  0.439700  0.308250  1
  C  C248  1  0.948700  0.060300  0.191750  1
  C  C249  1  0.561700  0.620100  0.661900  1
  C  C250  1  0.061700  0.879900  0.838100  1
  C  C251  1  0.438300  0.379900  0.338100  1
  C  C252  1  0.938300  0.120100  0.161900  1
  C  C253  1  0.645800  0.614400  0.639800  1
  C  C254  1  0.145800  0.885600  0.860200  1
  C  C255  1  0.354200  0.385600  0.360200  1
  C  C256  1  0.854200  0.114400  0.139800  1
  C  C257  1  0.720600  0.548500  0.648010  1
  C  C258  1  0.220600  0.951500  0.851990  1
  C  C259  1  0.279400  0.451500  0.351990  1
  C  C260  1  0.779400  0.048500  0.148010  1
  C  C261  1  0.709900  0.487600  0.677290  1
  C  C262  1  0.209900  0.012400  0.822710  1
  C  C263  1  0.290100  0.512400  0.322710  1
  C  C264  1  0.790100  0.987600  0.177290  1
  C  C265  1  0.656700  0.681800  0.607740  1
  C  C266  1  0.156700  0.818200  0.892260  1
  C  C267  1  0.343300  0.318200  0.392260  1
  C  C268  1  0.843300  0.181800  0.107740  1
  C  C269  1  0.740500  0.809100  0.650740  1
  C  C270  1  0.240500  0.690900  0.849260  1
  C  C271  1  0.259500  0.190900  0.349260  1
  C  C272  1  0.759500  0.309100  0.150740  1
  C  C273  1  0.812400  0.877700  0.645670  1
  C  C274  1  0.312400  0.622300  0.854330  1
  C  C275  1  0.187600  0.122300  0.354330  1
  C  C276  1  0.687600  0.377700  0.145670  1
  C  C277  1  0.759700  0.039500  0.558620  1
  C  C278  1  0.259700  0.460500  0.941380  1
  C  C279  1  0.240300  0.960500  0.441380  1
  C  C280  1  0.740300  0.539500  0.058620  1
  C  C281  1  0.706700  0.108400  0.538520  1
  C  C282  1  0.206700  0.391600  0.961480  1
  C  C283  1  0.293300  0.891600  0.461480  1
  C  C284  1  0.793300  0.608400  0.038520  1
  C  C285  1  0.757900  0.172600  0.517570  1
  C  C286  1  0.257900  0.327400  0.982430  1
  C  C287  1  0.242100  0.827400  0.482430  1
  C  C288  1  0.742100  0.672600  0.017570  1
  C  C289  1  0.863600  0.168500  0.515970  1
  C  C290  1  0.363600  0.331500  0.984030  1
  C  C291  1  0.136400  0.831500  0.484030  1
  C  C292  1  0.636400  0.668500  0.015970  1
  C  C293  1  0.925200  0.231800  0.494930  1
  C  C294  1  0.425200  0.268200  0.005070  1
  C  C295  1  0.074800  0.768200  0.505070  1
  C  C296  1  0.574800  0.731800  0.994930  1
  C  C297  1  0.027000  0.223700  0.494470  1
  C  C298  1  0.527000  0.276300  0.005530  1
  C  C299  1  0.973000  0.776300  0.505530  1
  C  C300  1  0.473000  0.723700  0.994470  1
  C  C301  1  0.077100  0.152000  0.515950  1
  C  C302  1  0.577100  0.348000  0.984050  1
  C  C303  1  0.922900  0.848000  0.484050  1
  C  C304  1  0.422900  0.652000  0.015950  1
  C  C305  1  0.181900  0.140900  0.517540  1
  C  C306  1  0.681900  0.359100  0.982460  1
  C  C307  1  0.818100  0.859100  0.482460  1
  C  C308  1  0.318100  0.640900  0.017540  1
  C  C309  1  0.222100  0.070200  0.538980  1
  C  C310  1  0.722100  0.429800  0.961020  1
  C  C311  1  0.777900  0.929800  0.461020  1
  C  C312  1  0.277900  0.570200  0.038980  1
  C  C313  1  0.158900  0.009300  0.558740  1
  C  C314  1  0.658900  0.490700  0.941260  1
  C  C315  1  0.841100  0.990700  0.441260  1
  C  C316  1  0.341100  0.509300  0.058740  1
  C  C317  1  0.018200  0.089500  0.536650  1
  C  C318  1  0.518200  0.410500  0.963350  1
  C  C319  1  0.981800  0.910500  0.463350  1
  C  C320  1  0.481800  0.589500  0.036650  1
  C  C321  1  0.911000  0.096800  0.536610  1
  C  C322  1  0.411000  0.403200  0.963390  1
  C  C323  1  0.089000  0.903200  0.463390  1
  C  C324  1  0.589000  0.596800  0.036610  1
  C  C325  1  0.095100  0.868000  0.643110  1
  C  C326  1  0.595100  0.632000  0.856890  1
  C  C327  1  0.904900  0.132000  0.356890  1
  C  C328  1  0.404900  0.368000  0.143110  1
  C  C329  1  0.155400  0.787600  0.647750  1
  C  C330  1  0.655400  0.712400  0.852250  1
  C  C331  1  0.844600  0.212400  0.352250  1
  C  C332  1  0.344600  0.287600  0.147750  1
  C  C333  1  0.190400  0.636500  0.606550  1
  C  C334  1  0.690400  0.863500  0.893450  1
  C  C335  1  0.809600  0.363500  0.393450  1
  C  C336  1  0.309600  0.136500  0.106550  1
  C  C337  1  0.191500  0.569400  0.638950  1
  C  C338  1  0.691500  0.930600  0.861050  1
  C  C339  1  0.808500  0.430600  0.361050  1
  C  C340  1  0.308500  0.069400  0.138950  1
  C  C341  1  0.280500  0.541700  0.654400  1
  C  C342  1  0.780500  0.958300  0.845600  1
  C  C343  1  0.719500  0.458300  0.345600  1
  C  C344  1  0.219500  0.041700  0.154400  1
  C  C345  1  0.281100  0.482000  0.684860  1
  C  C346  1  0.781100  0.018000  0.815140  1
  C  C347  1  0.718900  0.518000  0.315140  1
  C  C348  1  0.218900  0.982000  0.184860  1
  C  C349  1  0.192600  0.451500  0.700130  1
  C  C350  1  0.692600  0.048500  0.799870  1
  C  C351  1  0.807400  0.548500  0.299870  1
  C  C352  1  0.307400  0.951500  0.200130  1
  C  C353  1  0.102500  0.478300  0.684240  1
  C  C354  1  0.602500  0.021700  0.815760  1
  C  C355  1  0.897500  0.521700  0.315760  1
  C  C356  1  0.397500  0.978300  0.184240  1
  C  C357  1  0.102100  0.536600  0.653670  1
  C  C358  1  0.602100  0.963400  0.846330  1
  C  C359  1  0.897900  0.463400  0.346330  1
  C  C360  1  0.397900  0.036600  0.153670  1
  C  C361  1  0.197200  0.390600  0.734230  1
  C  C362  1  0.697200  0.109400  0.765770  1
  C  C363  1  0.802800  0.609400  0.265770  1
  C  C364  1  0.302800  0.890600  0.234230  1
  C  C365  1  0.122500  0.519100  0.779090  1
  C  C366  1  0.622500  0.980900  0.720910  1
  C  C367  1  0.877500  0.480900  0.220910  1
  C  C368  1  0.377500  0.019100  0.279090  1
  C  C369  1  0.047300  0.515600  0.804410  1
  C  C370  1  0.547300  0.984400  0.695590  1
  C  C371  1  0.952700  0.484400  0.195590  1
  C  C372  1  0.452700  0.015600  0.304410  1
  C  C373  1  0.377200  0.017000  0.951300  1
  C  C374  1  0.877200  0.483000  0.548700  1
  C  C375  1  0.622800  0.983000  0.048700  1
  C  C376  1  0.122800  0.517000  0.451300  1
  C  C377  1  0.432600  0.788600  0.772650  1
  C  C378  1  0.932600  0.711400  0.727350  1
  C  C379  1  0.567400  0.211400  0.227350  1
  C  C380  1  0.067400  0.288600  0.272650  1
  C  C381  1  0.493900  0.934300  0.577280  1
  C  C382  1  0.993900  0.565700  0.922720  1
  C  C383  1  0.506100  0.065700  0.422720  1
  C  C384  1  0.006100  0.434300  0.077280  1
  C  C385  1  0.926900  0.227000  0.699400  1
  C  C386  1  0.426900  0.273000  0.800600  1
  C  C387  1  0.073100  0.773000  0.300600  1
  C  C388  1  0.573100  0.727000  0.199400  1
  C  C389  1  0.478100  0.259600  0.506670  1
  C  C390  1  0.978100  0.240400  0.993330  1
  C  C391  1  0.521900  0.740400  0.493330  1
  C  C392  1  0.021900  0.759600  0.006670  1
  C  C393  1  0.514300  0.338100  0.484360  1
  C  C394  1  0.014300  0.161900  0.015640  1
  C  C395  1  0.485700  0.661900  0.515640  1
  C  C396  1  0.985700  0.838100  0.984360  1
  S  S397  1  0.276060  0.991360  0.983610  1
  S  S398  1  0.776060  0.508640  0.516390  1
  S  S399  1  0.723940  0.008640  0.016390  1
  S  S400  1  0.223940  0.491360  0.483610  1
  S  S401  1  0.335440  0.713600  0.749050  1
  S  S402  1  0.835440  0.786400  0.750950  1
  S  S403  1  0.664560  0.286400  0.250950  1
  S  S404  1  0.164560  0.213600  0.249050  1
  S  S405  1  0.393850  0.878220  0.601270  1
  S  S406  1  0.893850  0.621780  0.898730  1
  S  S407  1  0.606150  0.121780  0.398730  1
  S  S408  1  0.106150  0.378220  0.101270  1
  S  S409  1  0.898600  0.142140  0.661360  1
  S  S410  1  0.398600  0.357860  0.838640  1
  S  S411  1  0.101400  0.857860  0.338640  1
  S  S412  1  0.601400  0.642140  0.161360  1
  N  N413  1  0.999900  0.279900  0.860750  1
  N  N414  1  0.499900  0.220100  0.639250  1
  N  N415  1  0.000100  0.720100  0.139250  1
  N  N416  1  0.500100  0.779900  0.360750  1
  N  N417  1  0.799300  0.287600  0.862930  1
  N  N418  1  0.299300  0.212400  0.637070  1
  N  N419  1  0.200700  0.712400  0.137070  1
  N  N420  1  0.700700  0.787600  0.362930  1
  N  N421  1  0.797300  0.432700  0.802390  1
  N  N422  1  0.297300  0.067300  0.697610  1
  N  N423  1  0.202700  0.567300  0.197610  1
  N  N424  1  0.702700  0.932700  0.302390  1
  N  N425  1  0.737000  0.384500  0.778580  1
  N  N426  1  0.237000  0.115500  0.721420  1
  N  N427  1  0.263000  0.615500  0.221420  1
  N  N428  1  0.763000  0.884500  0.278580  1
  N  N429  1  0.688400  0.454600  0.760930  1
  N  N430  1  0.188400  0.045400  0.739070  1
  N  N431  1  0.311600  0.545400  0.239070  1
  N  N432  1  0.811600  0.954600  0.260930  1
  N  N433  1  0.727900  0.762500  0.617800  1
  N  N434  1  0.227900  0.737500  0.882200  1
  N  N435  1  0.272100  0.237500  0.382200  1
  N  N436  1  0.772100  0.262500  0.117800  1
  N  N437  1  0.788200  0.798900  0.592230  1
  N  N438  1  0.288200  0.701100  0.907770  1
  N  N439  1  0.211800  0.201100  0.407770  1
  N  N440  1  0.711800  0.298900  0.092230  1
  N  N441  1  0.840000  0.869900  0.609720  1
  N  N442  1  0.340000  0.630100  0.890280  1
  N  N443  1  0.160000  0.130100  0.390280  1
  N  N444  1  0.660000  0.369900  0.109720  1
  N  N445  1  0.859100  0.033500  0.557660  1
  N  N446  1  0.359100  0.466500  0.942340  1
  N  N447  1  0.140900  0.966500  0.442340  1
  N  N448  1  0.640900  0.533500  0.057660  1
  N  N449  1  0.059200  0.018700  0.557820  1
  N  N450  1  0.559200  0.481300  0.942180  1
  N  N451  1  0.940800  0.981300  0.442180  1
  N  N452  1  0.440800  0.518700  0.057820  1
  N  N453  1  0.050300  0.854600  0.609810  1
  N  N454  1  0.550300  0.645400  0.890190  1
  N  N455  1  0.949700  0.145400  0.390190  1
  N  N456  1  0.449700  0.354600  0.109810  1
  N  N457  1  0.078200  0.769900  0.593650  1
  N  N458  1  0.578200  0.730100  0.906350  1
  N  N459  1  0.921800  0.230100  0.406350  1
  N  N460  1  0.421800  0.269900  0.093650  1
  N  N461  1  0.141600  0.730900  0.617210  1
  N  N462  1  0.641600  0.769100  0.882790  1
  N  N463  1  0.858400  0.269100  0.382790  1
  N  N464  1  0.358400  0.230900  0.117210  1
  N  N465  1  0.127500  0.428700  0.763130  1
  N  N466  1  0.627500  0.071300  0.736870  1
  N  N467  1  0.872500  0.571300  0.236870  1
  N  N468  1  0.372500  0.928700  0.263130  1
  N  N469  1  0.059000  0.368800  0.776990  1
  N  N470  1  0.559000  0.131200  0.723010  1
  N  N471  1  0.941000  0.631200  0.223010  1
  N  N472  1  0.441000  0.868800  0.276990  1
  N  N473  1  0.010300  0.423400  0.802370  1
  N  N474  1  0.510300  0.076600  0.697630  1
  N  N475  1  0.989700  0.576600  0.197630  1
  N  N476  1  0.489700  0.923400  0.302370  1
  N  N477  1  0.449500  0.198900  0.524850  1
  N  N478  1  0.949500  0.301100  0.975150  1
  N  N479  1  0.550500  0.801100  0.475150  1
  N  N480  1  0.050500  0.698900  0.024850  1
  O  O481  1  0.301600  0.898000  0.996820  1
  O  O482  1  0.801600  0.602000  0.503180  1
  O  O483  1  0.698400  0.102000  0.003180  1
  O  O484  1  0.198400  0.398000  0.496820  1
  O  O485  1  0.278900  0.070200  0.010440  1
  O  O486  1  0.778900  0.429800  0.489560  1
  O  O487  1  0.721100  0.929800  0.989560  1
  O  O488  1  0.221100  0.570200  0.510440  1
  O  O489  1  0.187900  0.989400  0.960720  1
  O  O490  1  0.687900  0.510600  0.539280  1
  O  O491  1  0.812100  0.010600  0.039280  1
  O  O492  1  0.312100  0.489400  0.460720  1
  O  O493  1  0.362400  0.615400  0.758210  1
  O  O494  1  0.862400  0.884600  0.741790  1
  O  O495  1  0.637600  0.384600  0.241790  1
  O  O496  1  0.137600  0.115400  0.258210  1
  O  O497  1  0.243700  0.748700  0.765880  1
  O  O498  1  0.743700  0.751300  0.734120  1
  O  O499  1  0.756300  0.251300  0.234120  1
  O  O500  1  0.256300  0.248700  0.265880  1
  O  O501  1  0.347500  0.737400  0.711030  1
  O  O502  1  0.847500  0.762600  0.788970  1
  O  O503  1  0.652500  0.262600  0.288970  1
  O  O504  1  0.152500  0.237400  0.211030  1
  O  O505  1  0.443900  0.829900  0.629670  1
  O  O506  1  0.943900  0.670100  0.870330  1
  O  O507  1  0.556100  0.170100  0.370330  1
  O  O508  1  0.056100  0.329900  0.129670  1
  O  O509  1  0.334700  0.961300  0.614930  1
  O  O510  1  0.834700  0.538700  0.885070  1
  O  O511  1  0.665300  0.038700  0.385070  1
  O  O512  1  0.165300  0.461300  0.114930  1
  O  O513  1  0.344500  0.822200  0.573040  1
  O  O514  1  0.844500  0.677800  0.926960  1
  O  O515  1  0.655500  0.177800  0.426960  1
  O  O516  1  0.155500  0.322200  0.073040  1
  O  O517  1  0.902800  0.205100  0.630470  1
  O  O518  1  0.402800  0.294900  0.869530  1
  O  O519  1  0.097200  0.794900  0.369530  1
  O  O520  1  0.597200  0.705100  0.130470  1
  O  O521  1  0.799200  0.108300  0.669200  1
  O  O522  1  0.299200  0.391700  0.830800  1
  O  O523  1  0.200800  0.891700  0.330800  1
  O  O524  1  0.700800  0.608300  0.169200  1
  O  O525  1  0.977100  0.073600  0.662200  1
  O  O526  1  0.477100  0.426400  0.837800  1
  O  O527  1  0.022900  0.926400  0.337800  1
  O  O528  1  0.522900  0.573600  0.162200  1
  F  F529  1  0.463500  0.033900  0.966750  1
  F  F530  1  0.963500  0.466100  0.533250  1
  F  F531  1  0.536500  0.966100  0.033250  1
  F  F532  1  0.036500  0.533900  0.466750  1
  F  F533  1  0.356200  0.095100  0.932250  1
  F  F534  1  0.856200  0.404900  0.567750  1
  F  F535  1  0.643800  0.904900  0.067750  1
  F  F536  1  0.143800  0.595100  0.432250  1
  F  F537  1  0.387200  0.943900  0.925820  1
  F  F538  1  0.887200  0.556100  0.574180  1
  F  F539  1  0.612800  0.056100  0.074180  1
  F  F540  1  0.112800  0.443900  0.425820  1
  F  F541  1  0.522800  0.767300  0.761280  1
  F  F542  1  0.022800  0.732700  0.738720  1
  F  F543  1  0.477200  0.232700  0.238720  1
  F  F544  1  0.977200  0.267300  0.261280  1
  F  F545  1  0.431100  0.779800  0.809260  1
  F  F546  1  0.931100  0.720200  0.690740  1
  F  F547  1  0.568900  0.220200  0.190740  1
  F  F548  1  0.068900  0.279800  0.309260  1
  F  F549  1  0.419000  0.884200  0.767850  1
  F  F550  1  0.919000  0.615800  0.732150  1
  F  F551  1  0.581000  0.115800  0.232150  1
  F  F552  1  0.081000  0.384200  0.267850  1
  F  F553  1  0.542000  0.000900  0.598560  1
  F  F554  1  0.042000  0.499100  0.901440  1
  F  F555  1  0.458000  0.999100  0.401440  1
  F  F556  1  0.958000  0.500900  0.098560  1
  F  F557  1  0.565400  0.872700  0.564890  1
  F  F558  1  0.065400  0.627300  0.935110  1
  F  F559  1  0.434600  0.127300  0.435110  1
  F  F560  1  0.934600  0.372700  0.064890  1
  F  F561  1  0.464200  0.977200  0.547330  1
  F  F562  1  0.964200  0.522800  0.952670  1
  F  F563  1  0.535800  0.022800  0.452670  1
  F  F564  1  0.035800  0.477200  0.047330  1
  F  F565  1  0.920800  0.186100  0.731890  1
  F  F566  1  0.420800  0.313900  0.768110  1
  F  F567  1  0.079200  0.813900  0.268110  1
  F  F568  1  0.579200  0.686100  0.231890  1
  F  F569  1  0.022700  0.257900  0.696940  1
  F  F570  1  0.522700  0.242100  0.803060  1
  F  F571  1  0.977300  0.742100  0.303060  1
  F  F572  1  0.477300  0.757900  0.196940  1
  F  F573  1  0.866000  0.298900  0.701940  1
  F  F574  1  0.366000  0.201100  0.798060  1
  F  F575  1  0.134000  0.701100  0.298060  1
  F  F576  1  0.634000  0.798900  0.201940  1
