# generated using pymatgen
data_CuH53C45N11O19
_symmetry_space_group_name_H-M   'P 1'
_cell_length_a   12.28600000
_cell_length_b   18.16946200
_cell_length_c   23.28900000
_cell_angle_alpha   92.93610361
_cell_angle_beta   90.00000000
_cell_angle_gamma   109.76083935
_symmetry_Int_Tables_number   1
_chemical_formula_structural   CuH53C45N11O19
_chemical_formula_sum   'Cu4 H212 C180 N44 O76'
_cell_volume   4885.40469237
_cell_formula_units_Z   4
loop_
 _symmetry_equiv_pos_site_id
 _symmetry_equiv_pos_as_xyz
  1  'x, y, z'
loop_
 _atom_site_type_symbol
 _atom_site_label
 _atom_site_symmetry_multiplicity
 _atom_site_fract_x
 _atom_site_fract_y
 _atom_site_fract_z
 _atom_site_occupancy
  C  C1  1  0.485500  0.639000  0.680000  1
  C  C2  1  0.846500  0.361000  0.820000  1
  C  C3  1  0.514500  0.361000  0.320000  1
  C  C4  1  0.153500  0.639000  0.180000  1
  C  C5  1  0.508000  0.725400  0.685100  1
  C  C6  1  0.782600  0.274600  0.814900  1
  C  C7  1  0.492000  0.274600  0.314900  1
  C  C8  1  0.217400  0.725400  0.185100  1
  C  C9  1  0.655600  0.850600  0.720200  1
  C  C10  1  0.805000  0.149400  0.779800  1
  C  C11  1  0.344400  0.149400  0.279800  1
  C  C12  1  0.195000  0.850600  0.220200  1
  C  C13  1  0.670600  0.899800  0.774900  1
  C  C14  1  0.770800  0.100200  0.725100  1
  C  C15  1  0.329400  0.100200  0.225100  1
  C  C16  1  0.229200  0.899800  0.274900  1
  C  C17  1  0.578500  0.922200  0.796400  1
  C  C18  1  0.656300  0.077800  0.703600  1
  C  C19  1  0.421500  0.077800  0.203600  1
  C  C20  1  0.343700  0.922200  0.296400  1
  C  C21  1  0.591300  0.966800  0.847800  1
  C  C22  1  0.624500  0.033200  0.652200  1
  C  C23  1  0.408700  0.033200  0.152200  1
  C  C24  1  0.375500  0.966800  0.347800  1
  C  C25  1  0.693400  0.990800  0.879100  1
  C  C26  1  0.702600  0.009200  0.620900  1
  C  C27  1  0.306600  0.009200  0.120900  1
  C  C28  1  0.297400  0.990800  0.379100  1
  C  C29  1  0.787100  0.968200  0.858300  1
  C  C30  1  0.818900  0.031800  0.641700  1
  C  C31  1  0.212900  0.031800  0.141700  1
  C  C32  1  0.181100  0.968200  0.358300  1
  C  C33  1  0.774800  0.924200  0.806900  1
  C  C34  1  0.850600  0.075800  0.693100  1
  C  C35  1  0.225200  0.075800  0.193100  1
  C  C36  1  0.149400  0.924200  0.306900  1
  C  C37  1  0.976100  0.962200  0.877700  1
  C  C38  1  0.013900  0.037800  0.622300  1
  C  C39  1  0.023900  0.037800  0.122300  1
  C  C40  1  0.986100  0.962200  0.377700  1
  C  C41  1  0.062200  0.984400  0.926700  1
  C  C42  1  0.077800  0.015600  0.573300  1
  C  C43  1  0.937800  0.015600  0.073300  1
  C  C44  1  0.922200  0.984400  0.426700  1
  C  C45  1  0.249800  0.995600  0.883800  1
  C  C46  1  0.254200  0.004400  0.616200  1
  C  C47  1  0.750200  0.004400  0.116200  1
  C  C48  1  0.745800  0.995600  0.383800  1
  C  C49  1  0.264100  0.948400  0.831600  1
  C  C50  1  0.315700  0.051600  0.668400  1
  C  C51  1  0.735900  0.051600  0.168400  1
  C  C52  1  0.684300  0.948400  0.331600  1
  C  C53  1  0.149600  0.884600  0.751000  1
  C  C54  1  0.265000  0.115400  0.749000  1
  C  C55  1  0.850400  0.115400  0.249000  1
  C  C56  1  0.735000  0.884600  0.251000  1
  C  C57  1  0.049200  0.872200  0.720000  1
  C  C58  1  0.177000  0.127800  0.780000  1
  C  C59  1  0.950800  0.127800  0.280000  1
  C  C60  1  0.823000  0.872200  0.220000  1
  C  C61  1  0.020700  0.823800  0.671600  1
  C  C62  1  0.196900  0.176200  0.828400  1
  C  C63  1  0.979300  0.176200  0.328400  1
  C  C64  1  0.803100  0.823800  0.171600  1
  C  C65  1  0.096900  0.785800  0.653200  1
  C  C66  1  0.311100  0.214200  0.846800  1
  C  C67  1  0.903100  0.214200  0.346800  1
  C  C68  1  0.688900  0.785800  0.153200  1
  C  C69  1  0.197300  0.797800  0.685400  1
  C  C70  1  0.399500  0.202200  0.814600  1
  C  C71  1  0.802700  0.202200  0.314600  1
  C  C72  1  0.600500  0.797800  0.185400  1
  C  C73  1  0.224700  0.847800  0.733000  1
  C  C74  1  0.376900  0.152200  0.767000  1
  C  C75  1  0.775300  0.152200  0.267000  1
  C  C76  1  0.623100  0.847800  0.233000  1
  C  C77  1  0.911900  0.812400  0.636600  1
  C  C78  1  0.099500  0.187600  0.863400  1
  C  C79  1  0.088100  0.187600  0.363400  1
  C  C80  1  0.900500  0.812400  0.136600  1
  C  C81  1  0.723900  0.723400  0.602700  1
  C  C82  1  0.000500  0.276600  0.897300  1
  C  C83  1  0.276100  0.276600  0.397300  1
  C  C84  1  0.999500  0.723400  0.102700  1
  C  C85  1  0.634000  0.644400  0.606900  1
  C  C86  1  0.989600  0.355600  0.893100  1
  C  C87  1  0.366000  0.355600  0.393100  1
  C  C88  1  0.010400  0.644400  0.106900  1
  C  C89  1  0.586700  0.544200  0.678700  1
  C  C90  1  0.042500  0.455800  0.821300  1
  C  C91  1  0.413300  0.455800  0.321300  1
  C  C92  1  0.957500  0.544200  0.178700  1
  C  C93  1  0.707100  0.543200  0.689800  1
  C  C94  1  0.163900  0.456800  0.810200  1
  C  C95  1  0.292900  0.456800  0.310200  1
  C  C96  1  0.836100  0.543200  0.189800  1
  C  C97  1  0.886000  0.612000  0.748000  1
  C  C98  1  0.274000  0.388000  0.752000  1
  C  C99  1  0.114000  0.388000  0.252000  1
  C  C100  1  0.726000  0.612000  0.248000  1
  C  C101  1  0.920200  0.629400  0.809700  1
  C  C102  1  0.290800  0.370600  0.690300  1
  C  C103  1  0.079800  0.370600  0.190300  1
  C  C104  1  0.709200  0.629400  0.309700  1
  C  C105  1  0.000500  0.700000  0.829200  1
  C  C106  1  0.300500  0.300000  0.670800  1
  C  C107  1  0.999500  0.300000  0.170800  1
  C  C108  1  0.699500  0.700000  0.329200  1
  C  C109  1  0.027900  0.716000  0.887200  1
  C  C110  1  0.311900  0.284000  0.612800  1
  C  C111  1  0.972100  0.284000  0.112800  1
  C  C112  1  0.688100  0.716000  0.387200  1
  C  C113  1  0.980400  0.660600  0.925500  1
  C  C114  1  0.319800  0.339400  0.574500  1
  C  C115  1  0.019600  0.339400  0.074500  1
  C  C116  1  0.680200  0.660600  0.425500  1
  C  C117  1  0.903200  0.590400  0.906600  1
  C  C118  1  0.312800  0.409600  0.593400  1
  C  C119  1  0.096800  0.409600  0.093400  1
  C  C120  1  0.687200  0.590400  0.406600  1
  C  C121  1  0.871800  0.573200  0.849800  1
  C  C122  1  0.298600  0.426800  0.650200  1
  C  C123  1  0.128200  0.426800  0.150200  1
  C  C124  1  0.701400  0.573200  0.349800  1
  C  C125  1  0.091100  0.821800  0.955300  1
  C  C126  1  0.269300  0.178200  0.544700  1
  C  C127  1  0.908900  0.178200  0.044700  1
  C  C128  1  0.730700  0.821800  0.455300  1
  C  C129  1  0.171400  0.904600  0.960100  1
  C  C130  1  0.266800  0.095400  0.539900  1
  C  C131  1  0.828600  0.095400  0.039900  1
  C  C132  1  0.733200  0.904600  0.460100  1
  C  C133  1  0.449600  0.601200  0.039000  1
  C  C134  1  0.848400  0.398800  0.461000  1
  C  C135  1  0.550400  0.398800  0.961000  1
  C  C136  1  0.151600  0.601200  0.539000  1
  C  C137  1  0.564500  0.603000  0.017700  1
  C  C138  1  0.961500  0.397000  0.482300  1
  C  C139  1  0.435500  0.397000  0.982300  1
  C  C140  1  0.038500  0.603000  0.517700  1
  C  C141  1  0.590200  0.596600  0.960700  1
  C  C142  1  0.993600  0.403400  0.539300  1
  C  C143  1  0.409800  0.403400  0.039300  1
  C  C144  1  0.006400  0.596600  0.460700  1
  C  C145  1  0.503300  0.582800  0.918900  1
  C  C146  1  0.920500  0.417200  0.581100  1
  C  C147  1  0.496700  0.417200  0.081100  1
  C  C148  1  0.079500  0.582800  0.418900  1
  C  C149  1  0.391400  0.578600  0.935800  1
  C  C150  1  0.812800  0.421400  0.564200  1
  C  C151  1  0.608600  0.421400  0.064200  1
  C  C152  1  0.187200  0.578600  0.435800  1
  C  C153  1  0.366000  0.588000  0.991900  1
  C  C154  1  0.778000  0.412000  0.508100  1
  C  C155  1  0.634000  0.412000  0.008100  1
  C  C156  1  0.222000  0.588000  0.491900  1
  C  C157  1  0.547500  0.767600  0.895800  1
  C  C158  1  0.779900  0.232400  0.604200  1
  C  C159  1  0.452500  0.232400  0.104200  1
  C  C160  1  0.220100  0.767600  0.395800  1
  C  C161  1  0.423900  0.757800  0.899600  1
  C  C162  1  0.666100  0.242200  0.600400  1
  C  C163  1  0.576100  0.242200  0.100400  1
  C  C164  1  0.333900  0.757800  0.399600  1
  C  C165  1  0.373800  0.774400  0.947200  1
  C  C166  1  0.599400  0.225600  0.552800  1
  C  C167  1  0.626200  0.225600  0.052800  1
  C  C168  1  0.400600  0.774400  0.447200  1
  C  C169  1  0.438300  0.805400  0.995900  1
  C  C170  1  0.632900  0.194600  0.504100  1
  C  C171  1  0.561700  0.194600  0.004100  1
  C  C172  1  0.367100  0.805400  0.495900  1
  C  C173  1  0.555900  0.817800  0.998200  1
  C  C174  1  0.738100  0.182200  0.501800  1
  C  C175  1  0.444100  0.182200  0.001800  1
  C  C176  1  0.261900  0.817800  0.498200  1
  C  C177  1  0.608800  0.798200  0.950300  1
  C  C178  1  0.810600  0.201800  0.549700  1
  C  C179  1  0.391200  0.201800  0.049700  1
  C  C180  1  0.189400  0.798200  0.450300  1
  Cu  Cu181  1  0.710650  0.696840  0.725440  1
  Cu  Cu182  1  0.013810  0.303160  0.774560  1
  Cu  Cu183  1  0.289350  0.303160  0.274560  1
  Cu  Cu184  1  0.986190  0.696840  0.225440  1
  H  H185  1  0.427200  0.613200  0.649600  1
  H  H186  1  0.814000  0.386800  0.850400  1
  H  H187  1  0.572800  0.386800  0.350400  1
  H  H188  1  0.186000  0.613200  0.149600  1
  H  H189  1  0.452600  0.615000  0.715100  1
  H  H190  1  0.837600  0.385000  0.784900  1
  H  H191  1  0.547400  0.385000  0.284900  1
  H  H192  1  0.162400  0.615000  0.215100  1
  H  H193  1  0.527200  0.746000  0.647400  1
  H  H194  1  0.781200  0.254000  0.852600  1
  H  H195  1  0.472800  0.254000  0.352600  1
  H  H196  1  0.218800  0.746000  0.147400  1
  H  H197  1  0.437600  0.735000  0.696000  1
  H  H198  1  0.702600  0.265000  0.804000  1
  H  H199  1  0.562400  0.265000  0.304000  1
  H  H200  1  0.297400  0.735000  0.196000  1
  H  H201  1  0.726900  0.860000  0.700400  1
  H  H202  1  0.866900  0.140000  0.799600  1
  H  H203  1  0.273100  0.140000  0.299600  1
  H  H204  1  0.133100  0.860000  0.200400  1
  H  H205  1  0.603800  0.864400  0.693000  1
  H  H206  1  0.739400  0.135600  0.807000  1
  H  H207  1  0.396200  0.135600  0.307000  1
  H  H208  1  0.260600  0.864400  0.193000  1
  H  H209  1  0.502500  0.905800  0.776500  1
  H  H210  1  0.596700  0.094200  0.723500  1
  H  H211  1  0.497500  0.094200  0.223500  1
  H  H212  1  0.403300  0.905800  0.276500  1
  H  H213  1  0.523800  0.980600  0.864100  1
  H  H214  1  0.543200  0.019400  0.635900  1
  H  H215  1  0.476200  0.019400  0.135900  1
  H  H216  1  0.456800  0.980600  0.364100  1
  H  H217  1  0.701900  0.023600  0.917700  1
  H  H218  1  0.678300  0.976400  0.582300  1
  H  H219  1  0.298100  0.976400  0.082300  1
  H  H220  1  0.321700  0.023600  0.417700  1
  H  H221  1  0.837800  0.906600  0.794500  1
  H  H222  1  0.931200  0.093400  0.705500  1
  H  H223  1  0.162200  0.093400  0.205500  1
  H  H224  1  0.068800  0.906600  0.294500  1
  H  H225  1  0.948400  0.904400  0.872200  1
  H  H226  1  0.044000  0.095600  0.627800  1
  H  H227  1  0.051600  0.095600  0.127800  1
  H  H228  1  0.956000  0.904400  0.372200  1
  H  H229  1  0.014300  0.981000  0.842400  1
  H  H230  1  0.033300  0.019000  0.657600  1
  H  H231  1  0.985700  0.019000  0.157600  1
  H  H232  1  0.966700  0.981000  0.342400  1
  H  H233  1  0.094200  0.043000  0.931900  1
  H  H234  1  0.051200  0.957000  0.568100  1
  H  H235  1  0.905800  0.957000  0.068100  1
  H  H236  1  0.948800  0.043000  0.431900  1
  H  H237  1  0.024500  0.968600  0.963100  1
  H  H238  1  0.055900  0.031400  0.536900  1
  H  H239  1  0.975500  0.031400  0.036900  1
  H  H240  1  0.944100  0.968600  0.463100  1
  H  H241  1  0.238400  0.042200  0.871600  1
  H  H242  1  0.196200  0.957800  0.628400  1
  H  H243  1  0.761600  0.957800  0.128400  1
  H  H244  1  0.803800  0.042200  0.371600  1
  H  H245  1  0.318600  0.013200  0.909000  1
  H  H246  1  0.305400  0.986800  0.591000  1
  H  H247  1  0.681400  0.986800  0.091000  1
  H  H248  1  0.694600  0.013200  0.409000  1
  H  H249  1  0.337200  0.973200  0.814300  1
  H  H250  1  0.364000  0.026800  0.685700  1
  H  H251  1  0.662800  0.026800  0.185700  1
  H  H252  1  0.636000  0.973200  0.314300  1
  H  H253  1  0.270900  0.898200  0.845700  1
  H  H254  1  0.372700  0.101800  0.654300  1
  H  H255  1  0.729100  0.101800  0.154300  1
  H  H256  1  0.627300  0.898200  0.345700  1
  H  H257  1  0.997000  0.900400  0.731700  1
  H  H258  1  0.096600  0.099600  0.768300  1
  H  H259  1  0.003000  0.099600  0.268300  1
  H  H260  1  0.903400  0.900400  0.231700  1
  H  H261  1  0.077700  0.749000  0.617300  1
  H  H262  1  0.328700  0.251000  0.882700  1
  H  H263  1  0.922300  0.251000  0.382700  1
  H  H264  1  0.671300  0.749000  0.117300  1
  H  H265  1  0.250000  0.769000  0.671400  1
  H  H266  1  0.481000  0.231000  0.828600  1
  H  H267  1  0.750000  0.231000  0.328600  1
  H  H268  1  0.519000  0.769000  0.171400  1
  H  H269  1  0.297300  0.854000  0.753400  1
  H  H270  1  0.443300  0.146000  0.746600  1
  H  H271  1  0.702700  0.146000  0.246600  1
  H  H272  1  0.556700  0.854000  0.253400  1
  H  H273  1  0.880600  0.854000  0.645100  1
  H  H274  1  0.026600  0.146000  0.854900  1
  H  H275  1  0.119400  0.146000  0.354900  1
  H  H276  1  0.973400  0.854000  0.145100  1
  H  H277  1  0.928600  0.815600  0.594700  1
  H  H278  1  0.113000  0.184400  0.905300  1
  H  H279  1  0.071400  0.184400  0.405300  1
  H  H280  1  0.887000  0.815600  0.094700  1
  H  H281  1  0.687200  0.763400  0.610800  1
  H  H282  1  0.923800  0.236600  0.889200  1
  H  H283  1  0.312800  0.236600  0.389200  1
  H  H284  1  0.076200  0.763400  0.110800  1
  H  H285  1  0.752600  0.731400  0.564300  1
  H  H286  1  0.021200  0.268600  0.935700  1
  H  H287  1  0.247400  0.268600  0.435700  1
  H  H288  1  0.978800  0.731400  0.064300  1
  H  H289  1  0.568600  0.640600  0.582800  1
  H  H290  1  0.928000  0.359400  0.917200  1
  H  H291  1  0.431400  0.359400  0.417200  1
  H  H292  1  0.072000  0.640600  0.082800  1
  H  H293  1  0.667600  0.606800  0.590900  1
  H  H294  1  0.060800  0.393200  0.909100  1
  H  H295  1  0.332400  0.393200  0.409100  1
  H  H296  1  0.939200  0.606800  0.090900  1
  H  H297  1  0.538700  0.526400  0.711200  1
  H  H298  1  0.012300  0.473600  0.788800  1
  H  H299  1  0.461300  0.473600  0.288800  1
  H  H300  1  0.987700  0.526400  0.211200  1
  H  H301  1  0.550100  0.508600  0.646100  1
  H  H302  1  0.041500  0.491400  0.853900  1
  H  H303  1  0.449900  0.491400  0.353900  1
  H  H304  1  0.958500  0.508600  0.146100  1
  H  H305  1  0.705600  0.492400  0.698200  1
  H  H306  1  0.213200  0.507600  0.801800  1
  H  H307  1  0.294400  0.507600  0.301800  1
  H  H308  1  0.786800  0.492400  0.198200  1
  H  H309  1  0.752300  0.558400  0.655600  1
  H  H310  1  0.193900  0.441600  0.844400  1
  H  H311  1  0.247700  0.441600  0.344400  1
  H  H312  1  0.806100  0.558400  0.155600  1
  H  H313  1  0.901300  0.565800  0.732300  1
  H  H314  1  0.335500  0.434200  0.767700  1
  H  H315  1  0.098700  0.434200  0.267700  1
  H  H316  1  0.664500  0.565800  0.232300  1
  H  H317  1  0.931600  0.654800  0.724900  1
  H  H318  1  0.276800  0.345200  0.775100  1
  H  H319  1  0.068400  0.345200  0.275100  1
  H  H320  1  0.723200  0.654800  0.224900  1
  H  H321  1  0.038300  0.740000  0.801600  1
  H  H322  1  0.298300  0.260000  0.698400  1
  H  H323  1  0.961700  0.260000  0.198400  1
  H  H324  1  0.701700  0.740000  0.301600  1
  H  H325  1  0.002800  0.670400  0.966700  1
  H  H326  1  0.332400  0.329600  0.533300  1
  H  H327  1  0.997200  0.329600  0.033300  1
  H  H328  1  0.667600  0.670400  0.466700  1
  H  H329  1  0.868300  0.550800  0.934400  1
  H  H330  1  0.317500  0.449200  0.565600  1
  H  H331  1  0.131700  0.449200  0.065600  1
  H  H332  1  0.682500  0.550800  0.434400  1
  H  H333  1  0.816300  0.522600  0.836600  1
  H  H334  1  0.293700  0.477400  0.663400  1
  H  H335  1  0.183700  0.477400  0.163400  1
  H  H336  1  0.706300  0.522600  0.336600  1
  H  H337  1  0.013300  0.823000  0.959900  1
  H  H338  1  0.190300  0.177000  0.540100  1
  H  H339  1  0.986700  0.177000  0.040100  1
  H  H340  1  0.809700  0.823000  0.459900  1
  H  H341  1  0.105000  0.793800  0.987700  1
  H  H342  1  0.311200  0.206200  0.512300  1
  H  H343  1  0.895000  0.206200  0.012300  1
  H  H344  1  0.688800  0.793800  0.487700  1
  H  H345  1  0.166400  0.928200  0.998500  1
  H  H346  1  0.238200  0.071800  0.501500  1
  H  H347  1  0.833600  0.071800  0.001500  1
  H  H348  1  0.761800  0.928200  0.498500  1
  H  H349  1  0.250400  0.903600  0.958400  1
  H  H350  1  0.346800  0.096400  0.541600  1
  H  H351  1  0.749600  0.096400  0.041600  1
  H  H352  1  0.653200  0.903600  0.458400  1
  H  H353  1  0.830700  0.744000  0.819200  1
  H  H354  1  0.086700  0.256000  0.680800  1
  H  H355  1  0.169300  0.256000  0.180800  1
  H  H356  1  0.913300  0.744000  0.319200  1
  H  H357  1  0.770000  0.795000  0.809200  1
  H  H358  1  0.975000  0.205000  0.690800  1
  H  H359  1  0.230000  0.205000  0.190800  1
  H  H360  1  0.025000  0.795000  0.309200  1
  H  H361  1  0.670600  0.601400  0.949800  1
  H  H362  1  0.069200  0.398600  0.550200  1
  H  H363  1  0.329400  0.398600  0.050200  1
  H  H364  1  0.930800  0.601400  0.449800  1
  H  H365  1  0.328200  0.565400  0.906600  1
  H  H366  1  0.762800  0.434600  0.593400  1
  H  H367  1  0.671800  0.434600  0.093400  1
  H  H368  1  0.237200  0.565400  0.406600  1
  H  H369  1  0.288500  0.764200  0.948200  1
  H  H370  1  0.524300  0.235800  0.551800  1
  H  H371  1  0.711500  0.235800  0.051800  1
  H  H372  1  0.475700  0.764200  0.448200  1
  H  H373  1  0.602400  0.842200  0.033400  1
  H  H374  1  0.760200  0.157800  0.466600  1
  H  H375  1  0.397600  0.157800  0.966600  1
  H  H376  1  0.239800  0.842200  0.533400  1
  H  H377  1  0.201800  0.588400  0.670000  1
  H  H378  1  0.613400  0.411600  0.830000  1
  H  H379  1  0.798200  0.411600  0.330000  1
  H  H380  1  0.386600  0.588400  0.170000  1
  H  H381  1  0.111900  0.571400  0.711300  1
  H  H382  1  0.540500  0.428600  0.788700  1
  H  H383  1  0.888100  0.428600  0.288700  1
  H  H384  1  0.459500  0.571400  0.211300  1
  H  H385  1  0.624500  0.739400  0.753400  1
  H  H386  1  0.885100  0.260600  0.746600  1
  H  H387  1  0.375500  0.260600  0.246600  1
  H  H388  1  0.114900  0.739400  0.253400  1
  H  H389  1  0.823300  0.703600  0.669700  1
  H  H390  1  0.119700  0.296400  0.830300  1
  H  H391  1  0.176700  0.296400  0.330300  1
  H  H392  1  0.880300  0.703600  0.169700  1
  H  H393  1  0.723300  0.623600  0.759200  1
  H  H394  1  0.099700  0.376400  0.740800  1
  H  H395  1  0.276700  0.376400  0.240800  1
  H  H396  1  0.900300  0.623600  0.259200  1
  N  N397  1  0.595100  0.624800  0.667300  1
  N  N398  1  0.970300  0.375200  0.832700  1
  N  N399  1  0.404900  0.375200  0.332700  1
  N  N400  1  0.029700  0.624800  0.167300  1
  N  N401  1  0.602400  0.764600  0.727100  1
  N  N402  1  0.837800  0.235400  0.772900  1
  N  N403  1  0.397600  0.235400  0.272900  1
  N  N404  1  0.162200  0.764600  0.227100  1
  N  N405  1  0.152900  0.952000  0.917100  1
  N  N406  1  0.200900  0.048000  0.582900  1
  N  N407  1  0.847100  0.048000  0.082900  1
  N  N408  1  0.799100  0.952000  0.417100  1
  N  N409  1  0.819700  0.736600  0.644100  1
  N  N410  1  0.083100  0.263400  0.855900  1
  N  N411  1  0.180300  0.263400  0.355900  1
  N  N412  1  0.916900  0.736600  0.144100  1
  N  N413  1  0.761300  0.600200  0.737800  1
  N  N414  1  0.161100  0.399800  0.762200  1
  N  N415  1  0.238700  0.399800  0.262200  1
  N  N416  1  0.838900  0.600200  0.237800  1
  N  N417  1  0.667400  0.616800  0.056700  1
  N  N418  1  0.050600  0.383200  0.443300  1
  N  N419  1  0.332600  0.383200  0.943300  1
  N  N420  1  0.949400  0.616800  0.556700  1
  N  N421  1  0.528200  0.576600  0.858400  1
  N  N422  1  0.951600  0.423400  0.641600  1
  N  N423  1  0.471800  0.423400  0.141600  1
  N  N424  1  0.048400  0.576600  0.358400  1
  N  N425  1  0.248200  0.586400  0.002800  1
  N  N426  1  0.661800  0.413600  0.497200  1
  N  N427  1  0.751800  0.413600  0.997200  1
  N  N428  1  0.338200  0.586400  0.502800  1
  N  N429  1  0.350900  0.722400  0.849800  1
  N  N430  1  0.628500  0.277600  0.650200  1
  N  N431  1  0.649100  0.277600  0.150200  1
  N  N432  1  0.371500  0.722400  0.349800  1
  N  N433  1  0.386500  0.825800  0.047800  1
  N  N434  1  0.560700  0.174200  0.452200  1
  N  N435  1  0.613500  0.174200  0.952200  1
  N  N436  1  0.439300  0.825800  0.547800  1
  N  N437  1  0.732900  0.808000  0.956600  1
  N  N438  1  0.924900  0.192000  0.543400  1
  N  N439  1  0.267100  0.192000  0.043400  1
  N  N440  1  0.075100  0.808000  0.456600  1
  O  O441  1  0.884800  0.992600  0.891900  1
  O  O442  1  0.892200  0.007400  0.608100  1
  O  O443  1  0.115200  0.007400  0.108100  1
  O  O444  1  0.107800  0.992600  0.391900  1
  O  O445  1  0.166000  0.935000  0.796500  1
  O  O446  1  0.231000  0.065000  0.703500  1
  O  O447  1  0.834000  0.065000  0.203500  1
  O  O448  1  0.769000  0.935000  0.296500  1
  O  O449  1  0.106800  0.787400  0.902100  1
  O  O450  1  0.319400  0.212600  0.597900  1
  O  O451  1  0.893200  0.212600  0.097900  1
  O  O452  1  0.680600  0.787400  0.402100  1
  O  O453  1  0.786200  0.752600  0.797500  1
  O  O454  1  0.033600  0.247400  0.702500  1
  O  O455  1  0.213800  0.247400  0.202500  1
  O  O456  1  0.966400  0.752600  0.297500  1
  O  O457  1  0.427200  0.608400  0.089100  1
  O  O458  1  0.818800  0.391600  0.410900  1
  O  O459  1  0.572800  0.391600  0.910900  1
  O  O460  1  0.181200  0.608400  0.589100  1
  O  O461  1  0.644100  0.602200  0.106600  1
  O  O462  1  0.041900  0.397800  0.393400  1
  O  O463  1  0.355900  0.397800  0.893400  1
  O  O464  1  0.958100  0.602200  0.606600  1
  O  O465  1  0.762800  0.639600  0.039200  1
  O  O466  1  0.123200  0.360400  0.460800  1
  O  O467  1  0.237200  0.360400  0.960800  1
  O  O468  1  0.876800  0.639600  0.539200  1
  O  O469  1  0.627800  0.583200  0.845800  1
  O  O470  1  0.044600  0.416800  0.654200  1
  O  O471  1  0.372200  0.416800  0.154200  1
  O  O472  1  0.955400  0.583200  0.345800  1
  O  O473  1  0.449400  0.566000  0.822900  1
  O  O474  1  0.883400  0.434000  0.677100  1
  O  O475  1  0.550600  0.434000  0.177100  1
  O  O476  1  0.116600  0.566000  0.322900  1
  O  O477  1  0.171000  0.541000  0.975100  1
  O  O478  1  0.630000  0.459000  0.524900  1
  O  O479  1  0.829000  0.459000  0.024900  1
  O  O480  1  0.370000  0.541000  0.475100  1
  O  O481  1  0.237400  0.628800  0.038200  1
  O  O482  1  0.608600  0.371200  0.461800  1
  O  O483  1  0.762600  0.371200  0.961800  1
  O  O484  1  0.391400  0.628800  0.538200  1
  O  O485  1  0.593300  0.749200  0.851300  1
  O  O486  1  0.844100  0.250800  0.648700  1
  O  O487  1  0.406700  0.250800  0.148700  1
  O  O488  1  0.155900  0.749200  0.351300  1
  O  O489  1  0.383200  0.743200  0.802100  1
  O  O490  1  0.640000  0.256800  0.697900  1
  O  O491  1  0.616800  0.256800  0.197900  1
  O  O492  1  0.360000  0.743200  0.302100  1
  O  O493  1  0.257400  0.672800  0.857600  1
  O  O494  1  0.584600  0.327200  0.642400  1
  O  O495  1  0.742600  0.327200  0.142400  1
  O  O496  1  0.415400  0.672800  0.357600  1
  O  O497  1  0.281700  0.811800  0.046400  1
  O  O498  1  0.469900  0.188200  0.453600  1
  O  O499  1  0.718300  0.188200  0.953600  1
  O  O500  1  0.530100  0.811800  0.546400  1
  O  O501  1  0.450000  0.856400  0.089800  1
  O  O502  1  0.593600  0.143600  0.410200  1
  O  O503  1  0.550000  0.143600  0.910200  1
  O  O504  1  0.406400  0.856400  0.589800  1
  O  O505  1  0.783800  0.843600  0.999300  1
  O  O506  1  0.940200  0.156400  0.500700  1
  O  O507  1  0.216200  0.156400  0.000700  1
  O  O508  1  0.059800  0.843600  0.499300  1
  O  O509  1  0.779600  0.781400  0.919900  1
  O  O510  1  0.998200  0.218600  0.580100  1
  O  O511  1  0.220400  0.218600  0.080100  1
  O  O512  1  0.001800  0.781400  0.419900  1
  O  O513  1  0.188500  0.589000  0.713400  1
  O  O514  1  0.599500  0.411000  0.786600  1
  O  O515  1  0.811500  0.411000  0.286600  1
  O  O516  1  0.400500  0.589000  0.213400  1
