# generated using pymatgen
data_Fe2B5H44C51(NF)17
_symmetry_space_group_name_H-M   'P 1'
_cell_length_a   18.09240000
_cell_length_b   20.03110000
_cell_length_c   20.26325410
_cell_angle_alpha   60.37827306
_cell_angle_beta   79.70920068
_cell_angle_gamma   68.81200000
_symmetry_Int_Tables_number   1
_chemical_formula_structural   Fe2B5H44C51(NF)17
_chemical_formula_sum   'Fe8 B20 H176 C204 N68 F68'
_cell_volume   5952.31173957
_cell_formula_units_Z   4
loop_
 _symmetry_equiv_pos_site_id
 _symmetry_equiv_pos_as_xyz
  1  'x, y, z'
loop_
 _atom_site_type_symbol
 _atom_site_label
 _atom_site_symmetry_multiplicity
 _atom_site_fract_x
 _atom_site_fract_y
 _atom_site_fract_z
 _atom_site_occupancy
  B  B1  1  0.927300  0.873300  0.104400  1
  B  B2  1  0.572700  0.022300  0.104400  1
  B  B3  1  0.072700  0.126700  0.895600  1
  B  B4  1  0.427300  0.977700  0.895600  1
  B  B5  1  0.027200  0.166600  0.391000  1
  B  B6  1  0.472800  0.442400  0.391000  1
  B  B7  1  0.972800  0.833400  0.609000  1
  B  B8  1  0.527200  0.557600  0.609000  1
  B  B9  1  0.939500  0.399600  0.915000  1
  B  B10  1  0.560500  0.685400  0.915000  1
  B  B11  1  0.060500  0.600400  0.085000  1
  B  B12  1  0.439500  0.314600  0.085000  1
  B  B13  1  0.731600  0.083300  0.394400  1
  B  B14  1  0.768400  0.522300  0.394400  1
  B  B15  1  0.268400  0.916700  0.605600  1
  B  B16  1  0.231600  0.477700  0.605600  1
  B  B17  1  0.720000  0.141500  0.379000  1
  B  B18  1  0.780000  0.479500  0.379000  1
  B  B19  1  0.280000  0.858500  0.621000  1
  B  B20  1  0.220000  0.520500  0.621000  1
  C  C21  1  0.707500  0.216300  0.144000  1
  C  C22  1  0.792500  0.639700  0.144000  1
  C  C23  1  0.292500  0.783700  0.856000  1
  C  C24  1  0.207500  0.360300  0.856000  1
  C  C25  1  0.759900  0.207600  0.081600  1
  C  C26  1  0.740100  0.710800  0.081600  1
  C  C27  1  0.240100  0.792400  0.918400  1
  C  C28  1  0.259900  0.289200  0.918400  1
  C  C29  1  0.963000  0.256200  0.516800  1
  C  C30  1  0.537000  0.227000  0.516800  1
  C  C31  1  0.037000  0.743800  0.483200  1
  C  C32  1  0.463000  0.773000  0.483200  1
  C  C33  1  0.029000  0.241500  0.572200  1
  C  C34  1  0.471000  0.186300  0.572200  1
  C  C35  1  0.971000  0.758500  0.427800  1
  C  C36  1  0.529000  0.813700  0.427800  1
  C  C37  1  0.878000  0.211000  0.606600  1
  C  C38  1  0.622000  0.182400  0.606600  1
  C  C39  1  0.122000  0.789000  0.393400  1
  C  C40  1  0.378000  0.817600  0.393400  1
  C  C41  1  1.000000  0.213800  0.646800  1
  C  C42  1  0.500000  0.139400  0.646800  1
  C  C43  1  0.000000  0.786200  0.353200  1
  C  C44  1  0.500000  0.860600  0.353200  1
  C  C45  1  0.905400  0.257300  0.532800  1
  C  C46  1  0.594600  0.209900  0.532800  1
  C  C47  1  0.094600  0.742700  0.467200  1
  C  C48  1  0.405400  0.790100  0.467200  1
  C  C49  1  0.142000  0.715200  0.811400  1.0
  C  C50  1  0.358000  0.473400  0.811400  1.0
  C  C51  1  0.858000  0.284800  0.188600  1.0
  C  C52  1  0.642000  0.526600  0.188600  1.0
  C  C53  1  0.037700  0.343400  0.756000  1.0
  C  C54  1  0.462300  0.900600  0.756000  1.0
  C  C55  1  0.962300  0.656600  0.244000  1.0
  C  C56  1  0.537700  0.099400  0.244000  1.0
  C  C57  1  0.891000  0.099700  0.896800  1.0
  C  C58  1  0.609000  0.003500  0.896800  1.0
  C  C59  1  0.109000  0.900300  0.103200  1.0
  C  C60  1  0.391000  0.996500  0.103200  1.0
  C  C61  1  0.862300  0.182000  0.850000  1.0
  C  C62  1  0.637700  0.968000  0.850000  1.0
  C  C63  1  0.137700  0.818000  0.150000  1.0
  C  C64  1  0.362300  0.032000  0.150000  1.0
  C  C65  1  0.620200  0.317700  0.848800  1.0
  C  C66  1  0.879800  0.833500  0.848800  1.0
  C  C67  1  0.379800  0.682300  0.151200  1.0
  C  C68  1  0.120200  0.166500  0.151200  1.0
  C  C69  1  0.768700  0.368300  0.847800  1.0
  C  C70  1  0.731300  0.783900  0.847800  1.0
  C  C71  1  0.231300  0.631700  0.152200  1.0
  C  C72  1  0.268700  0.216100  0.152200  1.0
  C  C73  1  0.654400  0.268100  0.815000  1.0
  C  C74  1  0.845600  0.916900  0.815000  1.0
  C  C75  1  0.345600  0.731900  0.185000  1.0
  C  C76  1  0.154400  0.083100  0.185000  1.0
  C  C77  1  0.364800  0.272500  0.682000  1.0
  C  C78  1  0.135200  0.045500  0.682000  1.0
  C  C79  1  0.635200  0.727500  0.318000  1.0
  C  C80  1  0.864800  0.954500  0.318000  1.0
  C  C81  1  0.679700  0.151800  0.940200  1.0
  C  C82  1  0.820300  0.908000  0.940200  1.0
  C  C83  1  0.320300  0.848200  0.059800  1.0
  C  C84  1  0.179700  0.092000  0.059800  1.0
  C  C85  1  0.647500  0.377100  0.578600  1.0
  C  C86  1  0.852500  0.044300  0.578600  1.0
  C  C87  1  0.352500  0.622900  0.421400  1.0
  C  C88  1  0.147500  0.955700  0.421400  1.0
  C  C89  1  0.929200  0.052500  0.863400  1.0
  C  C90  1  0.570800  0.084100  0.863400  1.0
  C  C91  1  0.070800  0.947500  0.136600  1.0
  C  C92  1  0.429200  0.915900  0.136600  1.0
  C  C93  1  0.590300  0.343600  0.624000  1.0
  C  C94  1  0.909700  0.032400  0.624000  1.0
  C  C95  1  0.409700  0.656400  0.376000  1.0
  C  C96  1  0.090300  0.967600  0.376000  1.0
  C  C97  1  0.068300  0.819600  0.844600  1.0
  C  C98  1  0.431700  0.335800  0.844600  1.0
  C  C99  1  0.931700  0.180400  0.155400  1.0
  C  C100  1  0.568300  0.664200  0.155400  1.0
  C  C101  1  0.707700  0.519300  0.793200  1.0
  C  C102  1  0.792300  0.687500  0.793200  1.0
  C  C103  1  0.292300  0.480700  0.206800  1.0
  C  C104  1  0.207700  0.312500  0.206800  1.0
  C  C105  1  0.032900  0.851800  0.897200  1.0
  C  C106  1  0.467100  0.251000  0.897200  1.0
  C  C107  1  0.967100  0.148200  0.102800  1.0
  C  C108  1  0.532900  0.749000  0.102800  1.0
  C  C109  1  0.615300  0.285200  0.925800  1.0
  C  C110  1  0.884700  0.789000  0.925800  1.0
  C  C111  1  0.384700  0.714800  0.074200  1.0
  C  C112  1  0.115300  0.211000  0.074200  1.0
  C  C113  1  0.698400  0.594500  0.662800  1.0
  C  C114  1  0.801600  0.742700  0.662800  1.0
  C  C115  1  0.301600  0.405500  0.337200  1.0
  C  C116  1  0.198400  0.257300  0.337200  1.0
  C  C117  1  0.963800  0.333300  0.772000  1.0
  C  C118  1  0.536200  0.894700  0.772000  1.0
  C  C119  1  0.036200  0.666700  0.228000  1.0
  C  C120  1  0.463800  0.105300  0.228000  1.0
  C  C121  1  0.643900  0.204200  0.971600  1.0
  C  C122  1  0.856100  0.824200  0.971600  1.0
  C  C123  1  0.356100  0.795800  0.028400  1.0
  C  C124  1  0.143900  0.175800  0.028400  1.0
  C  C125  1  0.017700  0.397000  0.624400  1.0
  C  C126  1  0.482300  0.978600  0.624400  1.0
  C  C127  1  0.982300  0.603000  0.375600  1.0
  C  C128  1  0.517700  0.021400  0.375600  1.0
  C  C129  1  0.065100  0.376900  0.684800  1.0
  C  C130  1  0.434900  0.938300  0.684800  1.0
  C  C131  1  0.934900  0.623100  0.315200  1.0
  C  C132  1  0.565100  0.061700  0.315200  1.0
  C  C133  1  0.742800  0.448600  0.785600  1.0
  C  C134  1  0.757200  0.765800  0.785600  1.0
  C  C135  1  0.257200  0.551400  0.214400  1.0
  C  C136  1  0.242800  0.234200  0.214400  1.0
  C  C137  1  0.891200  0.404200  0.586800  1.0
  C  C138  1  0.608800  0.009000  0.586800  1.0
  C  C139  1  0.108800  0.595800  0.413200  1.0
  C  C140  1  0.391200  0.991000  0.413200  1.0
  C  C141  1  0.293600  0.266800  0.673200  1.0
  C  C142  1  0.206400  0.060000  0.673200  1.0
  C  C143  1  0.706400  0.733200  0.326800  1.0
  C  C144  1  0.793600  0.940000  0.326800  1.0
  C  C145  1  0.944200  0.386000  0.642800  1.0
  C  C146  1  0.555800  0.971200  0.642800  1.0
  C  C147  1  0.055800  0.614000  0.357200  1.0
  C  C148  1  0.444200  0.028800  0.357200  1.0
  C  C149  1  0.708500  0.369500  0.615400  1.0
  C  C150  1  0.791500  0.015100  0.615400  1.0
  C  C151  1  0.291500  0.630500  0.384600  1.0
  C  C152  1  0.208500  0.984900  0.384600  1.0
  C  C153  1  0.259400  0.217900  0.740800  1.0
  C  C154  1  0.240600  0.041300  0.740800  1.0
  C  C155  1  0.740600  0.782100  0.259200  1.0
  C  C156  1  0.759400  0.958700  0.259200  1.0
  C  C157  1  0.685200  0.183700  0.862200  1.0
  C  C158  1  0.814800  0.954100  0.862200  1.0
  C  C159  1  0.314800  0.816300  0.137800  1.0
  C  C160  1  0.185200  0.045900  0.137800  1.0
  C  C161  1  0.090000  0.853700  0.717200  1.0
  C  C162  1  0.410000  0.429100  0.717200  1.0
  C  C163  1  0.910000  0.146300  0.282800  1.0
  C  C164  1  0.590000  0.570900  0.282800  1.0
  C  C165  1  0.108700  0.736900  0.868600  1.0
  C  C166  1  0.391300  0.394500  0.868600  1.0
  C  C167  1  0.891300  0.263100  0.131400  1.0
  C  C168  1  0.608700  0.605500  0.131400  1.0
  C  C169  1  0.905000  0.162500  0.744600  1.0
  C  C170  1  0.595000  0.092900  0.744600  1.0
  C  C171  1  0.095000  0.837500  0.255400  1.0
  C  C172  1  0.405000  0.907100  0.255400  1.0
  C  C173  1  0.409200  0.317100  0.621800  1.0
  C  C174  1  0.090800  0.061100  0.621800  1.0
  C  C175  1  0.590800  0.682900  0.378200  1.0
  C  C176  1  0.909200  0.938900  0.378200  1.0
  C  C177  1  0.914800  0.198800  0.663200  1.0
  C  C178  1  0.585200  0.138000  0.663200  1.0
  C  C179  1  0.085200  0.801200  0.336800  1.0
  C  C180  1  0.414800  0.862000  0.336800  1.0
  C  C181  1  0.656700  0.302300  0.732200  1.0
  C  C182  1  0.843300  0.965500  0.732200  1.0
  C  C183  1  0.343300  0.697700  0.267800  1.0
  C  C184  1  0.156700  0.034500  0.267800  1.0
  C  C185  1  0.359900  0.191400  0.812600  1.0
  C  C186  1  0.140100  0.996000  0.812600  1.0
  C  C187  1  0.640100  0.808600  0.187400  1.0
  C  C188  1  0.859900  0.004000  0.187400  1.0
  C  C189  1  0.733200  0.520900  0.653600  1.0
  C  C190  1  0.766800  0.825500  0.653600  1.0
  C  C191  1  0.266800  0.479100  0.346400  1.0
  C  C192  1  0.233200  0.174500  0.346400  1.0
  C  C193  1  0.131700  0.773600  0.737400  1.0
  C  C194  1  0.368300  0.489000  0.737400  1.0
  C  C195  1  0.868300  0.226400  0.262600  1.0
  C  C196  1  0.631700  0.511000  0.262600  1.0
  C  C197  1  0.683600  0.592700  0.731000  1.0
  C  C198  1  0.816400  0.676300  0.731000  1.0
  C  C199  1  0.316400  0.407300  0.269000  1.0
  C  C200  1  0.183600  0.323700  0.269000  1.0
  C  C201  1  0.292200  0.181000  0.810000  1.0
  C  C202  1  0.207800  0.009000  0.810000  1.0
  C  C203  1  0.707800  0.819000  0.190000  1.0
  C  C204  1  0.792200  0.991000  0.190000  1.0
  C  C205  1  0.970000  0.225000  0.623200  1.0
  C  C206  1  0.530000  0.151800  0.623200  1.0
  C  C207  1  0.030000  0.775000  0.376800  1.0
  C  C208  1  0.470000  0.848200  0.376800  1.0
  C  C209  1  0.835000  0.240600  0.545400  1.0
  C  C210  1  0.665000  0.214000  0.545400  1.0
  C  C211  1  0.165000  0.759400  0.454600  1.0
  C  C212  1  0.335000  0.786000  0.454600  1.0
  C  C213  1  0.837000  0.211400  0.628400  1.0
  C  C214  1  0.663000  0.160200  0.628400  1.0
  C  C215  1  0.163000  0.788600  0.371600  1.0
  C  C216  1  0.337000  0.839800  0.371600  1.0
  C  C217  1  0.975000  0.265600  0.541600  1.0
  C  C218  1  0.525000  0.192800  0.541600  1.0
  C  C219  1  0.025000  0.734400  0.458400  1.0
  C  C220  1  0.475000  0.807200  0.458400  1.0
  C  C221  1  0.902000  0.255700  0.506400  1.0
  C  C222  1  0.598000  0.237900  0.506400  1.0
  C  C223  1  0.098000  0.744300  0.493600  1.0
  C  C224  1  0.402000  0.762100  0.493600  1.0
  F  F225  1  0.956700  0.852480  0.172640  1
  F  F226  1  0.543300  0.974880  0.172640  1
  F  F227  1  0.043300  0.147520  0.827360  1
  F  F228  1  0.456700  0.025120  0.827360  1
  F  F229  1  0.986900  0.842020  0.063360  1
  F  F230  1  0.513100  0.094620  0.063360  1
  F  F231  1  0.013100  0.157980  0.936640  1
  F  F232  1  0.486900  0.905380  0.936640  1
  F  F233  1  0.904600  0.956850  0.059100  1
  F  F234  1  0.595400  0.984050  0.059100  1
  F  F235  1  0.095400  0.043150  0.940900  1
  F  F236  1  0.404600  0.015950  0.940900  1
  F  F237  1  0.865000  0.845280  0.116040  1
  F  F238  1  0.635000  0.038680  0.116040  1
  F  F239  1  0.135000  0.154720  0.883960  1
  F  F240  1  0.365000  0.961320  0.883960  1
  F  F241  1  0.973500  0.126100  0.432400  1
  F  F242  1  0.526500  0.441500  0.432400  1
  F  F243  1  0.026500  0.873900  0.567600  1
  F  F244  1  0.473500  0.558500  0.567600  1
  F  F245  1  0.062300  0.146680  0.335040  1
  F  F246  1  0.437700  0.518280  0.335040  1
  F  F247  1  0.937700  0.853320  0.664960  1
  F  F248  1  0.562300  0.481720  0.664960  1
  F  F249  1  0.991200  0.247400  0.361600  1
  F  F250  1  0.508800  0.391000  0.361600  1
  F  F251  1  0.008800  0.752600  0.638400  1
  F  F252  1  0.491200  0.609000  0.638400  1
  F  F253  1  0.085500  0.140200  0.443800  1
  F  F254  1  0.414500  0.416000  0.443800  1
  F  F255  1  0.914500  0.859800  0.556200  1
  F  F256  1  0.585500  0.584000  0.556200  1
  F  F257  1  0.937300  0.412200  0.979200  1
  F  F258  1  0.562700  0.608600  0.979200  1
  F  F259  1  0.062700  0.587800  0.020800  1
  F  F260  1  0.437300  0.391400  0.020800  1
  F  F261  1  0.892600  0.469900  0.858200  1
  F  F262  1  0.607400  0.671900  0.858200  1
  F  F263  1  0.107400  0.530100  0.141800  1
  F  F264  1  0.392600  0.328100  0.141800  1
  F  F265  1  0.913200  0.336000  0.938200  1
  F  F266  1  0.586800  0.725800  0.938200  1
  F  F267  1  0.086800  0.664000  0.061800  1
  F  F268  1  0.413200  0.274200  0.061800  1
  F  F269  1  0.016100  0.384400  0.893400  1
  F  F270  1  0.483900  0.722200  0.893400  1
  F  F271  1  0.983900  0.615600  0.106600  1
  F  F272  1  0.516100  0.277800  0.106600  1
  F  F273  1  0.729200  0.112180  0.318640  1
  F  F274  1  0.770800  0.569180  0.318640  1
  F  F275  1  0.270800  0.887820  0.681360  1
  F  F276  1  0.229200  0.430820  0.681360  1
  F  F277  1  0.669100  0.118500  0.420600  1
  F  F278  1  0.830900  0.460900  0.420600  1
  F  F279  1  0.330900  0.881500  0.579400  1
  F  F280  1  0.169100  0.539100  0.579400  1
  F  F281  1  0.792700  0.080900  0.420600  1
  F  F282  1  0.707300  0.498500  0.420600  1
  F  F283  1  0.207300  0.919100  0.579400  1
  F  F284  1  0.292700  0.501500  0.579400  1
  F  F285  1  0.716400  0.001700  0.437800  1
  F  F286  1  0.783600  0.560500  0.437800  1
  F  F287  1  0.283600  0.998300  0.562200  1
  F  F288  1  0.216400  0.439500  0.562200  1
  F  F289  1  0.696200  0.219700  0.358000  1
  F  F290  1  0.803800  0.422300  0.358000  1
  F  F291  1  0.303800  0.780300  0.642000  1
  F  F292  1  0.196200  0.577700  0.642000  1
  Fe  Fe293  1  0.812440  0.339320  0.724320  1.0
  Fe  Fe294  1  0.687560  0.936360  0.724320  1.0
  Fe  Fe295  1  0.187560  0.660680  0.275680  1.0
  Fe  Fe296  1  0.312440  0.063640  0.275680  1.0
  Fe  Fe297  1  0.999810  0.992220  0.751880  1.0
  Fe  Fe298  1  0.500190  0.255900  0.751880  1.0
  Fe  Fe299  1  0.000190  0.007780  0.248120  1.0
  Fe  Fe300  1  0.499810  0.744100  0.248120  1.0
  H  H301  1  0.704500  0.164200  0.182200  1
  H  H302  1  0.795500  0.653600  0.182200  1
  H  H303  1  0.295500  0.835800  0.817800  1
  H  H304  1  0.204500  0.346400  0.817800  1
  H  H305  1  0.655500  0.251900  0.124200  1
  H  H306  1  0.844500  0.623900  0.124200  1
  H  H307  1  0.344500  0.748100  0.875800  1
  H  H308  1  0.155500  0.376100  0.875800  1
  H  H309  1  0.728700  0.238600  0.165800  1
  H  H310  1  0.771300  0.595600  0.165800  1
  H  H311  1  0.271300  0.761400  0.834200  1
  H  H312  1  0.228700  0.404400  0.834200  1
  H  H313  1  0.986400  0.274200  0.469000  1
  H  H314  1  0.513600  0.256800  0.469000  1
  H  H315  1  0.013600  0.725800  0.531000  1
  H  H316  1  0.486400  0.743200  0.531000  1
  H  H317  1  0.077600  0.250000  0.556800  1
  H  H318  1  0.422400  0.193200  0.556800  1
  H  H319  1  0.922400  0.750000  0.443200  1
  H  H320  1  0.577600  0.806800  0.443200  1
  H  H321  1  0.028600  0.204500  0.685800  1
  H  H322  1  0.471400  0.109700  0.685800  1
  H  H323  1  0.971400  0.795500  0.314200  1
  H  H324  1  0.528600  0.890300  0.314200  1
  H  H325  1  0.833400  0.194600  0.619200  1
  H  H326  1  0.666600  0.186200  0.619200  1
  H  H327  1  0.166600  0.805400  0.380800  1
  H  H328  1  0.333400  0.813800  0.380800  1
  H  H329  1  0.907200  0.278100  0.480400  1
  H  H330  1  0.592800  0.241500  0.480400  1
  H  H331  1  0.092800  0.721900  0.519600  1
  H  H332  1  0.407200  0.758500  0.519600  1
  H  H333  1  0.875700  0.272200  0.462800  1
  H  H334  1  0.624300  0.265000  0.462800  1
  H  H335  1  0.124300  0.727800  0.537200  1
  H  H336  1  0.375700  0.735000  0.537200  1
  H  H337  1  0.966500  0.947300  0.953000  1.0
  H  H338  1  0.533500  0.099700  0.953000  1.0
  H  H339  1  0.033500  0.052700  0.047000  1.0
  H  H340  1  0.466500  0.900300  0.047000  1.0
  H  H341  1  0.170900  0.661600  0.823600  1.0
  H  H342  1  0.329100  0.514800  0.823600  1.0
  H  H343  1  0.829100  0.338400  0.176400  1.0
  H  H344  1  0.670900  0.485200  0.176400  1.0
  H  H345  1  0.069800  0.326200  0.796200  1.0
  H  H346  1  0.430200  0.877600  0.796200  1.0
  H  H347  1  0.930200  0.673800  0.203800  1.0
  H  H348  1  0.569800  0.122400  0.203800  1.0
  H  H349  1  0.884400  0.077500  0.949200  1.0
  H  H350  1  0.615600  0.973300  0.949200  1.0
  H  H351  1  0.115600  0.922500  0.050800  1.0
  H  H352  1  0.384400  0.026700  0.050800  1.0
  H  H353  1  0.827100  0.218300  0.928000  1.0
  H  H354  1  0.672900  0.853700  0.928000  1.0
  H  H355  1  0.172900  0.781700  0.072000  1.0
  H  H356  1  0.327100  0.146300  0.072000  1.0
  H  H357  1  0.600500  0.373500  0.818800  1.0
  H  H358  1  0.899500  0.807700  0.818800  1.0
  H  H359  1  0.399500  0.626500  0.181200  1.0
  H  H360  1  0.100500  0.192300  0.181200  1.0
  H  H361  1  0.769400  0.421100  0.527200  1.0
  H  H362  1  0.730600  0.051700  0.527200  1.0
  H  H363  1  0.230600  0.578900  0.472800  1.0
  H  H364  1  0.269400  0.948300  0.472800  1.0
  H  H365  1  0.763700  0.357800  0.898200  1.0
  H  H366  1  0.736300  0.744000  0.898200  1.0
  H  H367  1  0.236300  0.642200  0.101800  1.0
  H  H368  1  0.263700  0.256000  0.101800  1.0
  H  H369  1  0.514300  0.383700  0.545000  1.0
  H  H370  1  0.985700  0.071300  0.545000  1.0
  H  H371  1  0.485700  0.616300  0.455000  1.0
  H  H372  1  0.014300  0.928700  0.455000  1.0
  H  H373  1  0.699700  0.096200  0.971400  1.0
  H  H374  1  0.800300  0.932400  0.971400  1.0
  H  H375  1  0.300300  0.903800  0.028600  1.0
  H  H376  1  0.199700  0.067600  0.028600  1.0
  H  H377  1  0.644400  0.403500  0.525800  1.0
  H  H378  1  0.855600  0.070700  0.525800  1.0
  H  H379  1  0.355600  0.596500  0.474200  1.0
  H  H380  1  0.144400  0.929300  0.474200  1.0
  H  H381  1  0.700900  0.515900  0.841400  1.0
  H  H382  1  0.799100  0.642700  0.841400  1.0
  H  H383  1  0.299100  0.484100  0.158600  1.0
  H  H384  1  0.200900  0.357300  0.158600  1.0
  H  H385  1  0.035000  0.820000  0.949600  1.0
  H  H386  1  0.465000  0.230400  0.949600  1.0
  H  H387  1  0.965000  0.180000  0.050400  1.0
  H  H388  1  0.535000  0.769600  0.050400  1.0
  H  H389  1  0.591700  0.319400  0.947600  1.0
  H  H390  1  0.908300  0.733000  0.947600  1.0
  H  H391  1  0.408300  0.680600  0.052400  1.0
  H  H392  1  0.091700  0.267000  0.052400  1.0
  H  H393  1  0.686100  0.644400  0.619600  1.0
  H  H394  1  0.813900  0.736000  0.619600  1.0
  H  H395  1  0.313900  0.355600  0.380400  1.0
  H  H396  1  0.186100  0.264000  0.380400  1.0
  H  H397  1  0.946700  0.311500  0.822200  1.0
  H  H398  1  0.553300  0.866300  0.822200  1.0
  H  H399  1  0.053300  0.688500  0.177800  1.0
  H  H400  1  0.446700  0.133700  0.177800  1.0
  H  H401  1  0.639600  0.183600  0.024000  1.0
  H  H402  1  0.860400  0.792400  0.024000  1.0
  H  H403  1  0.360400  0.816400  0.976000  1.0
  H  H404  1  0.139600  0.207600  0.976000  1.0
  H  H405  1  0.035600  0.416800  0.574400  1.0
  H  H406  1  0.464400  0.008800  0.574400  1.0
  H  H407  1  0.964400  0.583200  0.425600  1.0
  H  H408  1  0.535600  0.991200  0.425600  1.0
  H  H409  1  0.113400  0.386700  0.675200  1.0
  H  H410  1  0.386600  0.938100  0.675200  1.0
  H  H411  1  0.886600  0.613300  0.324800  1.0
  H  H412  1  0.613400  0.061900  0.324800  1.0
  H  H413  1  0.900200  0.428500  0.534800  1.0
  H  H414  1  0.599800  0.036700  0.534800  1.0
  H  H415  1  0.099800  0.571500  0.465200  1.0
  H  H416  1  0.400200  0.963300  0.465200  1.0
  H  H417  1  0.269500  0.293300  0.626200  1.0
  H  H418  1  0.230500  0.080500  0.626200  1.0
  H  H419  1  0.730500  0.706700  0.373800  1.0
  H  H420  1  0.769500  0.919500  0.373800  1.0
  H  H421  1  0.212400  0.211000  0.737200  1.0
  H  H422  1  0.287600  0.051800  0.737200  1.0
  H  H423  1  0.787600  0.789000  0.262800  1.0
  H  H424  1  0.712400  0.948200  0.262800  1.0
  H  H425  1  0.709200  0.149400  0.840600  1.0
  H  H426  1  0.790800  0.010000  0.840600  1.0
  H  H427  1  0.290800  0.850600  0.159400  1.0
  H  H428  1  0.209200  0.990000  0.159400  1.0
  H  H429  1  0.082400  0.891600  0.666200  1.0
  H  H430  1  0.417600  0.442200  0.666200  1.0
  H  H431  1  0.917600  0.108400  0.333800  1.0
  H  H432  1  0.582400  0.557800  0.333800  1.0
  H  H433  1  0.113000  0.698700  0.919600  1.0
  H  H434  1  0.387000  0.381700  0.919600  1.0
  H  H435  1  0.887000  0.301300  0.080400  1.0
  H  H436  1  0.613000  0.618300  0.080400  1.0
  H  H437  1  0.392500  0.346200  0.571600  1.0
  H  H438  1  0.107500  0.082200  0.571600  1.0
  H  H439  1  0.607500  0.653800  0.428400  1.0
  H  H440  1  0.892500  0.917800  0.428400  1.0
  H  H441  1  0.384000  0.165100  0.859800  1.0
  H  H442  1  0.116000  0.975100  0.859800  1.0
  H  H443  1  0.616000  0.834900  0.140200  1.0
  H  H444  1  0.884000  0.024900  0.140200  1.0
  H  H445  1  0.739400  0.523500  0.606000  1.0
  H  H446  1  0.760600  0.870500  0.606000  1.0
  H  H447  1  0.260600  0.476500  0.394000  1.0
  H  H448  1  0.239400  0.129500  0.394000  1.0
  H  H449  1  0.153500  0.758800  0.699600  1.0
  H  H450  1  0.346500  0.541600  0.699600  1.0
  H  H451  1  0.846500  0.241200  0.300400  1.0
  H  H452  1  0.653500  0.458400  0.300400  1.0
  H  H453  1  0.658000  0.639900  0.735200  1.0
  H  H454  1  0.842000  0.624900  0.735200  1.0
  H  H455  1  0.342000  0.360100  0.264800  1.0
  H  H456  1  0.158000  0.375100  0.264800  1.0
  H  H457  1  0.268600  0.149900  0.853600  1.0
  H  H458  1  0.231400  0.996500  0.853600  1.0
  H  H459  1  0.731400  0.850100  0.146400  1.0
  H  H460  1  0.768600  0.003500  0.146400  1.0
  H  H461  1  0.011900  0.217100  0.649600  1.0
  H  H462  1  0.488100  0.133300  0.649600  1.0
  H  H463  1  0.988100  0.782900  0.350400  1.0
  H  H464  1  0.511900  0.866700  0.350400  1.0
  H  H465  1  0.799600  0.245700  0.513800  1.0
  H  H466  1  0.700400  0.240500  0.513800  1.0
  H  H467  1  0.200400  0.754300  0.486200  1.0
  H  H468  1  0.299600  0.759500  0.486200  1.0
  H  H469  1  0.793700  0.200900  0.659000  1.0
  H  H470  1  0.706300  0.140100  0.659000  1.0
  H  H471  1  0.206300  0.799100  0.341000  1.0
  H  H472  1  0.293700  0.859900  0.341000  1.0
  H  H473  1  0.011500  0.288600  0.507800  1.0
  H  H474  1  0.488500  0.203600  0.507800  1.0
  H  H475  1  0.988500  0.711400  0.492200  1.0
  H  H476  1  0.511500  0.796400  0.492200  1.0
  N  N477  1  0.800700  0.197700  0.036400  1
  N  N478  1  0.699300  0.765900  0.036400  1
  N  N479  1  0.199300  0.802300  0.963600  1
  N  N480  1  0.300700  0.234100  0.963600  1
  N  N481  1  0.396500  0.237400  0.751800  1.0
  N  N482  1  0.103500  0.010800  0.751800  1.0
  N  N483  1  0.603500  0.762600  0.248200  1.0
  N  N484  1  0.896500  0.989200  0.248200  1.0
  N  N485  1  0.866400  0.215600  0.773000  1.0
  N  N486  1  0.633600  0.011400  0.773000  1.0
  N  N487  1  0.133600  0.784400  0.227000  1.0
  N  N488  1  0.366400  0.988600  0.227000  1.0
  N  N489  1  0.997600  0.930200  0.863400  1.0
  N  N490  1  0.502400  0.206400  0.863400  1.0
  N  N491  1  0.002400  0.069800  0.136600  1.0
  N  N492  1  0.497600  0.793600  0.136600  1.0
  N  N493  1  0.714000  0.334000  0.692200  1.0
  N  N494  1  0.786000  0.973800  0.692200  1.0
  N  N495  1  0.286000  0.666000  0.307800  1.0
  N  N496  1  0.214000  0.026200  0.307800  1.0
  N  N497  1  0.964800  0.971330  0.904140  1.0
  N  N498  1  0.535200  0.124530  0.904140  1.0
  N  N499  1  0.035200  0.028670  0.095860  1.0
  N  N500  1  0.464800  0.875470  0.095860  1.0
  N  N501  1  0.755900  0.448800  0.717800  1.0
  N  N502  1  0.744100  0.833400  0.717800  1.0
  N  N503  1  0.244100  0.551200  0.282200  1.0
  N  N504  1  0.255900  0.166600  0.282200  1.0
  N  N505  1  0.916800  0.354100  0.717400  1.0
  N  N506  1  0.583200  0.928500  0.717400  1.0
  N  N507  1  0.083200  0.645900  0.282600  1.0
  N  N508  1  0.416800  0.071500  0.282600  1.0
  N  N509  1  0.935900  0.083220  0.785560  1.0
  N  N510  1  0.564100  0.131220  0.785560  1.0
  N  N511  1  0.064100  0.916780  0.214440  1.0
  N  N512  1  0.435900  0.868780  0.214440  1.0
  N  N513  1  0.595200  0.301720  0.701960  1.0
  N  N514  1  0.904800  0.996320  0.701960  1.0
  N  N515  1  0.404800  0.698280  0.298040  1.0
  N  N516  1  0.095200  0.003680  0.298040  1.0
  N  N517  1  0.829100  0.382300  0.618600  1.0
  N  N518  1  0.670900  0.999100  0.618600  1.0
  N  N519  1  0.170900  0.617700  0.381400  1.0
  N  N520  1  0.329100  0.000900  0.381400  1.0
  N  N521  1  0.060300  0.877500  0.770600  1.0
  N  N522  1  0.439700  0.351900  0.770600  1.0
  N  N523  1  0.939700  0.122500  0.229400  1.0
  N  N524  1  0.560300  0.648100  0.229400  1.0
  N  N525  1  0.799400  0.312100  0.828200  1.0
  N  N526  1  0.700600  0.859700  0.828200  1.0
  N  N527  1  0.200600  0.687900  0.171800  1.0
  N  N528  1  0.299400  0.140300  0.171800  1.0
  N  N529  1  0.829000  0.234100  0.880000  1.0
  N  N530  1  0.671000  0.885900  0.880000  1.0
  N  N531  1  0.171000  0.765900  0.120000  1.0
  N  N532  1  0.329000  0.114100  0.120000  1.0
  N  N533  1  0.474900  0.313800  0.642800  1.0
  N  N534  1  0.025100  0.043400  0.642800  1.0
  N  N535  1  0.525100  0.686200  0.357200  1.0
  N  N536  1  0.974900  0.956600  0.357200  1.0
  N  N537  1  0.768700  0.396500  0.576000  1.0
  N  N538  1  0.731300  0.027500  0.576000  1.0
  N  N539  1  0.231300  0.603500  0.424000  1.0
  N  N540  1  0.268700  0.972500  0.424000  1.0
  N  N541  1  0.524400  0.354000  0.592800  1.0
  N  N542  1  0.975600  0.053200  0.592800  1.0
  N  N543  1  0.475600  0.646000  0.407200  1.0
  N  N544  1  0.024400  0.946800  0.407200  1.0
