# generated using pymatgen
data_Fe4B8H78C92N34F37
_symmetry_space_group_name_H-M   'P 1'
_cell_length_a   17.47900000
_cell_length_b   18.61400000
_cell_length_c   20.09857361
_cell_angle_alpha   81.95785533
_cell_angle_beta   64.22540511
_cell_angle_gamma   71.23200000
_symmetry_Int_Tables_number   1
_chemical_formula_structural   Fe4B8H78C92N34F37
_chemical_formula_sum   'Fe8 B16 H156 C184 N68 F74'
_cell_volume   5575.48265291
_cell_formula_units_Z   2
loop_
 _symmetry_equiv_pos_site_id
 _symmetry_equiv_pos_as_xyz
  1  'x, y, z'
loop_
 _atom_site_type_symbol
 _atom_site_label
 _atom_site_symmetry_multiplicity
 _atom_site_fract_x
 _atom_site_fract_y
 _atom_site_fract_z
 _atom_site_occupancy
  B  B1  1  0.061100  0.564400  0.101800  1
  B  B2  1  0.837100  0.935600  0.101800  1
  B  B3  1  0.938900  0.435600  0.898200  1
  B  B4  1  0.162900  0.064400  0.898200  1
  B  B5  1  0.412300  0.469200  0.401200  1
  B  B6  1  0.186500  0.030800  0.401200  1
  B  B7  1  0.587700  0.530800  0.598800  1
  B  B8  1  0.813500  0.969200  0.598800  1
  B  B9  1  0.136000  0.729500  0.380000  1
  B  B10  1  0.484000  0.770500  0.380000  1
  B  B11  1  0.864000  0.270500  0.620000  1
  B  B12  1  0.516000  0.229500  0.620000  1
  B  B13  1  0.508400  0.250000  0.983200  1
  B  B14  1  0.491600  0.750000  0.016800  1
  B  B15  1  0.742700  0.784000  0.492600  0.5
  F  F16  1  0.742700  0.784000  0.492600  0.5
  B  B17  1  0.764700  0.716000  0.492600  0.5
  F  F18  1  0.764700  0.716000  0.492600  0.5
  B  B19  1  0.257300  0.216000  0.507400  0.5
  F  F20  1  0.257300  0.216000  0.507400  0.5
  B  B21  1  0.235300  0.284000  0.507400  0.5
  F  F22  1  0.235300  0.284000  0.507400  0.5
  C  C23  1  0.617500  0.789400  0.144800  1
  C  C24  1  0.237700  0.710600  0.144800  1
  C  C25  1  0.382500  0.210600  0.855200  1
  C  C26  1  0.762300  0.289400  0.855200  1
  C  C27  1  0.688100  0.737700  0.086400  1
  C  C28  1  0.225500  0.762300  0.086400  1
  C  C29  1  0.311900  0.262300  0.913600  1
  C  C30  1  0.774500  0.237700  0.913600  1
  C  C31  1  0.840000  0.482100  0.438200  1.0
  C  C32  1  0.721800  0.017900  0.438200  1.0
  C  C33  1  0.160000  0.517900  0.561800  1.0
  C  C34  1  0.278200  0.982100  0.561800  1.0
  C  C35  1  0.373600  0.177700  0.176800  1.0
  C  C36  1  0.449600  0.322300  0.176800  1.0
  C  C37  1  0.626400  0.822300  0.823200  1.0
  C  C38  1  0.550400  0.677700  0.823200  1.0
  C  C39  1  0.577500  0.980900  0.278000  1.0
  C  C40  1  0.144500  0.519100  0.278000  1.0
  C  C41  1  0.422500  0.019100  0.722000  1.0
  C  C42  1  0.855500  0.480900  0.722000  1.0
  C  C43  1  0.285900  0.223400  0.195800  1.0
  C  C44  1  0.518300  0.276600  0.195800  1.0
  C  C45  1  0.714100  0.776600  0.804200  1.0
  C  C46  1  0.481700  0.723400  0.804200  1.0
  C  C47  1  0.803900  0.645700  0.189800  1.0
  C  C48  1  0.006300  0.854300  0.189800  1.0
  C  C49  1  0.196100  0.354300  0.810200  1.0
  C  C50  1  0.993700  0.145700  0.810200  1.0
  C  C51  1  0.505100  0.033900  0.400400  1.0
  C  C52  1  0.094500  0.466100  0.400400  1.0
  C  C53  1  0.494900  0.966100  0.599600  1.0
  C  C54  1  0.905500  0.533900  0.599600  1.0
  C  C55  1  0.477300  0.635200  0.204800  1.0
  C  C56  1  0.317900  0.864800  0.204800  1.0
  C  C57  1  0.522700  0.364800  0.795200  1.0
  C  C58  1  0.682100  0.135200  0.795200  1.0
  C  C59  1  0.630800  0.570600  0.167400  1.0
  C  C60  1  0.201800  0.929400  0.167400  1.0
  C  C61  1  0.369200  0.429400  0.832600  1.0
  C  C62  1  0.798200  0.070600  0.832600  1.0
  C  C63  1  0.256100  0.260700  0.137800  1.0
  C  C64  1  0.606100  0.239300  0.137800  1.0
  C  C65  1  0.743900  0.739300  0.862200  1.0
  C  C66  1  0.393900  0.760700  0.862200  1.0
  C  C67  1  0.679900  0.354900  0.275400  1.0
  C  C68  1  0.044700  0.145100  0.275400  1.0
  C  C69  1  0.320100  0.645100  0.724600  1.0
  C  C70  1  0.955300  0.854900  0.724600  1.0
  C  C71  1  0.610900  0.365400  0.423600  1.0
  C  C72  1  0.965500  0.134600  0.423600  1.0
  C  C73  1  0.389100  0.634600  0.576400  1.0
  C  C74  1  0.034500  0.865400  0.576400  1.0
  C  C75  1  0.608900  0.306800  0.390000  1.0
  C  C76  1  0.001100  0.193200  0.390000  1.0
  C  C77  1  0.391100  0.693200  0.610000  1.0
  C  C78  1  0.998900  0.806800  0.610000  1.0
  C  C79  1  0.539200  0.591000  0.291800  1.0
  C  C80  1  0.169000  0.909000  0.291800  1.0
  C  C81  1  0.460800  0.409000  0.708200  1.0
  C  C82  1  0.831000  0.091000  0.708200  1.0
  C  C83  1  0.721700  0.537600  0.112000  1.0
  C  C84  1  0.166300  0.962400  0.112000  1.0
  C  C85  1  0.278300  0.462400  0.888000  1.0
  C  C86  1  0.833700  0.037600  0.888000  1.0
  C  C87  1  0.542400  0.091800  0.373200  1.0
  C  C88  1  0.084400  0.408200  0.373200  1.0
  C  C89  1  0.457600  0.908200  0.626800  1.0
  C  C90  1  0.915600  0.591800  0.626800  1.0
  C  C91  1  0.676300  0.389700  0.089800  1.0
  C  C92  1  0.233900  0.110300  0.089800  1.0
  C  C93  1  0.323700  0.610300  0.910200  1.0
  C  C94  1  0.766100  0.889700  0.910200  1.0
  C  C95  1  0.561000  0.606700  0.147000  1.0
  C  C96  1  0.292000  0.893300  0.147000  1.0
  C  C97  1  0.439000  0.393300  0.853000  1.0
  C  C98  1  0.708000  0.106700  0.853000  1.0
  C  C99  1  0.710900  0.353400  0.194200  1.0
  C  C100  1  0.094900  0.146600  0.194200  1.0
  C  C101  1  0.289100  0.646600  0.805800  1.0
  C  C102  1  0.905100  0.853400  0.805800  1.0
  C  C103  1  0.648800  0.388400  0.165800  1.0
  C  C104  1  0.185400  0.111600  0.165800  1.0
  C  C105  1  0.351200  0.611600  0.834200  1.0
  C  C106  1  0.814600  0.888400  0.834200  1.0
  C  C107  1  0.002500  0.397200  0.099600  1.0
  C  C108  1  0.897900  0.102800  0.099600  1.0
  C  C109  1  0.997500  0.602800  0.900400  1.0
  C  C110  1  0.102100  0.897200  0.900400  1.0
  C  C111  1  0.878400  0.474700  0.359000  1.0
  C  C112  1  0.762600  0.025300  0.359000  1.0
  C  C113  1  0.121600  0.525300  0.641000  1.0
  C  C114  1  0.237400  0.974700  0.641000  1.0
  C  C115  1  0.735200  0.708300  0.324600  1.0
  C  C116  1  0.940200  0.791700  0.324600  1.0
  C  C117  1  0.264800  0.291700  0.675400  1.0
  C  C118  1  0.059800  0.208300  0.675400  1.0
  C  C119  1  0.827400  0.319300  0.070000  1.0
  C  C120  1  0.102600  0.180700  0.070000  1.0
  C  C121  1  0.172600  0.680700  0.930000  1.0
  C  C122  1  0.897400  0.819300  0.930000  1.0
  C  C123  1  0.393800  0.144000  0.235600  1.0
  C  C124  1  0.370600  0.356000  0.235600  1.0
  C  C125  1  0.606200  0.856000  0.764400  1.0
  C  C126  1  0.629400  0.644000  0.764400  1.0
  C  C127  1  0.728800  0.638200  0.316200  1.0
  C  C128  1  0.955000  0.861800  0.316200  1.0
  C  C129  1  0.271200  0.361800  0.683800  1.0
  C  C130  1  0.045000  0.138200  0.683800  1.0
  C  C131  1  0.247400  0.200200  0.317800  1.0
  C  C132  1  0.434800  0.299800  0.317800  1.0
  C  C133  1  0.752600  0.799800  0.682200  1.0
  C  C134  1  0.565200  0.700200  0.682200  1.0
  C  C135  1  0.810200  0.422700  0.474800  1.0
  C  C136  1  0.715000  0.077300  0.474800  1.0
  C  C137  1  0.189800  0.577300  0.525200  1.0
  C  C138  1  0.285000  0.922700  0.525200  1.0
  C  C139  1  0.921700  0.404700  0.247800  1.0
  C  C140  1  0.830500  0.095300  0.247800  1.0
  C  C141  1  0.078300  0.595300  0.752200  1.0
  C  C142  1  0.169500  0.904700  0.752200  1.0
  C  C143  1  0.466900  0.626300  0.276800  1.0
  C  C144  1  0.256300  0.873700  0.276800  1.0
  C  C145  1  0.533100  0.373700  0.723200  1.0
  C  C146  1  0.743700  0.126300  0.723200  1.0
  C  C147  1  0.647800  0.419300  0.379000  1.0
  C  C148  1  0.973200  0.080700  0.379000  1.0
  C  C149  1  0.352200  0.580700  0.621000  1.0
  C  C150  1  0.026800  0.919300  0.621000  1.0
  C  C151  1  0.049500  0.363600  0.141600  1.0
  C  C152  1  0.808900  0.136400  0.141600  1.0
  C  C153  1  0.950500  0.636400  0.858400  1.0
  C  C154  1  0.191100  0.863600  0.858400  1.0
  C  C155  1  0.915500  0.434900  0.135000  1.0
  C  C156  1  0.949500  0.065100  0.135000  1.0
  C  C157  1  0.084500  0.565100  0.865000  1.0
  C  C158  1  0.050500  0.934900  0.865000  1.0
  C  C159  1  0.334000  0.153200  0.303600  1.0
  C  C160  1  0.362400  0.346800  0.303600  1.0
  C  C161  1  0.666000  0.846800  0.696400  1.0
  C  C162  1  0.637600  0.653200  0.696400  1.0
  C  C163  1  0.799200  0.318000  0.148600  1.0
  C  C164  1  0.052200  0.182000  0.148600  1.0
  C  C165  1  0.200800  0.682000  0.851400  1.0
  C  C166  1  0.947800  0.818000  0.851400  1.0
  C  C167  1  0.531700  0.148600  0.420600  1.0
  C  C168  1  0.047700  0.351400  0.420600  1.0
  C  C169  1  0.468300  0.851400  0.579400  1.0
  C  C170  1  0.952300  0.648600  0.579400  1.0
  C  C171  1  0.524700  0.980400  0.350400  1.0
  C  C172  1  0.124900  0.519600  0.350400  1.0
  C  C173  1  0.475300  0.019600  0.649600  1.0
  C  C174  1  0.875100  0.480400  0.649600  1.0
  C  C175  1  0.809600  0.716800  0.196000  1.0
  C  C176  1  0.994400  0.783200  0.196000  1.0
  C  C177  1  0.190400  0.283200  0.804000  1.0
  C  C178  1  0.005600  0.216800  0.804000  1.0
  C  C179  1  0.773900  0.747300  0.263600  1.0
  C  C180  1  0.962500  0.752700  0.263600  1.0
  C  C181  1  0.226100  0.252700  0.736400  1.0
  C  C182  1  0.037500  0.247300  0.736400  1.0
  C  C183  1  0.759800  0.359600  0.046800  1.0
  C  C184  1  0.193400  0.140400  0.046800  1.0
  C  C185  1  0.240200  0.640400  0.953200  1.0
  C  C186  1  0.806600  0.859600  0.953200  1.0
  C  C187  1  0.880400  0.412600  0.328400  1.0
  C  C188  1  0.791200  0.087400  0.328400  1.0
  C  C189  1  0.119600  0.587400  0.671600  1.0
  C  C190  1  0.208800  0.912600  0.671600  1.0
  C  C191  1  0.610400  0.046100  0.253800  1.0
  C  C192  1  0.135800  0.453900  0.253800  1.0
  C  C193  1  0.389600  0.953900  0.746200  1.0
  C  C194  1  0.864200  0.546100  0.746200  1.0
  C  C195  1  0.687600  0.592600  0.375800  1.0
  C  C196  1  0.936600  0.907400  0.375800  1.0
  C  C197  1  0.312400  0.407400  0.624200  1.0
  C  C198  1  0.063400  0.092600  0.624200  1.0
  C  C199  1  0.849600  0.354400  0.371000  1.0
  C  C200  1  0.779400  0.145600  0.371000  1.0
  C  C201  1  0.150400  0.645600  0.629000  1.0
  C  C202  1  0.220600  0.854400  0.629000  1.0
  C  C203  1  0.813400  0.356500  0.447600  1.0
  C  C204  1  0.739000  0.143500  0.447600  1.0
  C  C205  1  0.186600  0.643500  0.552400  1.0
  C  C206  1  0.261000  0.856500  0.552400  1.0
  F  F207  1  0.007400  0.539600  0.165800  1
  F  F208  1  0.826800  0.960400  0.165800  1
  F  F209  1  0.992600  0.460400  0.834200  1
  F  F210  1  0.173200  0.039600  0.834200  1
  F  F211  1  0.129700  0.509100  0.059400  1
  F  F212  1  0.810900  0.990900  0.059400  1
  F  F213  1  0.870300  0.490900  0.940600  1
  F  F214  1  0.189100  0.009100  0.940600  1
  F  F215  1  0.087300  0.619000  0.113200  1
  F  F216  1  0.799500  0.881000  0.113200  1
  F  F217  1  0.912700  0.381000  0.886800  1
  F  F218  1  0.200500  0.119000  0.886800  1
  F  F219  1  0.016300  0.590700  0.058000  1
  F  F220  1  0.925700  0.909300  0.058000  1
  F  F221  1  0.983700  0.409300  0.942000  1
  F  F222  1  0.074300  0.090700  0.942000  1
  F  F223  1  0.422250  0.520000  0.438300  1
  F  F224  1  0.139450  0.980000  0.438300  1
  F  F225  1  0.577750  0.480000  0.561700  1
  F  F226  1  0.860550  0.020000  0.561700  1
  F  F227  1  0.345200  0.500800  0.381000  1
  F  F228  1  0.273800  0.999200  0.381000  1
  F  F229  1  0.654800  0.499200  0.619000  1
  F  F230  1  0.726200  0.000800  0.619000  1
  F  F231  1  0.490090  0.442300  0.339220  1
  F  F232  1  0.170690  0.057700  0.339220  1
  F  F233  1  0.509910  0.557700  0.660780  1
  F  F234  1  0.829310  0.942300  0.660780  1
  F  F235  1  0.397700  0.408500  0.449400  1
  F  F236  1  0.152900  0.091500  0.449400  1
  F  F237  1  0.602300  0.591500  0.550600  1
  F  F238  1  0.847100  0.908500  0.550600  1
  F  F239  1  0.136700  0.746500  0.312600  1
  F  F240  1  0.550700  0.753500  0.312600  1
  F  F241  1  0.863300  0.253500  0.687400  1
  F  F242  1  0.449300  0.246500  0.687400  1
  F  F243  1  0.097400  0.792300  0.417800  1
  F  F244  1  0.484800  0.707700  0.417800  1
  F  F245  1  0.902600  0.207700  0.582200  1
  F  F246  1  0.515200  0.292300  0.582200  1
  F  F247  1  0.087800  0.683300  0.420400  1
  F  F248  1  0.491800  0.816700  0.420400  1
  F  F249  1  0.912200  0.316700  0.579600  1
  F  F250  1  0.508200  0.183300  0.579600  1
  F  F251  1  0.216400  0.700200  0.371400  1
  F  F252  1  0.412200  0.799800  0.371400  1
  F  F253  1  0.783600  0.299800  0.628600  1
  F  F254  1  0.587800  0.200200  0.628600  1
  F  F255  1  0.520300  0.226400  0.918400  1
  F  F256  1  0.561300  0.273600  0.918400  1
  F  F257  1  0.479700  0.773600  0.081600  1
  F  F258  1  0.438700  0.726400  0.081600  1
  F  F259  1  0.744700  0.819000  0.432600  1
  F  F260  1  0.822700  0.681000  0.432600  1
  F  F261  1  0.255300  0.181000  0.567400  1
  F  F262  1  0.177300  0.319000  0.567400  1
  F  F263  1  0.665500  0.823000  0.553600  1
  F  F264  1  0.780900  0.677000  0.553600  1
  F  F265  1  0.334500  0.177000  0.446400  1
  F  F266  1  0.219100  0.323000  0.446400  1
  F  F267  1  0.820200  0.774000  0.501600  1
  F  F268  1  0.678200  0.726000  0.501600  1
  F  F269  1  0.179800  0.226000  0.498400  1
  F  F270  1  0.321800  0.274000  0.498400  1
  F  F271  1  0.460200  0.201000  0.979200  1.0
  F  F272  1  0.560600  0.299000  0.979200  1.0
  F  F273  1  0.539800  0.799000  0.020800  1.0
  F  F274  1  0.439400  0.701000  0.020800  1.0
  F  F275  1  0.546700  0.200500  0.021800  1.0
  F  F276  1  0.431500  0.299500  0.021800  1.0
  F  F277  1  0.453300  0.799500  0.978200  1.0
  F  F278  1  0.568500  0.700500  0.978200  1.0
  Fe  Fe279  1  0.736340  0.505030  0.250180  1.0
  Fe  Fe280  1  0.013480  0.994970  0.250180  1.0
  Fe  Fe281  1  0.263660  0.494970  0.749820  1.0
  Fe  Fe282  1  0.986520  0.005030  0.749820  1.0
  Fe  Fe283  1  0.635200  0.200880  0.273360  1.0
  Fe  Fe284  1  0.091440  0.299120  0.273360  1.0
  Fe  Fe285  1  0.364800  0.799120  0.726640  1.0
  Fe  Fe286  1  0.908560  0.700880  0.726640  1.0
  H  H287  1  0.594500  0.761100  0.189000  1
  H  H288  1  0.216500  0.738900  0.189000  1
  H  H289  1  0.405500  0.238900  0.811000  1
  H  H290  1  0.783500  0.261100  0.811000  1
  H  H291  1  0.570700  0.816000  0.129600  1
  H  H292  1  0.299700  0.684000  0.129600  1
  H  H293  1  0.429300  0.184000  0.870400  1
  H  H294  1  0.700300  0.316000  0.870400  1
  H  H295  1  0.640700  0.825200  0.154200  1
  H  H296  1  0.205100  0.674800  0.154200  1
  H  H297  1  0.359300  0.174800  0.845800  1
  H  H298  1  0.794900  0.325200  0.845800  1
  H  H299  1  0.836100  0.523500  0.462000  1.0
  H  H300  1  0.701900  0.976500  0.462000  1.0
  H  H301  1  0.163900  0.476500  0.538000  1.0
  H  H302  1  0.298100  0.023500  0.538000  1.0
  H  H303  1  0.415600  0.170500  0.128000  1.0
  H  H304  1  0.456400  0.329500  0.128000  1.0
  H  H305  1  0.584400  0.829500  0.872000  1.0
  H  H306  1  0.543600  0.670500  0.872000  1.0
  H  H307  1  0.540500  0.255000  0.476400  1.0
  H  H308  1  0.983100  0.245000  0.476400  1.0
  H  H309  1  0.459500  0.745000  0.523600  1.0
  H  H310  1  0.016900  0.755000  0.523600  1.0
  H  H311  1  0.886000  0.472300  0.050400  1.0
  H  H312  1  0.063600  0.027700  0.050400  1.0
  H  H313  1  0.114000  0.527700  0.949600  1.0
  H  H314  1  0.936400  0.972300  0.949600  1.0
  H  H315  1  0.169600  0.330200  0.065400  1.0
  H  H316  1  0.765000  0.169800  0.065400  1.0
  H  H317  1  0.830400  0.669800  0.934600  1.0
  H  H318  1  0.235000  0.830200  0.934600  1.0
  H  H319  1  0.591700  0.942300  0.246000  1.0
  H  H320  1  0.162300  0.557700  0.246000  1.0
  H  H321  1  0.408300  0.057700  0.754000  1.0
  H  H322  1  0.837700  0.442300  0.754000  1.0
  H  H323  1  0.829300  0.624400  0.143200  1.0
  H  H324  1  0.027500  0.875600  0.143200  1.0
  H  H325  1  0.170700  0.375600  0.856800  1.0
  H  H326  1  0.972500  0.124400  0.856800  1.0
  H  H327  1  0.468400  0.030900  0.450200  1.0
  H  H328  1  0.081400  0.469100  0.450200  1.0
  H  H329  1  0.531600  0.969100  0.549800  1.0
  H  H330  1  0.918600  0.530900  0.549800  1.0
  H  H331  1  0.428500  0.660200  0.194200  1.0
  H  H332  1  0.377300  0.839800  0.194200  1.0
  H  H333  1  0.571500  0.339800  0.805800  1.0
  H  H334  1  0.622700  0.160200  0.805800  1.0
  H  H335  1  0.294900  0.259300  0.088200  1.0
  H  H336  1  0.616900  0.240700  0.088200  1.0
  H  H337  1  0.705100  0.740700  0.911800  1.0
  H  H338  1  0.383100  0.759300  0.911800  1.0
  H  H339  1  0.588100  0.368400  0.474800  1.0
  H  H340  1  0.937100  0.131600  0.474800  1.0
  H  H341  1  0.411900  0.631600  0.525200  1.0
  H  H342  1  0.062900  0.868400  0.525200  1.0
  H  H343  1  0.531900  0.586600  0.340800  1.0
  H  H344  1  0.127300  0.913400  0.340800  1.0
  H  H345  1  0.468100  0.413400  0.659200  1.0
  H  H346  1  0.872700  0.086600  0.659200  1.0
  H  H347  1  0.626800  0.488300  0.453400  1.0
  H  H348  1  0.919800  0.011700  0.453400  1.0
  H  H349  1  0.373200  0.511700  0.546600  1.0
  H  H350  1  0.080200  0.988300  0.546600  1.0
  H  H351  1  0.737600  0.541100  0.061400  1.0
  H  H352  1  0.201000  0.958900  0.061400  1.0
  H  H353  1  0.262400  0.458900  0.938600  1.0
  H  H354  1  0.799000  0.041100  0.938600  1.0
  H  H355  1  0.635400  0.411800  0.069400  1.0
  H  H356  1  0.295200  0.088200  0.069400  1.0
  H  H357  1  0.364600  0.588200  0.930600  1.0
  H  H358  1  0.704800  0.911800  0.930600  1.0
  H  H359  1  0.569500  0.611600  0.097800  1.0
  H  H360  1  0.332700  0.888400  0.097800  1.0
  H  H361  1  0.430500  0.388400  0.902200  1.0
  H  H362  1  0.667300  0.111600  0.902200  1.0
  H  H363  1  0.589800  0.410800  0.197000  1.0
  H  H364  1  0.213200  0.089200  0.197000  1.0
  H  H365  1  0.410200  0.589200  0.803000  1.0
  H  H366  1  0.786800  0.910800  0.803000  1.0
  H  H367  1  0.029900  0.394000  0.048400  1.0
  H  H368  1  0.921700  0.106000  0.048400  1.0
  H  H369  1  0.970100  0.606000  0.951600  1.0
  H  H370  1  0.078300  0.894000  0.951600  1.0
  H  H371  1  0.901600  0.512000  0.328800  1.0
  H  H372  1  0.769600  0.988000  0.328800  1.0
  H  H373  1  0.098400  0.488000  0.671200  1.0
  H  H374  1  0.230400  0.012000  0.671200  1.0
  H  H375  1  0.713200  0.728300  0.371400  1.0
  H  H376  1  0.915400  0.771700  0.371400  1.0
  H  H377  1  0.286800  0.271700  0.628600  1.0
  H  H378  1  0.084600  0.228300  0.628600  1.0
  H  H379  1  0.885200  0.295600  0.037200  1.0
  H  H380  1  0.077600  0.204400  0.037200  1.0
  H  H381  1  0.114800  0.704400  0.962800  1.0
  H  H382  1  0.922400  0.795600  0.962800  1.0
  H  H383  1  0.451500  0.114000  0.226200  1.0
  H  H384  1  0.322300  0.386000  0.226200  1.0
  H  H385  1  0.548500  0.886000  0.773800  1.0
  H  H386  1  0.677700  0.614000  0.773800  1.0
  H  H387  1  0.205600  0.207400  0.366600  1.0
  H  H388  1  0.427800  0.292600  0.366600  1.0
  H  H389  1  0.794400  0.792600  0.633400  1.0
  H  H390  1  0.572200  0.707400  0.633400  1.0
  H  H391  1  0.783300  0.426900  0.526000  1.0
  H  H392  1  0.690700  0.073100  0.526000  1.0
  H  H393  1  0.216700  0.573100  0.474000  1.0
  H  H394  1  0.309300  0.926900  0.474000  1.0
  H  H395  1  0.411000  0.644100  0.315200  1.0
  H  H396  1  0.273800  0.855900  0.315200  1.0
  H  H397  1  0.589000  0.355900  0.684800  1.0
  H  H398  1  0.726200  0.144100  0.684800  1.0
  H  H399  1  0.348300  0.129100  0.342200  1.0
  H  H400  1  0.309500  0.370900  0.342200  1.0
  H  H401  1  0.651700  0.870900  0.657800  1.0
  H  H402  1  0.690500  0.629100  0.657800  1.0
  H  H403  1  0.839600  0.293700  0.169000  1.0
  H  H404  1  0.991400  0.206300  0.169000  1.0
  H  H405  1  0.160400  0.706300  0.831000  1.0
  H  H406  1  0.008600  0.793700  0.831000  1.0
  H  H407  1  0.497700  0.148800  0.471400  1.0
  H  H408  1  0.030900  0.351200  0.471400  1.0
  H  H409  1  0.502300  0.851200  0.528600  1.0
  H  H410  1  0.969100  0.648800  0.528600  1.0
  H  H411  1  0.499300  0.940800  0.368200  1.0
  H  H412  1  0.132500  0.559200  0.368200  1.0
  H  H413  1  0.500700  0.059200  0.631800  1.0
  H  H414  1  0.867500  0.440800  0.631800  1.0
  H  H415  1  0.837600  0.742900  0.154200  1.0
  H  H416  1  0.008200  0.757100  0.154200  1.0
  H  H417  1  0.162400  0.257100  0.845800  1.0
  H  H418  1  0.991800  0.242900  0.845800  1.0
  H  H419  1  0.775800  0.795500  0.268600  1.0
  H  H420  1  0.955600  0.704500  0.268600  1.0
  H  H421  1  0.224200  0.204500  0.731400  1.0
  H  H422  1  0.044400  0.295500  0.731400  1.0
  H  H423  1  0.776300  0.365300  0.996200  1.0
  H  H424  1  0.227500  0.134700  0.996200  1.0
  H  H425  1  0.223700  0.634700  0.003800  1.0
  H  H426  1  0.772500  0.865300  0.003800  1.0
  H  H427  1  0.644800  0.051200  0.203800  1.0
  H  H428  1  0.151400  0.448800  0.203800  1.0
  H  H429  1  0.355200  0.948800  0.796200  1.0
  H  H430  1  0.848600  0.551200  0.796200  1.0
  H  H431  1  0.663300  0.607000  0.425000  1.0
  H  H432  1  0.911700  0.893000  0.425000  1.0
  H  H433  1  0.336700  0.393000  0.575000  1.0
  H  H434  1  0.088300  0.107000  0.575000  1.0
  H  H435  1  0.853200  0.312900  0.347600  1.0
  H  H436  1  0.799200  0.187100  0.347600  1.0
  H  H437  1  0.146800  0.687100  0.652400  1.0
  H  H438  1  0.200800  0.812900  0.652400  1.0
  H  H439  1  0.793500  0.317700  0.477600  1.0
  H  H440  1  0.728900  0.182300  0.477600  1.0
  H  H441  1  0.206500  0.682300  0.522400  1.0
  H  H442  1  0.271100  0.817700  0.522400  1.0
  N  N443  1  0.744600  0.700100  0.042000  1
  N  N444  1  0.213400  0.799900  0.042000  1
  N  N445  1  0.255400  0.299900  0.958000  1
  N  N446  1  0.786600  0.200100  0.958000  1
  N  N447  1  0.763400  0.606700  0.248200  1.0
  N  N448  1  0.988400  0.893300  0.248200  1.0
  N  N449  1  0.236600  0.393300  0.751800  1.0
  N  N450  1  0.011600  0.106700  0.751800  1.0
  N  N451  1  0.619700  0.562700  0.239000  1.0
  N  N452  1  0.141300  0.937300  0.239000  1.0
  N  N453  1  0.380300  0.437300  0.761000  1.0
  N  N454  1  0.858700  0.062700  0.761000  1.0
  N  N455  1  0.571300  0.198700  0.389200  1.0
  N  N456  1  0.039500  0.301300  0.389200  1.0
  N  N457  1  0.428700  0.801300  0.610800  1.0
  N  N458  1  0.960500  0.698700  0.610800  1.0
  N  N459  1  0.644700  0.299800  0.314000  1.0
  N  N460  1  0.041300  0.200200  0.314000  1.0
  N  N461  1  0.355300  0.700200  0.686000  1.0
  N  N462  1  0.958700  0.799800  0.686000  1.0
  N  N463  1  0.007900  0.364600  0.217600  1.0
  N  N464  1  0.774500  0.135400  0.217600  1.0
  N  N465  1  0.992100  0.635400  0.782400  1.0
  N  N466  1  0.225500  0.864600  0.782400  1.0
  N  N467  1  0.685000  0.413500  0.302800  1.0
  N  N468  1  0.012200  0.086500  0.302800  1.0
  N  N469  1  0.315000  0.586500  0.697200  1.0
  N  N470  1  0.987800  0.913500  0.697200  1.0
  N  N471  1  0.593500  0.098200  0.299800  1.0
  N  N472  1  0.106700  0.401800  0.299800  1.0
  N  N473  1  0.406500  0.901800  0.700200  1.0
  N  N474  1  0.893300  0.598200  0.700200  1.0
  N  N475  1  0.222600  0.234600  0.265400  1.0
  N  N476  1  0.512000  0.265400  0.265400  1.0
  N  N477  1  0.777400  0.765400  0.734600  1.0
  N  N478  1  0.488000  0.734600  0.734600  1.0
  N  N479  1  0.776700  0.503500  0.140600  1.0
  N  N480  1  0.082700  0.996500  0.140600  1.0
  N  N481  1  0.223300  0.496500  0.859400  1.0
  N  N482  1  0.917300  0.003500  0.859400  1.0
  N  N483  1  0.173100  0.295000  0.160800  1.0
  N  N484  1  0.666100  0.205000  0.160800  1.0
  N  N485  1  0.826900  0.705000  0.839200  1.0
  N  N486  1  0.333900  0.795000  0.839200  1.0
  N  N487  1  0.872600  0.440600  0.210800  1.0
  N  N488  1  0.916600  0.059400  0.210800  1.0
  N  N489  1  0.127400  0.559400  0.789200  1.0
  N  N490  1  0.083400  0.940600  0.789200  1.0
  N  N491  1  0.567600  0.253600  0.429000  1.0
  N  N492  1  0.003400  0.246400  0.429000  1.0
  N  N493  1  0.432400  0.746400  0.571000  1.0
  N  N494  1  0.996600  0.753600  0.571000  1.0
  N  N495  1  0.864300  0.470600  0.097800  1.0
  N  N496  1  0.037900  0.029400  0.097800  1.0
  N  N497  1  0.135700  0.529400  0.902200  1.0
  N  N498  1  0.962100  0.970600  0.902200  1.0
  N  N499  1  0.137500  0.329900  0.112200  1.0
  N  N500  1  0.750300  0.170100  0.112200  1.0
  N  N501  1  0.862500  0.670100  0.887800  1.0
  N  N502  1  0.249700  0.829900  0.887800  1.0
  N  N503  1  0.648800  0.480600  0.406600  1.0
  N  N504  1  0.944600  0.019400  0.406600  1.0
  N  N505  1  0.351200  0.519400  0.593400  1.0
  N  N506  1  0.055400  0.980600  0.593400  1.0
  N  N507  1  0.686500  0.529700  0.356400  1.0
  N  N508  1  0.957100  0.970300  0.356400  1.0
  N  N509  1  0.313500  0.470300  0.643600  1.0
  N  N510  1  0.042900  0.029700  0.643600  1.0
