# generated using pymatgen
data_CdH48C66N9O10
_symmetry_space_group_name_H-M   'P 1'
_cell_length_a   15.89960000
_cell_length_b   18.03320000
_cell_length_c   25.86780000
_cell_angle_alpha   75.34300000
_cell_angle_beta   74.13700000
_cell_angle_gamma   83.82900000
_symmetry_Int_Tables_number   1
_chemical_formula_structural   CdH48C66N9O10
_chemical_formula_sum   'Cd4 H192 C264 N36 O40'
_cell_volume   6896.35955282
_cell_formula_units_Z   4
loop_
 _symmetry_equiv_pos_site_id
 _symmetry_equiv_pos_as_xyz
  1  'x, y, z'
loop_
 _atom_site_type_symbol
 _atom_site_label
 _atom_site_symmetry_multiplicity
 _atom_site_fract_x
 _atom_site_fract_y
 _atom_site_fract_z
 _atom_site_occupancy
  Cd  Cd1  1  0.383830  0.995230  0.866830  1.0
  Cd  Cd2  1  0.616170  0.004770  0.133170  1.0
  Cd  Cd3  1  0.223680  0.432690  0.581430  1.0
  Cd  Cd4  1  0.776320  0.567310  0.418570  1.0
  H  H5  1  0.411511  0.057564  0.974008  1.0
  H  H6  1  0.588489  0.942436  0.025992  1.0
  H  H7  1  0.373343  0.033863  0.065163  1.0
  H  H8  1  0.626657  0.966137  0.934837  1.0
  H  H9  1  0.285669  0.928626  0.116537  1.0
  H  H10  1  0.714331  0.071374  0.883463  1.0
  H  H11  1  0.248985  0.845974  0.069502  1.0
  H  H12  1  0.751015  0.154026  0.930498  1.0
  H  H13  1  0.247981  0.762439  0.024568  1.0
  H  H14  1  0.752019  0.237561  0.975432  1.0
  H  H15  1  0.266225  0.740128  0.868157  1.0
  H  H16  1  0.733775  0.259872  0.131843  1.0
  H  H17  1  0.314516  0.783945  0.784729  1.0
  H  H18  1  0.685484  0.216055  0.215271  1.0
  H  H19  1  0.363956  0.840868  0.689412  1.0
  H  H20  1  0.636044  0.159132  0.310588  1.0
  H  H21  1  0.408989  0.972835  0.662584  1.0
  H  H22  1  0.591011  0.027165  0.337416  1.0
  H  H23  1  0.427113  0.026859  0.733192  1.0
  H  H24  1  0.572887  0.973141  0.266808  1.0
  H  H25  1  0.259395  0.637655  0.042337  1.0
  H  H26  1  0.740605  0.362345  0.957663  1.0
  H  H27  1  0.204927  0.517991  0.081433  1.0
  H  H28  1  0.795073  0.482009  0.918567  1.0
  H  H29  1  0.080894  0.544647  0.958407  1.0
  H  H30  1  0.919106  0.455353  0.041593  1.0
  H  H31  1  0.151461  0.662904  0.915413  1.0
  H  H32  1  0.848539  0.337096  0.084587  1.0
  H  H33  1  0.080787  0.456612  0.127152  1.0
  H  H34  1  0.919213  0.543388  0.872848  1.0
  H  H35  1  0.037260  0.334656  0.175788  1.0
  H  H36  1  0.962740  0.665344  0.824212  1.0
  H  H37  1  0.040257  0.237986  0.127970  1.0
  H  H38  1  0.959743  0.762014  0.872030  1.0
  H  H39  1  0.062620  0.274024  0.033865  1.0
  H  H40  1  0.937380  0.725976  0.966135  1.0
  H  H41  1  0.006071  0.367846  0.957335  1.0
  H  H42  1  0.993929  0.632154  0.042665  1.0
  H  H43  1  0.039500  0.379633  0.863217  1.0
  H  H44  1  0.960500  0.620367  0.136783  1.0
  H  H45  1  0.281441  0.450680  0.845088  1.0
  H  H46  1  0.718559  0.549320  0.154912  1.0
  H  H47  1  0.245367  0.434855  0.941117  1.0
  H  H48  1  0.754633  0.565145  0.058883  1.0
  H  H49  1  0.322059  0.591751  0.510440  1.0
  H  H50  1  0.677941  0.408249  0.489560  1.0
  H  H51  1  0.353739  0.710864  0.522486  1.0
  H  H52  1  0.646261  0.289136  0.477514  1.0
  H  H53  1  0.321546  0.729237  0.613568  1.0
  H  H54  1  0.678454  0.270763  0.386432  1.0
  H  H55  1  0.299529  0.614696  0.686615  1.0
  H  H56  1  0.700471  0.385304  0.313385  1.0
  H  H57  1  0.248281  0.520515  0.752734  1.0
  H  H58  1  0.751719  0.479485  0.247266  1.0
  H  H59  1  0.117722  0.323088  0.793199  1.0
  H  H60  1  0.882278  0.676912  0.206801  1.0
  H  H61  1  0.072451  0.238513  0.763309  1.0
  H  H62  1  0.927549  0.761487  0.236691  1.0
  H  H63  1  0.022254  0.153366  0.724280  1.0
  H  H64  1  0.977746  0.846634  0.275720  1.0
  H  H65  1  0.070464  0.165853  0.632608  1.0
  H  H66  1  0.929536  0.834147  0.367392  1.0
  H  H67  1  0.136704  0.280258  0.573652  1.0
  H  H68  1  0.863296  0.719742  0.426348  1.0
  H  H69  1  0.059717  0.655563  0.717998  1.0
  H  H70  1  0.940283  0.344437  0.282002  1.0
  H  H71  1  0.012840  0.553662  0.780248  1.0
  H  H72  1  0.987160  0.446338  0.219752  1.0
  H  H73  1  0.961345  0.453659  0.758420  1.0
  H  H74  1  0.038655  0.546341  0.241580  1.0
  H  H75  1  0.956952  0.646840  0.563761  1.0
  H  H76  1  0.043048  0.353160  0.436239  1.0
  H  H77  1  0.982434  0.666869  0.465775  1.0
  H  H78  1  0.017566  0.333131  0.534225  1.0
  H  H79  1  0.087135  0.584828  0.423516  1.0
  H  H80  1  0.912865  0.415172  0.576484  1.0
  H  H81  1  0.152474  0.492689  0.390087  1.0
  H  H82  1  0.847526  0.507311  0.609913  1.0
  H  H83  1  0.355901  0.341873  0.398930  1.0
  H  H84  1  0.644099  0.658127  0.601070  1.0
  H  H85  1  0.401492  0.251107  0.458623  1.0
  H  H86  1  0.598508  0.748893  0.541377  1.0
  H  H87  1  0.499379  0.195765  0.511506  1.0
  H  H88  1  0.500621  0.804235  0.488494  1.0
  H  H89  1  0.492953  0.229688  0.593835  1.0
  H  H90  1  0.507047  0.770312  0.406165  1.0
  H  H91  1  0.485536  0.482733  0.664136  1.0
  H  H92  1  0.514464  0.517267  0.335864  1.0
  H  H93  1  0.430173  0.402904  0.756539  1.0
  H  H94  1  0.569827  0.597096  0.243461  1.0
  H  H95  1  0.353168  0.294150  0.767860  1.0
  H  H96  1  0.646832  0.705850  0.232140  1.0
  H  H97  1  0.541904  0.544081  0.527368  1.0
  H  H98  1  0.458096  0.455919  0.472632  1.0
  H  H99  1  0.481010  0.555195  0.585611  1.0
  H  H100  1  0.518990  0.444805  0.414389  1.0
  H  H101  1  0.570940  0.505269  0.583044  1.0
  H  H102  1  0.429060  0.494731  0.416956  1.0
  H  H103  1  0.274691  0.141318  0.737362  1.0
  H  H104  1  0.725309  0.858682  0.262638  1.0
  H  H105  1  0.352341  0.166960  0.756606  1.0
  H  H106  1  0.647659  0.833040  0.243394  1.0
  H  H107  1  0.260114  0.213738  0.764481  1.0
  H  H108  1  0.739886  0.786262  0.235519  1.0
  H  H109  1  0.149591  0.779994  0.581170  1.0
  H  H110  1  0.850409  0.220006  0.418830  1.0
  H  H111  1  0.064421  0.767573  0.632119  1.0
  H  H112  1  0.935579  0.232427  0.367881  1.0
  H  H113  1  0.157729  0.732938  0.641109  1.0
  H  H114  1  0.842271  0.267062  0.358891  1.0
  H  H115  1  0.900888  0.349205  0.679030  1.0
  H  H116  1  0.099112  0.650795  0.320970  1.0
  H  H117  1  0.945664  0.360129  0.724863  1.0
  H  H118  1  0.054336  0.639871  0.275137  1.0
  H  H119  1  0.864330  0.415068  0.711843  1.0
  H  H120  1  0.135670  0.584932  0.288157  1.0
  H  H121  1  0.407892  0.430087  0.305071  1.0
  H  H122  1  0.592108  0.569913  0.694929  1.0
  H  H123  1  0.435470  0.433517  0.208998  1.0
  H  H124  1  0.564530  0.566483  0.791002  1.0
  H  H125  1  0.174436  0.412185  0.230796  1.0
  H  H126  1  0.825564  0.587815  0.769204  1.0
  H  H127  1  0.145690  0.412536  0.325755  1.0
  H  H128  1  0.854310  0.587464  0.674245  1.0
  H  H129  1  0.257161  0.328313  0.167714  1.0
  H  H130  1  0.742839  0.671687  0.832286  1.0
  H  H131  1  0.284740  0.319001  0.075714  1.0
  H  H132  1  0.715260  0.680999  0.924286  1.0
  H  H133  1  0.376070  0.401023  0.006609  1.0
  H  H134  1  0.623930  0.598977  0.993391  1.0
  H  H135  1  0.426805  0.507825  0.024311  1.0
  H  H136  1  0.573195  0.492175  0.975689  1.0
  H  H137  1  0.536707  0.525932  0.086141  1.0
  H  H138  1  0.463293  0.474068  0.913859  1.0
  H  H139  1  0.587083  0.633286  0.101962  1.0
  H  H140  1  0.412917  0.366714  0.898038  1.0
  H  H141  1  0.343540  0.705501  0.158143  1.0
  H  H142  1  0.656460  0.294499  0.841857  1.0
  H  H143  1  0.286375  0.596414  0.154281  1.0
  H  H144  1  0.713625  0.403586  0.845719  1.0
  H  H145  1  0.284620  0.117054  0.205586  1.0
  H  H146  1  0.715380  0.882946  0.794414  1.0
  H  H147  1  0.219577  0.990942  0.233086  1.0
  H  H148  1  0.780423  0.009058  0.766914  1.0
  H  H149  1  0.314721  0.881827  0.216514  1.0
  H  H150  1  0.685279  0.118173  0.783486  1.0
  H  H151  1  0.384331  0.807765  0.160814  1.0
  H  H152  1  0.615669  0.192235  0.839186  1.0
  H  H153  1  0.633953  0.722146  0.117630  1.0
  H  H154  1  0.366047  0.277854  0.882370  1.0
  H  H155  1  0.766192  0.736242  0.111861  1.0
  H  H156  1  0.233808  0.263758  0.888139  1.0
  H  H157  1  0.907864  0.753587  0.110556  1.0
  H  H158  1  0.092136  0.246413  0.889444  1.0
  H  H159  1  0.947127  0.873684  0.116752  1.0
  H  H160  1  0.052873  0.126316  0.883248  1.0
  H  H161  1  0.932032  0.154609  0.031945  1.0
  H  H162  1  0.067968  0.845391  0.968055  1.0
  H  H163  1  0.932848  0.188714  0.109148  1.0
  H  H164  1  0.067152  0.811286  0.890852  1.0
  H  H165  1  0.881603  0.109026  0.199970  1.0
  H  H166  1  0.118397  0.890974  0.800030  1.0
  H  H167  1  0.908441  0.044477  0.944853  1.0
  H  H168  1  0.091559  0.955523  0.055147  1.0
  H  H169  1  0.893873  0.121337  0.966951  1.0
  H  H170  1  0.106127  0.878663  0.033049  1.0
  H  H171  1  0.979790  0.067392  0.970720  1.0
  H  H172  1  0.020210  0.932608  0.029280  1.0
  H  H173  1  0.808909  0.939721  0.300606  1.0
  H  H174  1  0.191091  0.060279  0.699394  1.0
  H  H175  1  0.894352  0.986964  0.266622  1.0
  H  H176  1  0.105648  0.013036  0.733378  1.0
  H  H177  1  0.799878  0.029956  0.275163  1.0
  H  H178  1  0.200122  0.970044  0.724837  1.0
  H  H179  1  0.529822  0.289922  0.047739  1.0
  H  H180  1  0.470178  0.710078  0.952261  1.0
  H  H181  1  0.537271  0.348225  0.116956  1.0
  H  H182  1  0.462729  0.651775  0.883044  1.0
  H  H183  1  0.489782  0.287026  0.209035  1.0
  H  H184  1  0.510218  0.712974  0.790965  1.0
  H  H185  1  0.481495  0.157171  0.984227  1.0
  H  H186  1  0.518505  0.842829  0.015773  1.0
  H  H187  1  0.443572  0.233336  0.005106  1.0
  H  H188  1  0.556428  0.766664  0.994894  1.0
  H  H189  1  0.545980  0.210906  0.994680  1.0
  H  H190  1  0.454020  0.789094  0.005320  1.0
  H  H191  1  0.382168  0.166171  0.325178  1.0
  H  H192  1  0.617832  0.833829  0.674822  1.0
  H  H193  1  0.457848  0.220976  0.284831  1.0
  H  H194  1  0.542152  0.779024  0.715169  1.0
  H  H195  1  0.359231  0.238090  0.279673  1.0
  H  H196  1  0.640769  0.761910  0.720327  1.0
  C  C197  1  0.319000  0.638600  0.370000  1
  C  C198  1  0.681000  0.361400  0.630000  1
  C  C199  1  0.352000  0.671600  0.295700  1
  C  C200  1  0.648000  0.328400  0.704300  1
  C  C201  1  0.773000  0.833000  0.984400  1
  C  C202  1  0.227000  0.167000  0.015600  1
  C  C203  1  0.836000  0.885700  0.970000  1
  C  C204  1  0.164000  0.114300  0.030000  1
  C  C205  1  0.378600  0.013700  0.994100  1.0
  C  C206  1  0.621400  0.986300  0.005900  1.0
  C  C207  1  0.355900  0.000900  0.046900  1.0
  C  C208  1  0.644100  0.999100  0.953100  1.0
  C  C209  1  0.305100  0.937800  0.077400  1.0
  C  C210  1  0.694900  0.062200  0.922600  1.0
  C  C211  1  0.283500  0.889100  0.050000  1.0
  C  C212  1  0.716500  0.110900  0.950000  1.0
  C  C213  1  0.314000  0.905200  0.993000  1.0
  C  C214  1  0.686000  0.094800  0.007000  1.0
  C  C215  1  0.298300  0.854800  0.960500  1.0
  C  C216  1  0.701700  0.145200  0.039500  1.0
  C  C217  1  0.262200  0.781600  0.985600  1.0
  C  C218  1  0.737800  0.218400  0.014400  1.0
  C  C219  1  0.247800  0.737300  0.949400  1.0
  C  C220  1  0.752200  0.262700  0.050600  1.0
  C  C221  1  0.273800  0.768300  0.892900  1.0
  C  C222  1  0.726200  0.231700  0.107100  1.0
  C  C223  1  0.310200  0.838600  0.871900  1.0
  C  C224  1  0.689800  0.161400  0.128100  1.0
  C  C225  1  0.339400  0.875100  0.811400  1.0
  C  C226  1  0.660600  0.124900  0.188600  1.0
  C  C227  1  0.336000  0.834300  0.772700  1.0
  C  C228  1  0.664000  0.165700  0.227300  1.0
  C  C229  1  0.364400  0.868000  0.716400  1.0
  C  C230  1  0.635600  0.132000  0.283600  1.0
  C  C231  1  0.394500  0.945400  0.700200  1.0
  C  C232  1  0.605500  0.054600  0.299800  1.0
  C  C233  1  0.401300  0.978500  0.742900  1.0
  C  C234  1  0.598700  0.021500  0.257100  1.0
  C  C235  1  0.212500  0.660600  0.975000  1.0
  C  C236  1  0.787500  0.339400  0.025000  1.0
  C  C237  1  0.225800  0.617500  0.024200  1.0
  C  C238  1  0.774200  0.382500  0.975800  1.0
  C  C239  1  0.192800  0.547100  0.048000  1.0
  C  C240  1  0.807200  0.452900  0.952000  1.0
  C  C241  1  0.140100  0.517400  0.022500  1.0
  C  C242  1  0.859900  0.482600  0.977500  1.0
  C  C243  1  0.120200  0.561800  0.974300  1.0
  C  C244  1  0.879800  0.438200  0.025700  1.0
  C  C245  1  0.160500  0.633500  0.949700  1.0
  C  C246  1  0.839500  0.366500  0.050300  1.0
  C  C247  1  0.107700  0.438400  0.049600  1.0
  C  C248  1  0.892300  0.561600  0.950400  1.0
  C  C249  1  0.080900  0.418800  0.107400  1.0
  C  C250  1  0.919100  0.581200  0.892600  1.0
  C  C251  1  0.054700  0.346200  0.136500  1.0
  C  C252  1  0.945300  0.653800  0.863500  1.0
  C  C253  1  0.053600  0.289300  0.108400  1.0
  C  C254  1  0.946400  0.710700  0.891600  1.0
  C  C255  1  0.072100  0.309900  0.052800  1.0
  C  C256  1  0.927900  0.690100  0.947200  1.0
  C  C257  1  0.104700  0.381400  0.021200  1.0
  C  C258  1  0.895300  0.618600  0.978800  1.0
  C  C259  1  0.126500  0.397200  0.958600  1.0
  C  C260  1  0.873500  0.602800  0.041400  1.0
  C  C261  1  0.062400  0.383100  0.934900  1.0
  C  C262  1  0.937600  0.616900  0.065100  1.0
  C  C263  1  0.082000  0.391700  0.879100  1.0
  C  C264  1  0.918000  0.608300  0.120900  1.0
  C  C265  1  0.162400  0.417700  0.844600  1.0
  C  C266  1  0.837600  0.582300  0.155400  1.0
  C  C267  1  0.225700  0.433500  0.867300  1.0
  C  C268  1  0.774300  0.566500  0.132700  1.0
  C  C269  1  0.203300  0.423000  0.924800  1.0
  C  C270  1  0.796700  0.577000  0.075200  1.0
  C  C271  1  0.311300  0.599200  0.546800  1.0
  C  C272  1  0.688700  0.400800  0.453200  1.0
  C  C273  1  0.331300  0.670800  0.553700  1.0
  C  C274  1  0.668700  0.329200  0.446300  1.0
  C  C275  1  0.317300  0.680600  0.606700  1.0
  C  C276  1  0.682700  0.319400  0.393300  1.0
  C  C277  1  0.296200  0.613800  0.650700  1.0
  C  C278  1  0.703800  0.386200  0.349300  1.0
  C  C279  1  0.271500  0.549300  0.642000  1.0
  C  C280  1  0.728500  0.450700  0.358000  1.0
  C  C281  1  0.230300  0.484300  0.688300  1.0
  C  C282  1  0.769700  0.515700  0.311700  1.0
  C  C283  1  0.223700  0.481400  0.743500  1.0
  C  C284  1  0.776300  0.518600  0.256500  1.0
  C  C285  1  0.182300  0.422900  0.784700  1.0
  C  C286  1  0.817700  0.577100  0.215300  1.0
  C  C287  1  0.149700  0.364000  0.767000  1.0
  C  C288  1  0.850300  0.636000  0.233000  1.0
  C  C289  1  0.166300  0.368900  0.710800  1.0
  C  C290  1  0.833700  0.631100  0.289200  1.0
  C  C291  1  0.133100  0.309000  0.689700  1.0
  C  C292  1  0.866900  0.691000  0.310300  1.0
  C  C293  1  0.085600  0.245800  0.724300  1.0
  C  C294  1  0.914400  0.754200  0.275700  1.0
  C  C295  1  0.057900  0.194500  0.701700  1.0
  C  C296  1  0.942100  0.805500  0.298300  1.0
  C  C297  1  0.082300  0.204300  0.648600  1.0
  C  C298  1  0.917700  0.795700  0.351400  1.0
  C  C299  1  0.127000  0.271600  0.612600  1.0
  C  C300  1  0.873000  0.728400  0.387400  1.0
  C  C301  1  0.064400  0.618400  0.647200  1.0
  C  C302  1  0.935600  0.381600  0.352800  1.0
  C  C303  1  0.047200  0.613000  0.706400  1.0
  C  C304  1  0.952800  0.387000  0.293600  1.0
  C  C305  1  0.016800  0.555300  0.742700  1.0
  C  C306  1  0.983200  0.444700  0.257300  1.0
  C  C307  1  0.989200  0.494800  0.730000  1.0
  C  C308  1  0.010800  0.505200  0.270000  1.0
  C  C309  1  0.002900  0.494300  0.673100  1.0
  C  C310  1  0.997100  0.505700  0.326900  1.0
  C  C311  1  0.044400  0.554700  0.631800  1.0
  C  C312  1  0.955600  0.445300  0.368200  1.0
  C  C313  1  0.052600  0.561700  0.571500  1.0
  C  C314  1  0.947400  0.438300  0.428500  1.0
  C  C315  1  0.000600  0.617000  0.543800  1.0
  C  C316  1  0.999400  0.383000  0.456200  1.0
  C  C317  1  0.013700  0.628100  0.486500  1.0
  C  C318  1  0.986300  0.371900  0.513500  1.0
  C  C319  1  0.075100  0.578500  0.462400  1.0
  C  C320  1  0.924900  0.421500  0.537600  1.0
  C  C321  1  0.120300  0.520400  0.491100  1.0
  C  C322  1  0.879700  0.479600  0.508900  1.0
  C  C323  1  0.183400  0.466200  0.463600  1.0
  C  C324  1  0.816600  0.533800  0.536400  1.0
  C  C325  1  0.192900  0.464300  0.409500  1.0
  C  C326  1  0.807100  0.535700  0.590500  1.0
  C  C327  1  0.259200  0.422400  0.383800  1.0
  C  C328  1  0.740800  0.577600  0.616200  1.0
  C  C329  1  0.311400  0.375100  0.414800  1.0
  C  C330  1  0.688600  0.624900  0.585200  1.0
  C  C331  1  0.296100  0.377800  0.470600  1.0
  C  C332  1  0.703900  0.622200  0.529400  1.0
  C  C333  1  0.351500  0.332600  0.505300  1.0
  C  C334  1  0.648500  0.667400  0.494700  1.0
  C  C335  1  0.404300  0.269000  0.489600  1.0
  C  C336  1  0.595700  0.731000  0.510400  1.0
  C  C337  1  0.459100  0.235400  0.522100  1.0
  C  C338  1  0.540900  0.764600  0.477900  1.0
  C  C339  1  0.458200  0.257000  0.570000  1.0
  C  C340  1  0.541800  0.743000  0.430000  1.0
  C  C341  1  0.406600  0.317800  0.581700  1.0
  C  C342  1  0.593400  0.682200  0.418300  1.0
  C  C343  1  0.409200  0.344300  0.632000  1.0
  C  C344  1  0.590800  0.655700  0.368000  1.0
  C  C345  1  0.444800  0.414500  0.626400  1.0
  C  C346  1  0.555200  0.585500  0.373600  1.0
  C  C347  1  0.456300  0.437100  0.669400  1.0
  C  C348  1  0.543700  0.562900  0.330600  1.0
  C  C349  1  0.422400  0.388800  0.725200  1.0
  C  C350  1  0.577600  0.611200  0.274800  1.0
  C  C351  1  0.379300  0.323500  0.732000  1.0
  C  C352  1  0.620700  0.676500  0.268000  1.0
  C  C353  1  0.375100  0.301400  0.684800  1.0
  C  C354  1  0.624900  0.698600  0.315200  1.0
  C  C355  1  0.521000  0.519500  0.566700  1.0
  C  C356  1  0.479000  0.480500  0.433300  1.0
  C  C357  1  0.302600  0.185300  0.740600  1.0
  C  C358  1  0.697400  0.814700  0.259400  1.0
  C  C359  1  0.120500  0.744300  0.615300  1.0
  C  C360  1  0.879500  0.255700  0.384700  1.0
  C  C361  1  0.917100  0.386800  0.695800  1.0
  C  C362  1  0.082900  0.613200  0.304200  1.0
  C  C363  1  0.276200  0.422300  0.323200  1.0
  C  C364  1  0.723800  0.577700  0.676800  1.0
  C  C365  1  0.360700  0.427600  0.289700  1.0
  C  C366  1  0.639300  0.572400  0.710300  1.0
  C  C367  1  0.377500  0.429500  0.232100  1.0
  C  C368  1  0.622500  0.570500  0.767900  1.0
  C  C369  1  0.306800  0.425200  0.210500  1.0
  C  C370  1  0.693200  0.574800  0.789500  1.0
  C  C371  1  0.221400  0.417300  0.245700  1.0
  C  C372  1  0.778600  0.582700  0.754300  1.0
  C  C373  1  0.203500  0.416600  0.302500  1.0
  C  C374  1  0.796500  0.583400  0.697500  1.0
  C  C375  1  0.324200  0.425300  0.151100  1.0
  C  C376  1  0.675800  0.574700  0.848900  1.0
  C  C377  1  0.291600  0.365200  0.138900  1.0
  C  C378  1  0.708400  0.634800  0.861100  1.0
  C  C379  1  0.309400  0.358900  0.084000  1.0
  C  C380  1  0.690600  0.641100  0.916000  1.0
  C  C381  1  0.360900  0.408400  0.043200  1.0
  C  C382  1  0.639100  0.591600  0.956800  1.0
  C  C383  1  0.392800  0.471500  0.053800  1.0
  C  C384  1  0.607200  0.528500  0.946200  1.0
  C  C385  1  0.374100  0.480300  0.108200  1.0
  C  C386  1  0.625900  0.519700  0.891800  1.0
  C  C387  1  0.407300  0.548500  0.118200  1.0
  C  C388  1  0.592700  0.451500  0.881800  1.0
  C  C389  1  0.496100  0.561300  0.102600  1.0
  C  C390  1  0.503900  0.438700  0.897400  1.0
  C  C391  1  0.525900  0.626600  0.111000  1.0
  C  C392  1  0.474100  0.373400  0.889000  1.0
  C  C393  1  0.469200  0.681100  0.132100  1.0
  C  C394  1  0.530800  0.318900  0.867900  1.0
  C  C395  1  0.383400  0.667000  0.145100  1.0
  C  C396  1  0.616600  0.333000  0.854900  1.0
  C  C397  1  0.347600  0.603600  0.141700  1.0
  C  C398  1  0.652400  0.396400  0.858300  1.0
  C  C399  1  0.408600  0.074900  0.171300  1.0
  C  C400  1  0.591400  0.925100  0.828700  1.0
  C  C401  1  0.318500  0.072300  0.198600  1.0
  C  C402  1  0.681500  0.927700  0.801400  1.0
  C  C403  1  0.280100  0.996800  0.215400  1.0
  C  C404  1  0.719900  0.003200  0.784600  1.0
  C  C405  1  0.336700  0.932000  0.204200  1.0
  C  C406  1  0.663300  0.068000  0.795800  1.0
  C  C407  1  0.422400  0.942600  0.175900  1.0
  C  C408  1  0.577600  0.057400  0.824100  1.0
  C  C409  1  0.481600  0.877600  0.159700  1.0
  C  C410  1  0.518400  0.122400  0.840300  1.0
  C  C411  1  0.445800  0.810900  0.154100  1.0
  C  C412  1  0.554200  0.189100  0.845900  1.0
  C  C413  1  0.501300  0.751800  0.139100  1.0
  C  C414  1  0.498700  0.248200  0.860900  1.0
  C  C415  1  0.593100  0.761500  0.128200  1.0
  C  C416  1  0.406900  0.238500  0.871800  1.0
  C  C417  1  0.622100  0.828200  0.133100  1.0
  C  C418  1  0.377900  0.171800  0.866900  1.0
  C  C419  1  0.718200  0.839000  0.124300  1.0
  C  C420  1  0.281800  0.161000  0.875700  1.0
  C  C421  1  0.781000  0.783500  0.116300  1.0
  C  C422  1  0.219000  0.216500  0.883700  1.0
  C  C423  1  0.865000  0.794100  0.114500  1.0
  C  C424  1  0.135000  0.205900  0.885500  1.0
  C  C425  1  0.888600  0.864600  0.118300  1.0
  C  C426  1  0.111400  0.135400  0.881700  1.0
  C  C427  1  0.822000  0.920600  0.124600  1.0
  C  C428  1  0.178000  0.079400  0.875400  1.0
  C  C429  1  0.845200  0.000400  0.123300  1.0
  C  C430  1  0.154800  0.999600  0.876700  1.0
  C  C431  1  0.876300  0.049700  0.071000  1.0
  C  C432  1  0.123700  0.950300  0.929000  1.0
  C  C433  1  0.910300  0.121100  0.067000  1.0
  C  C434  1  0.089700  0.878900  0.933000  1.0
  C  C435  1  0.911200  0.140100  0.112600  1.0
  C  C436  1  0.088800  0.859900  0.887400  1.0
  C  C437  1  0.881500  0.092400  0.167900  1.0
  C  C438  1  0.118500  0.907600  0.832100  1.0
  C  C439  1  0.851700  0.018100  0.171200  1.0
  C  C440  1  0.148300  0.981900  0.828800  1.0
  C  C441  1  0.917100  0.068200  0.973100  1.0
  C  C442  1  0.082900  0.931800  0.026900  1.0
  C  C443  1  0.832400  0.982100  0.269400  1.0
  C  C444  1  0.167600  0.017900  0.730600  1.0
  C  C445  1  0.449700  0.150000  0.154800  1.0
  C  C446  1  0.550300  0.850000  0.845200  1.0
  C  C447  1  0.478900  0.186300  0.100300  1.0
  C  C448  1  0.521100  0.813700  0.899700  1.0
  C  C449  1  0.511200  0.263700  0.085500  1.0
  C  C450  1  0.488800  0.736300  0.914500  1.0
  C  C451  1  0.514500  0.298600  0.126800  1.0
  C  C452  1  0.485500  0.701400  0.873200  1.0
  C  C453  1  0.485700  0.263100  0.181100  1.0
  C  C454  1  0.514300  0.736900  0.818900  1.0
  C  C455  1  0.448700  0.188400  0.195700  1.0
  C  C456  1  0.551300  0.811600  0.804300  1.0
  C  C457  1  0.487200  0.190700  0.007500  1.0
  C  C458  1  0.512800  0.809300  0.992500  1.0
  C  C459  1  0.403400  0.197600  0.287700  1.0
  C  C460  1  0.596600  0.802400  0.712300  1.0
  N  N461  1  0.441600  0.642300  0.706800  1
  N  N462  1  0.558400  0.357700  0.293200  1
  N  N463  1  0.100100  0.724900  0.128800  1
  N  N464  1  0.899900  0.275100  0.871200  1
  N  N465  1  0.091000  0.941600  0.176800  1
  N  N466  1  0.909000  0.058400  0.823200  1
  N  N467  1  0.167900  0.810700  0.706900  1
  N  N468  1  0.832100  0.189300  0.293100  1
  N  N469  1  0.295000  0.606000  0.405000  1
  N  N470  1  0.705000  0.394000  0.595000  1
  N  N471  1  0.717000  0.784300  0.995200  1
  N  N472  1  0.283000  0.215700  0.004800  1
  N  N473  1  0.358500  0.968500  0.965700  1.0
  N  N474  1  0.641500  0.031500  0.034300  1.0
  N  N475  1  0.321200  0.881200  0.904500  1.0
  N  N476  1  0.678800  0.118800  0.095500  1.0
  N  N477  1  0.373100  0.944700  0.795900  1.0
  N  N478  1  0.626900  0.055300  0.204100  1.0
  N  N479  1  0.278400  0.543100  0.589100  1.0
  N  N480  1  0.721600  0.456900  0.410900  1.0
  N  N481  1  0.206800  0.424900  0.674700  1.0
  N  N482  1  0.793200  0.575100  0.325300  1.0
  N  N483  1  0.153700  0.320200  0.633700  1.0
  N  N484  1  0.846300  0.679800  0.366300  1.0
  N  N485  1  0.349700  0.354100  0.552000  1.0
  N  N486  1  0.650300  0.645900  0.448000  1.0
  N  N487  1  0.234800  0.424500  0.493000  1.0
  N  N488  1  0.765200  0.575500  0.507000  1.0
  N  N489  1  0.112900  0.513800  0.545700  1.0
  N  N490  1  0.887100  0.486200  0.454300  1.0
  N  N491  1  0.460200  0.011600  0.160500  1.0
  N  N492  1  0.539800  0.988400  0.839500  1.0
  N  N493  1  0.563800  0.885100  0.148300  1.0
  N  N494  1  0.436200  0.114900  0.851700  1.0
  N  N495  1  0.737700  0.911100  0.126800  1.0
  N  N496  1  0.262300  0.088900  0.873200  1.0
  O  O497  1  0.436700  0.576500  0.738500  1
  O  O498  1  0.563300  0.423500  0.261500  1
  O  O499  1  0.389700  0.699100  0.720600  1
  O  O500  1  0.610300  0.300900  0.279400  1
  O  O501  1  0.490600  0.660000  0.656900  1
  O  O502  1  0.509400  0.340000  0.343100  1
  O  O503  1  0.048700  0.693500  0.171700  1
  O  O504  1  0.951300  0.306500  0.828300  1
  O  O505  1  0.076200  0.744500  0.083700  1
  O  O506  1  0.923800  0.255500  0.916300  1
  O  O507  1  0.179200  0.728600  0.125600  1
  O  O508  1  0.820800  0.271400  0.874400  1
  O  O509  1  0.052000  0.898500  0.162600  1
  O  O510  1  0.948000  0.101500  0.837400  1
  O  O511  1  0.093000  0.015100  0.156400  1
  O  O512  1  0.907000  0.984900  0.843600  1
  O  O513  1  0.097200  0.921900  0.227600  1
  O  O514  1  0.902800  0.078100  0.772400  1
  O  O515  1  0.168000  0.878800  0.672900  1
  O  O516  1  0.832000  0.121200  0.327100  1
  O  O517  1  0.237000  0.762800  0.698300  1
  O  O518  1  0.763000  0.237200  0.301700  1
  O  O519  1  0.100000  0.789200  0.749200  1
  O  O520  1  0.900000  0.210800  0.250800  1
  O  O521  1  0.476600  0.453100  0.572500  1.0
  O  O522  1  0.523400  0.546900  0.427500  1.0
  O  O523  1  0.332700  0.234500  0.687000  1.0
  O  O524  1  0.667300  0.765500  0.313000  1.0
  O  O525  1  0.105900  0.676700  0.603100  1.0
  O  O526  1  0.894100  0.323300  0.396900  1.0
  O  O527  1  0.973600  0.437200  0.656000  1.0
  O  O528  1  0.026400  0.562800  0.344000  1.0
  O  O529  1  0.871600  0.025500  0.027600  1.0
  O  O530  1  0.128400  0.974500  0.972400  1.0
  O  O531  1  0.823500  0.966900  0.218600  1.0
  O  O532  1  0.176500  0.033100  0.781400  1.0
  O  O533  1  0.473700  0.149400  0.061600  1.0
  O  O534  1  0.526300  0.850600  0.938400  1.0
  O  O535  1  0.419100  0.150900  0.249100  1.0
  O  O536  1  0.580900  0.849100  0.750900  1.0
