# generated using pymatgen
data_Cd2P4H94C141N19(O5F12)2
_symmetry_space_group_name_H-M   'P 1'
_cell_length_a   13.74350000
_cell_length_b   20.97380000
_cell_length_c   28.04030000
_cell_angle_alpha   111.04000000
_cell_angle_beta   91.40600000
_cell_angle_gamma   104.65100000
_symmetry_Int_Tables_number   1
_chemical_formula_structural   Cd2P4H94C141N19(O5F12)2
_chemical_formula_sum   'Cd4 P8 H188 C282 N38 O20 F48'
_cell_volume   7238.75692689
_cell_formula_units_Z   2
loop_
 _symmetry_equiv_pos_site_id
 _symmetry_equiv_pos_as_xyz
  1  'x, y, z'
loop_
 _atom_site_type_symbol
 _atom_site_label
 _atom_site_symmetry_multiplicity
 _atom_site_fract_x
 _atom_site_fract_y
 _atom_site_fract_z
 _atom_site_occupancy
  Cd  Cd1  1  0.023390  0.257120  0.953230  1.0
  Cd  Cd2  1  0.976610  0.742880  0.046770  1.0
  Cd  Cd3  1  0.292730  0.332950  0.656750  1.0
  Cd  Cd4  1  0.707270  0.667050  0.343250  1.0
  P  P5  1  0.704600  0.901500  0.224400  1
  P  P6  1  0.295400  0.098500  0.775600  1
  P  P7  1  0.604600  0.431600  0.150100  1
  P  P8  1  0.395400  0.568400  0.849900  1
  P  P9  1  0.261700  0.098500  0.355500  1
  P  P10  1  0.738300  0.901500  0.644500  1
  P  P11  1  0.215900  0.573900  0.491200  1
  P  P12  1  0.784100  0.426100  0.508800  1
  H  H13  1  0.917600  0.333500  0.797900  1.0
  H  H14  1  0.082400  0.666500  0.202100  1.0
  H  H15  1  0.083000  0.397800  0.795100  1.0
  H  H16  1  0.917000  0.602200  0.204900  1.0
  H  H17  1  0.212700  0.425800  0.863900  1.0
  H  H18  1  0.787300  0.574200  0.136100  1.0
  H  H19  1  0.283900  0.477500  0.945800  1.0
  H  H20  1  0.716100  0.522500  0.054200  1.0
  H  H21  1  0.366600  0.411200  0.054800  1.0
  H  H22  1  0.633400  0.588800  0.945200  1.0
  H  H23  1  0.358400  0.325800  0.074600  1.0
  H  H24  1  0.641600  0.674200  0.925400  1.0
  H  H25  1  0.330000  0.232000  0.103700  1.0
  H  H26  1  0.670000  0.768000  0.896300  1.0
  H  H27  1  0.182800  0.141000  0.071300  1.0
  H  H28  1  0.817200  0.859000  0.928700  1.0
  H  H29  1  0.676500  0.322000  0.936000  1.0
  H  H30  1  0.323500  0.678000  0.064000  1.0
  H  H31  1  0.575600  0.216200  0.872200  1.0
  H  H32  1  0.424400  0.783800  0.127800  1.0
  H  H33  1  0.652900  0.154000  0.807000  1.0
  H  H34  1  0.347100  0.846000  0.193000  1.0
  H  H35  1  0.883400  0.471700  0.993000  1.0
  H  H36  1  0.116600  0.528300  0.007000  1.0
  H  H37  1  0.784200  0.411400  0.992100  1.0
  H  H38  1  0.215800  0.588600  0.007900  1.0
  H  H39  1  0.788800  0.446200  0.949600  1.0
  H  H40  1  0.211200  0.553800  0.050400  1.0
  H  H41  1  0.826100  0.106100  0.721300  1.0
  H  H42  1  0.173900  0.893900  0.278700  1.0
  H  H43  1  0.729300  0.136300  0.726800  1.0
  H  H44  1  0.270700  0.863700  0.273200  1.0
  H  H45  1  0.741300  0.084300  0.755100  1.0
  H  H46  1  0.258700  0.915700  0.244900  1.0
  H  H47  1  0.786300  0.107500  0.051600  1.0
  H  H48  1  0.213700  0.892500  0.948400  1.0
  H  H49  1  0.763300  0.012200  0.979600  1.0
  H  H50  1  0.236700  0.987800  0.020400  1.0
  H  H51  1  0.881700  0.973600  0.925400  1.0
  H  H52  1  0.118300  0.026400  0.074600  1.0
  H  H53  1  0.917100  0.266000  0.144900  1.0
  H  H54  1  0.082900  0.734000  0.855100  1.0
  H  H55  1  0.872300  0.182300  0.131100  1.0
  H  H56  1  0.127700  0.817700  0.868900  1.0
  H  H57  1  0.826500  0.219900  0.099000  1.0
  H  H58  1  0.173500  0.780100  0.901000  1.0
  H  H59  1  0.137700  0.001500  0.879600  1.0
  H  H60  1  0.862300  0.998500  0.120400  1.0
  H  H61  1  0.018500  0.990000  0.868400  1.0
  H  H62  1  0.981500  0.010000  0.131600  1.0
  H  H63  1  0.059800  0.957200  0.905500  1.0
  H  H64  1  0.940200  0.042800  0.094500  1.0
  H  H65  1  0.420200  0.568100  0.976900  1.0
  H  H66  1  0.579800  0.431900  0.023100  1.0
  H  H67  1  0.595000  0.712700  0.111900  1.0
  H  H68  1  0.405000  0.287300  0.888100  1.0
  H  H69  1  0.411800  0.520700  0.104900  1.0
  H  H70  1  0.588200  0.479300  0.895100  1.0
  H  H71  1  0.610300  0.784600  0.018800  1.0
  H  H72  1  0.389700  0.215400  0.981200  1.0
  H  H73  1  0.658100  0.756000  0.057000  1.0
  H  H74  1  0.341900  0.244000  0.943000  1.0
  H  H75  1  0.558600  0.782400  0.068900  1.0
  H  H76  1  0.441400  0.217600  0.931100  1.0
  H  H77  1  0.068500  0.794100  0.304600  1.0
  H  H78  1  0.931500  0.205900  0.695400  1.0
  H  H79  1  0.002300  0.832900  0.244800  1.0
  H  H80  1  0.997700  0.167100  0.755200  1.0
  H  H81  1  0.825100  0.781500  0.212800  1.0
  H  H82  1  0.174900  0.218500  0.787200  1.0
  H  H83  1  0.693200  0.694000  0.166200  1.0
  H  H84  1  0.306800  0.306000  0.833800  1.0
  H  H85  1  0.419400  0.591300  0.191200  1.0
  H  H86  1  0.580600  0.408700  0.808800  1.0
  H  H87  1  0.347800  0.560900  0.244900  1.0
  H  H88  1  0.652200  0.439100  0.755100  1.0
  H  H89  1  0.253400  0.524600  0.304600  1.0
  H  H90  1  0.746600  0.475400  0.695400  1.0
  H  H91  1  0.335100  0.546900  0.387200  1.0
  H  H92  1  0.664900  0.453100  0.612800  1.0
  H  H93  1  0.052000  0.571500  0.358200  1.0
  H  H94  1  0.948000  0.428500  0.641800  1.0
  H  H95  1  0.137300  0.659900  0.433600  1.0
  H  H96  1  0.862700  0.340100  0.566400  1.0
  H  H97  1  0.108800  0.769200  0.462400  1.0
  H  H98  1  0.891200  0.230800  0.537600  1.0
  H  H99  1  0.928900  0.490600  0.236400  1.0
  H  H100  1  0.071100  0.509400  0.763600  1.0
  H  H101  1  0.947600  0.499700  0.295300  1.0
  H  H102  1  0.052400  0.500300  0.704700  1.0
  H  H103  1  0.040200  0.527900  0.267800  1.0
  H  H104  1  0.959800  0.472100  0.732200  1.0
  H  H105  1  0.061900  0.929000  0.449200  1.0
  H  H106  1  0.938100  0.071000  0.550800  1.0
  H  H107  1  0.148000  0.890600  0.451100  1.0
  H  H108  1  0.852000  0.109400  0.548900  1.0
  H  H109  1  0.050800  0.877200  0.480200  1.0
  H  H110  1  0.949200  0.122800  0.519800  1.0
  H  H111  1  0.629800  0.760100  0.528200  1.0
  H  H112  1  0.370200  0.239900  0.471800  1.0
  H  H113  1  0.673000  0.673900  0.552200  1.0
  H  H114  1  0.327000  0.326100  0.447800  1.0
  H  H115  1  0.628900  0.555200  0.494600  1.0
  H  H116  1  0.371100  0.444800  0.505400  1.0
  H  H117  1  0.516100  0.837900  0.469700  1.0
  H  H118  1  0.483900  0.162100  0.530300  1.0
  H  H119  1  0.611500  0.826800  0.496300  1.0
  H  H120  1  0.388500  0.173200  0.503700  1.0
  H  H121  1  0.499900  0.797700  0.509000  1.0
  H  H122  1  0.500100  0.202300  0.491000  1.0
  H  H123  1  0.526800  0.402400  0.387200  1.0
  H  H124  1  0.473200  0.597600  0.612800  1.0
  H  H125  1  0.505600  0.444500  0.444200  1.0
  H  H126  1  0.494400  0.555500  0.555800  1.0
  H  H127  1  0.619000  0.457100  0.429800  1.0
  H  H128  1  0.381000  0.542900  0.570200  1.0
  H  H129  1  0.087200  0.145500  0.853700  1.0
  H  H130  1  0.912800  0.854500  0.146300  1.0
  H  H131  1  0.022000  0.041200  0.778200  1.0
  H  H132  1  0.978000  0.958800  0.221800  1.0
  H  H133  1  0.847200  0.980500  0.772900  1.0
  H  H134  1  0.152800  0.019500  0.227100  1.0
  H  H135  1  0.750900  0.027300  0.833600  1.0
  H  H136  1  0.249100  0.972700  0.166400  1.0
  H  H137  1  0.670400  0.066000  0.900400  1.0
  H  H138  1  0.329600  0.934000  0.099600  1.0
  H  H139  1  0.677700  0.241000  0.028700  1.0
  H  H140  1  0.322300  0.759000  0.971300  1.0
  H  H141  1  0.770900  0.339200  0.086900  1.0
  H  H142  1  0.229100  0.660800  0.913100  1.0
  H  H143  1  0.876900  0.454800  0.136200  1.0
  H  H144  1  0.123100  0.545200  0.863800  1.0
  H  H145  1  0.037600  0.487100  0.115100  1.0
  H  H146  1  0.962400  0.512900  0.884900  1.0
  H  H147  1  0.090300  0.416700  0.046700  1.0
  H  H148  1  0.909700  0.583300  0.953300  1.0
  H  H149  1  0.511300  0.086400  0.884300  1.0
  H  H150  1  0.488700  0.913600  0.115700  1.0
  H  H151  1  0.336200  0.058000  0.881900  1.0
  H  H152  1  0.663800  0.942000  0.118100  1.0
  H  H153  1  0.265600  0.062000  0.951900  1.0
  H  H154  1  0.734400  0.938000  0.048100  1.0
  H  H155  1  0.363000  0.105800  0.035000  1.0
  H  H156  1  0.637000  0.894200  0.965000  1.0
  H  H157  1  0.576200  0.045500  0.040800  1.0
  H  H158  1  0.423800  0.954500  0.959200  1.0
  H  H159  1  0.683600  0.070900  0.120700  1.0
  H  H160  1  0.316400  0.929100  0.879300  1.0
  H  H161  1  0.625200  0.262100  0.174600  1.0
  H  H162  1  0.374800  0.737900  0.825400  1.0
  H  H163  1  0.541500  0.239500  0.093900  1.0
  H  H164  1  0.458500  0.760500  0.906100  1.0
  H  H165  1  0.687100  0.077600  0.200300  1.0
  H  H166  1  0.312900  0.922400  0.799700  1.0
  H  H167  1  0.790600  0.107500  0.279800  1.0
  H  H168  1  0.209400  0.892500  0.720200  1.0
  H  H169  1  0.862500  0.315600  0.304600  1.0
  H  H170  1  0.137500  0.684400  0.695400  1.0
  H  H171  1  0.774400  0.292000  0.226500  1.0
  H  H172  1  0.225600  0.708000  0.773500  1.0
  H  H173  1  0.963800  0.145100  0.317900  1.0
  H  H174  1  0.036200  0.854900  0.682100  1.0
  H  H175  1  0.074600  0.173400  0.393800  1.0
  H  H176  1  0.925400  0.826600  0.606200  1.0
  H  H177  1  0.964700  0.335700  0.469800  1.0
  H  H178  1  0.035300  0.664300  0.530200  1.0
  H  H179  1  0.859600  0.315400  0.398500  1.0
  H  H180  1  0.140400  0.684600  0.601500  1.0
  H  H181  1  0.319300  0.499100  0.723500  1.0
  H  H182  1  0.680700  0.500900  0.276500  1.0
  H  H183  1  0.308000  0.598800  0.716900  1.0
  H  H184  1  0.692000  0.401200  0.283100  1.0
  H  H185  1  0.208500  0.590100  0.636200  1.0
  H  H186  1  0.791500  0.409900  0.363800  1.0
  H  H187  1  0.151700  0.468100  0.576300  1.0
  H  H188  1  0.848300  0.531900  0.423700  1.0
  H  H189  1  0.107500  0.383900  0.519900  1.0
  H  H190  1  0.892500  0.616100  0.480100  1.0
  H  H191  1  0.102000  0.175600  0.470900  1.0
  H  H192  1  0.898000  0.824400  0.529100  1.0
  H  H193  1  0.147600  0.104800  0.496900  1.0
  H  H194  1  0.852400  0.895200  0.503100  1.0
  H  H195  1  0.209700  0.023200  0.519600  1.0
  H  H196  1  0.790300  0.976800  0.480400  1.0
  H  H197  1  0.307600  0.066300  0.606000  1.0
  H  H198  1  0.692400  0.933700  0.394000  1.0
  H  H199  1  0.324000  0.187200  0.658000  1.0
  H  H200  1  0.676000  0.812800  0.342000  1.0
  C  C201  1  0.526000  0.042700  0.291900  1
  C  C202  1  0.474000  0.957300  0.708100  1
  C  C203  1  0.470000  0.014500  0.235900  1
  C  C204  1  0.530000  0.985500  0.764100  1
  C  C205  1  0.132000  0.353400  0.167400  1
  C  C206  1  0.868000  0.646600  0.832600  1
  C  C207  1  0.207000  0.417000  0.157600  1
  C  C208  1  0.793000  0.583000  0.842400  1
  C  C209  1  0.754000  0.105000  0.398700  1
  C  C210  1  0.246000  0.895000  0.601300  1
  C  C211  1  0.702000  0.102900  0.441700  1
  C  C212  1  0.298000  0.897100  0.558300  1
  C  C213  1  0.305000  0.100900  0.127500  1
  C  C214  1  0.695000  0.899100  0.872500  1
  C  C215  1  0.354000  0.127000  0.162300  1
  C  C216  1  0.646000  0.873000  0.837700  1
  C  C217  1  0.980000  0.950300  0.346200  1
  C  C218  1  0.020000  0.049700  0.653800  1
  C  C219  1  0.969000  0.008300  0.389700  1
  C  C220  1  0.031000  0.991700  0.610300  1
  C  C221  1  0.264000  0.832000  0.366000  1
  C  C222  1  0.736000  0.168000  0.634000  1
  C  C223  1  0.323000  0.742000  0.375200  1
  C  C224  1  0.677000  0.258000  0.624800  1
  C  C225  1  0.523000  0.063000  0.615300  1
  C  C226  1  0.477000  0.937000  0.384700  1
  C  C227  1  0.526000  0.953000  0.545000  1
  C  C228  1  0.474000  0.047000  0.455000  1
  C  C229  1  0.373000  0.355000  0.257000  1
  C  C230  1  0.627000  0.645000  0.743000  1
  C  C231  1  0.136000  0.172000  0.239000  1
  C  C232  1  0.864000  0.828000  0.761000  1
  C  C233  1  0.076000  0.234000  0.222000  1
  C  C234  1  0.924000  0.766000  0.778000  1
  C  C235  1  0.077000  0.408400  0.308500  1
  C  C236  1  0.923000  0.591600  0.691500  1
  C  C237  1  0.953800  0.312000  0.860500  1.0
  C  C238  1  0.046200  0.688000  0.139500  1.0
  C  C239  1  0.971600  0.340900  0.822900  1.0
  C  C240  1  0.028400  0.659100  0.177100  1.0
  C  C241  1  0.069000  0.380700  0.822000  1.0
  C  C242  1  0.931000  0.619300  0.178000  1.0
  C  C243  1  0.146900  0.395400  0.861600  1.0
  C  C244  1  0.853100  0.604600  0.138400  1.0
  C  C245  1  0.121600  0.362700  0.897300  1.0
  C  C246  1  0.878400  0.637300  0.102700  1.0
  C  C247  1  0.196200  0.378200  0.943700  1.0
  C  C248  1  0.803800  0.621800  0.056300  1.0
  C  C249  1  0.275800  0.444800  0.962700  1.0
  C  C250  1  0.724200  0.555200  0.037300  1.0
  C  C251  1  0.339400  0.459000  0.006500  1.0
  C  C252  1  0.660600  0.541000  0.993500  1.0
  C  C253  1  0.321900  0.404900  0.026100  1.0
  C  C254  1  0.678100  0.595100  0.973900  1.0
  C  C255  1  0.246400  0.345300  0.006900  1.0
  C  C256  1  0.753600  0.654700  0.993100  1.0
  C  C257  1  0.228800  0.292800  0.027800  1.0
  C  C258  1  0.771200  0.707200  0.972200  1.0
  C  C259  1  0.296700  0.288600  0.062000  1.0
  C  C260  1  0.703300  0.711400  0.938000  1.0
  C  C261  1  0.280800  0.232800  0.079700  1.0
  C  C262  1  0.719200  0.767200  0.920300  1.0
  C  C263  1  0.195000  0.181500  0.062000  1.0
  C  C264  1  0.805000  0.818500  0.938000  1.0
  C  C265  1  0.119600  0.188600  0.027200  1.0
  C  C266  1  0.880400  0.811400  0.972800  1.0
  C  C267  1  0.851000  0.281300  0.866400  1.0
  C  C268  1  0.149000  0.718700  0.133600  1.0
  C  C269  1  0.804000  0.315900  0.904100  1.0
  C  C270  1  0.196000  0.684100  0.095900  1.0
  C  C271  1  0.705000  0.294800  0.908000  1.0
  C  C272  1  0.295000  0.705200  0.092000  1.0
  C  C273  1  0.646000  0.233100  0.871000  1.0
  C  C274  1  0.354000  0.766900  0.129000  1.0
  C  C275  1  0.693000  0.197300  0.832700  1.0
  C  C276  1  0.307000  0.802700  0.167300  1.0
  C  C277  1  0.788000  0.218100  0.828600  1.0
  C  C278  1  0.212000  0.781900  0.171400  1.0
  C  C279  1  0.828300  0.430900  0.970700  1.0
  C  C280  1  0.171700  0.569100  0.029300  1.0
  C  C281  1  0.777800  0.122600  0.744600  1.0
  C  C282  1  0.222200  0.877400  0.255400  1.0
  C  C283  1  0.011000  0.130700  0.009100  1.0
  C  C284  1  0.989000  0.869300  0.990900  1.0
  C  C285  1  0.939000  0.148000  0.040900  1.0
  C  C286  1  0.061000  0.852000  0.959100  1.0
  C  C287  1  0.839000  0.100000  0.030800  1.0
  C  C288  1  0.161000  0.900000  0.969200  1.0
  C  C289  1  0.830000  0.044000  0.989000  1.0
  C  C290  1  0.170000  0.956000  0.011000  1.0
  C  C291  1  0.901000  0.018500  0.953300  1.0
  C  C292  1  0.099000  0.981500  0.046700  1.0
  C  C293  1  0.006000  0.069600  0.964200  1.0
  C  C294  1  0.994000  0.930400  0.035800  1.0
  C  C295  1  0.888000  0.219600  0.116900  1.0
  C  C296  1  0.112000  0.780400  0.883100  1.0
  C  C297  1  0.073700  0.997500  0.894400  1.0
  C  C298  1  0.926300  0.002500  0.105600  1.0
  C  C299  1  0.413400  0.532100  0.035500  1.0
  C  C300  1  0.586600  0.467900  0.964500  1.0
  C  C301  1  0.443300  0.580600  0.012100  1.0
  C  C302  1  0.556700  0.419400  0.987900  1.0
  C  C303  1  0.508900  0.649400  0.041400  1.0
  C  C304  1  0.491100  0.350600  0.958600  1.0
  C  C305  1  0.547400  0.668000  0.092900  1.0
  C  C306  1  0.452600  0.332000  0.907100  1.0
  C  C307  1  0.512500  0.617900  0.114700  1.0
  C  C308  1  0.487500  0.382100  0.885300  1.0
  C  C309  1  0.440500  0.551300  0.087700  1.0
  C  C310  1  0.559500  0.448700  0.912300  1.0
  C  C311  1  0.594900  0.758200  0.041600  1.0
  C  C312  1  0.405100  0.241800  0.958400  1.0
  C  C313  1  0.931000  0.725900  0.308200  1.0
  C  C314  1  0.069000  0.274100  0.691800  1.0
  C  C315  1  0.998000  0.776400  0.291500  1.0
  C  C316  1  0.002000  0.223600  0.708500  1.0
  C  C317  1  0.960200  0.798900  0.256000  1.0
  C  C318  1  0.039800  0.201100  0.744000  1.0
  C  C319  1  0.857000  0.769300  0.237500  1.0
  C  C320  1  0.143000  0.230700  0.762500  1.0
  C  C321  1  0.801000  0.719900  0.257700  1.0
  C  C322  1  0.199000  0.280100  0.742300  1.0
  C  C323  1  0.692000  0.684400  0.236800  1.0
  C  C324  1  0.308000  0.315600  0.763200  1.0
  C  C325  1  0.652500  0.673700  0.186900  1.0
  C  C326  1  0.347500  0.326300  0.813100  1.0
  C  C327  1  0.551000  0.632300  0.167800  1.0
  C  C328  1  0.449000  0.367700  0.832200  1.0
  C  C329  1  0.490000  0.612400  0.200600  1.0
  C  C330  1  0.510000  0.387600  0.799400  1.0
  C  C331  1  0.537000  0.624400  0.248400  1.0
  C  C332  1  0.463000  0.375600  0.751600  1.0
  C  C333  1  0.484000  0.608100  0.286500  1.0
  C  C334  1  0.516000  0.391900  0.713500  1.0
  C  C335  1  0.383000  0.571900  0.277700  1.0
  C  C336  1  0.617000  0.428100  0.722300  1.0
  C  C337  1  0.324000  0.548700  0.314100  1.0
  C  C338  1  0.676000  0.451300  0.685900  1.0
  C  C339  1  0.370000  0.561800  0.362500  1.0
  C  C340  1  0.630000  0.438200  0.637500  1.0
  C  C341  1  0.472000  0.598700  0.371500  1.0
  C  C342  1  0.528000  0.401300  0.628500  1.0
  C  C343  1  0.986000  0.703000  0.346400  1.0
  C  C344  1  0.014000  0.297000  0.653600  1.0
  C  C345  1  0.995000  0.636000  0.331600  1.0
  C  C346  1  0.005000  0.364000  0.668400  1.0
  C  C347  1  0.048000  0.619000  0.366600  1.0
  C  C348  1  0.952000  0.381000  0.633400  1.0
  C  C349  1  0.094000  0.671000  0.412100  1.0
  C  C350  1  0.906000  0.329000  0.587900  1.0
  C  C351  1  0.082000  0.736000  0.428400  1.0
  C  C352  1  0.918000  0.264000  0.571600  1.0
  C  C353  1  0.029000  0.756700  0.394800  1.0
  C  C354  1  0.971000  0.243300  0.605200  1.0
  C  C355  1  0.968000  0.521500  0.270200  1.0
  C  C356  1  0.032000  0.478500  0.729800  1.0
  C  C357  1  0.075000  0.885400  0.449700  1.0
  C  C358  1  0.925000  0.114600  0.550300  1.0
  C  C359  1  0.533900  0.622200  0.422100  1.0
  C  C360  1  0.466100  0.377800  0.577900  1.0
  C  C361  1  0.560100  0.692700  0.456300  1.0
  C  C362  1  0.439900  0.307300  0.543700  1.0
  C  C363  1  0.611900  0.712000  0.504800  1.0
  C  C364  1  0.388100  0.288000  0.495200  1.0
  C  C365  1  0.637600  0.660700  0.519100  1.0
  C  C366  1  0.362400  0.339300  0.480900  1.0
  C  C367  1  0.611400  0.590200  0.484900  1.0
  C  C368  1  0.388600  0.409800  0.515100  1.0
  C  C369  1  0.559600  0.570900  0.436400  1.0
  C  C370  1  0.440400  0.429100  0.563600  1.0
  C  C371  1  0.540000  0.805600  0.482100  1.0
  C  C372  1  0.460000  0.194400  0.517900  1.0
  C  C373  1  0.548000  0.447500  0.417000  1.0
  C  C374  1  0.452000  0.552500  0.583000  1.0
  C  C375  1  0.017200  0.120900  0.848700  1.0
  C  C376  1  0.982800  0.879100  0.151300  1.0
  C  C377  1  0.981000  0.058200  0.803800  1.0
  C  C378  1  0.019000  0.941800  0.196200  1.0
  C  C379  1  0.878000  0.023900  0.801000  1.0
  C  C380  1  0.122000  0.976100  0.199000  1.0
  C  C381  1  0.820800  0.051700  0.837800  1.0
  C  C382  1  0.179200  0.948300  0.162200  1.0
  C  C383  1  0.859800  0.115000  0.882100  1.0
  C  C384  1  0.140200  0.885000  0.117900  1.0
  C  C385  1  0.806300  0.146500  0.923800  1.0
  C  C386  1  0.193700  0.853500  0.076200  1.0
  C  C387  1  0.704000  0.112300  0.924500  1.0
  C  C388  1  0.296000  0.887700  0.075500  1.0
  C  C389  1  0.657000  0.151900  0.963700  1.0
  C  C390  1  0.343000  0.848100  0.036300  1.0
  C  C391  1  0.708800  0.215600  0.001100  1.0
  C  C392  1  0.291200  0.784400  0.998900  1.0
  C  C393  1  0.809000  0.240400  0.996300  1.0
  C  C394  1  0.191000  0.759600  0.003700  1.0
  C  C395  1  0.875100  0.315700  0.037300  1.0
  C  C396  1  0.124900  0.684300  0.962700  1.0
  C  C397  1  0.836700  0.356300  0.078800  1.0
  C  C398  1  0.163300  0.643700  0.921200  1.0
  C  C399  1  0.899200  0.423100  0.107800  1.0
  C  C400  1  0.100800  0.576900  0.892200  1.0
  C  C401  1  0.992500  0.442000  0.094800  1.0
  C  C402  1  0.007500  0.558000  0.905200  1.0
  C  C403  1  0.024000  0.398200  0.053300  1.0
  C  C404  1  0.976000  0.601800  0.946700  1.0
  C  C405  1  0.547000  0.120000  0.964300  1.0
  C  C406  1  0.453000  0.880000  0.035700  1.0
  C  C407  1  0.482000  0.091900  0.915300  1.0
  C  C408  1  0.518000  0.908100  0.084700  1.0
  C  C409  1  0.378000  0.073400  0.913700  1.0
  C  C410  1  0.622000  0.926600  0.086300  1.0
  C  C411  1  0.338000  0.076700  0.954500  1.0
  C  C412  1  0.662000  0.923300  0.045500  1.0
  C  C413  1  0.396000  0.101900  0.005100  1.0
  C  C414  1  0.604000  0.898100  0.994900  1.0
  C  C415  1  0.499000  0.119600  0.007800  1.0
  C  C416  1  0.501000  0.880400  0.992200  1.0
  C  C417  1  0.554200  0.140600  0.061200  1.0
  C  C418  1  0.445800  0.859400  0.938800  1.0
  C  C419  1  0.590000  0.090800  0.068000  1.0
  C  C420  1  0.410000  0.909200  0.932000  1.0
  C  C421  1  0.651400  0.104400  0.117100  1.0
  C  C422  1  0.348600  0.895600  0.882900  1.0
  C  C423  1  0.658700  0.167600  0.156500  1.0
  C  C424  1  0.341300  0.832400  0.843500  1.0
  C  C425  1  0.617900  0.217600  0.147400  1.0
  C  C426  1  0.382100  0.782400  0.852600  1.0
  C  C427  1  0.567000  0.204200  0.099400  1.0
  C  C428  1  0.433000  0.795800  0.900600  1.0
  C  C429  1  0.717400  0.182100  0.207700  1.0
  C  C430  1  0.282600  0.817900  0.792300  1.0
  C  C431  1  0.722600  0.125400  0.221100  1.0
  C  C432  1  0.277400  0.874600  0.778900  1.0
  C  C433  1  0.784000  0.143600  0.267900  1.0
  C  C434  1  0.216000  0.856400  0.732100  1.0
  C  C435  1  0.836000  0.215000  0.296600  1.0
  C  C436  1  0.164000  0.785000  0.703400  1.0
  C  C437  1  0.829000  0.267900  0.282700  1.0
  C  C438  1  0.171000  0.732100  0.717300  1.0
  C  C439  1  0.775000  0.254600  0.238000  1.0
  C  C440  1  0.225000  0.745400  0.762000  1.0
  C  C441  1  0.905000  0.232000  0.352000  1.0
  C  C442  1  0.095000  0.768000  0.648000  1.0
  C  C443  1  0.966000  0.184700  0.348600  1.0
  C  C444  1  0.034000  0.815300  0.651400  1.0
  C  C445  1  0.029100  0.200800  0.393800  1.0
  C  C446  1  0.970900  0.799200  0.606200  1.0
  C  C447  1  0.026000  0.256000  0.438100  1.0
  C  C448  1  0.974000  0.744000  0.561900  1.0
  C  C449  1  0.964000  0.297400  0.438700  1.0
  C  C450  1  0.036000  0.702600  0.561300  1.0
  C  C451  1  0.903000  0.286200  0.396900  1.0
  C  C452  1  0.097000  0.713800  0.603100  1.0
  C  C453  1  0.287000  0.495000  0.691700  1.0
  C  C454  1  0.713000  0.505000  0.308300  1.0
  C  C455  1  0.279000  0.554600  0.689300  1.0
  C  C456  1  0.721000  0.445400  0.310700  1.0
  C  C457  1  0.222000  0.551000  0.642400  1.0
  C  C458  1  0.778000  0.449000  0.357600  1.0
  C  C459  1  0.190000  0.476000  0.607600  1.0
  C  C460  1  0.810000  0.524000  0.392400  1.0
  C  C461  1  0.204000  0.422000  0.610500  1.0
  C  C462  1  0.796000  0.578000  0.389500  1.0
  C  C463  1  0.176000  0.355400  0.572700  1.0
  C  C464  1  0.824000  0.644600  0.427300  1.0
  C  C465  1  0.122000  0.345200  0.526100  1.0
  C  C466  1  0.878000  0.654800  0.473900  1.0
  C  C467  1  0.089000  0.275000  0.488600  1.0
  C  C468  1  0.911000  0.725000  0.511400  1.0
  C  C469  1  0.119000  0.222600  0.496200  1.0
  C  C470  1  0.881000  0.777400  0.503800  1.0
  C  C471  1  0.178000  0.243000  0.546300  1.0
  C  C472  1  0.822000  0.757000  0.453700  1.0
  C  C473  1  0.211000  0.191600  0.560100  1.0
  C  C474  1  0.789000  0.808400  0.439900  1.0
  C  C475  1  0.188000  0.121000  0.529100  1.0
  C  C476  1  0.812000  0.879000  0.470900  1.0
  C  C477  1  0.223000  0.071300  0.542800  1.0
  C  C478  1  0.777000  0.928700  0.457200  1.0
  C  C479  1  0.281000  0.096100  0.593800  1.0
  C  C480  1  0.719000  0.903900  0.406200  1.0
  C  C481  1  0.293000  0.169600  0.623300  1.0
  C  C482  1  0.707000  0.830400  0.376700  1.0
  N  N483  1  0.437700  0.000900  0.196300  1
  N  N484  1  0.562300  0.999100  0.803700  1
  N  N485  1  0.254800  0.467600  0.147900  1
  N  N486  1  0.745200  0.532400  0.852100  1
  N  N487  1  0.665000  0.097000  0.480100  1
  N  N488  1  0.335000  0.903000  0.519900  1
  N  N489  1  0.405000  0.162800  0.216600  1
  N  N490  1  0.595000  0.837200  0.783400  1
  N  N491  1  0.958600  0.050500  0.427500  1
  N  N492  1  0.041400  0.949500  0.572500  1
  N  N493  1  0.449000  0.789000  0.276000  1
  N  N494  1  0.551000  0.211000  0.724000  1
  N  N495  1  0.602000  0.007000  0.566500  1
  N  N496  1  0.398000  0.993000  0.433500  1
  N  N497  1  0.033500  0.323500  0.896300  1.0
  N  N498  1  0.966500  0.676500  0.103700  1.0
  N  N499  1  0.183900  0.331400  0.964900  1.0
  N  N500  1  0.816100  0.668600  0.035100  1.0
  N  N501  1  0.135100  0.237600  0.007100  1.0
  N  N502  1  0.864900  0.762400  0.992900  1.0
  N  N503  1  0.961300  0.148200  0.884700  1.0
  N  N504  1  0.038700  0.851800  0.115300  1.0
  N  N505  1  0.855700  0.208400  0.960300  1.0
  N  N506  1  0.144300  0.791600  0.039700  1.0
  N  N507  1  0.971800  0.329400  0.018800  1.0
  N  N508  1  0.028200  0.670600  0.981200  1.0
  N  N509  1  0.830900  0.700300  0.294600  1.0
  N  N510  1  0.169100  0.299700  0.705400  1.0
  N  N511  1  0.635100  0.660600  0.266700  1.0
  N  N512  1  0.364900  0.339400  0.733300  1.0
  N  N513  1  0.528400  0.618000  0.336200  1.0
  N  N514  1  0.471600  0.382000  0.663800  1.0
  N  N515  1  0.255600  0.425600  0.653700  1.0
  N  N516  1  0.744400  0.574400  0.346300  1.0
  N  N517  1  0.201400  0.306400  0.578600  1.0
  N  N518  1  0.798600  0.693600  0.421400  1.0
  N  N519  1  0.266400  0.215800  0.607900  1.0
  N  N520  1  0.733600  0.784200  0.392100  1.0
  O  O521  1  0.242000  0.284000  0.255000  1
  O  O522  1  0.758000  0.716000  0.745000  1
  O  O523  1  0.869600  0.378000  0.938400  1.0
  O  O524  1  0.130400  0.622000  0.061600  1.0
  O  O525  1  0.833700  0.185400  0.791100  1.0
  O  O526  1  0.166300  0.814600  0.208900  1.0
  O  O527  1  0.959000  0.206300  0.082100  1.0
  O  O528  1  0.041000  0.793700  0.917900  1.0
  O  O529  1  0.080900  0.061300  0.937600  1.0
  O  O530  1  0.919100  0.938700  0.062400  1.0
  O  O531  1  0.534600  0.689600  0.013400  1.0
  O  O532  1  0.465400  0.310400  0.986600  1.0
  O  O533  1  0.946400  0.592000  0.286900  1.0
  O  O534  1  0.053600  0.408000  0.713100  1.0
  O  O535  1  0.022400  0.825700  0.403700  1.0
  O  O536  1  0.977600  0.174300  0.596300  1.0
  O  O537  1  0.527400  0.737500  0.439200  1.0
  O  O538  1  0.472600  0.262500  0.560800  1.0
  O  O539  1  0.535700  0.505800  0.401500  1.0
  O  O540  1  0.464300  0.494200  0.598500  1.0
  F  F541  1  0.740700  0.957800  0.200100  1
  F  F542  1  0.259300  0.042200  0.799900  1
  F  F543  1  0.670900  0.845600  0.250900  1
  F  F544  1  0.329100  0.154400  0.749100  1
  F  F545  1  0.692900  0.962700  0.275200  1
  F  F546  1  0.307100  0.037300  0.724800  1
  F  F547  1  0.594200  0.889200  0.204600  1
  F  F548  1  0.405800  0.110800  0.795400  1
  F  F549  1  0.715800  0.837800  0.172000  1
  F  F550  1  0.284200  0.162200  0.828000  1
  F  F551  1  0.821500  0.913500  0.245400  1
  F  F552  1  0.178500  0.086500  0.754600  1
  F  F553  1  0.608500  0.496700  0.198100  1
  F  F554  1  0.391500  0.503300  0.801900  1
  F  F555  1  0.590600  0.360700  0.099900  1
  F  F556  1  0.409400  0.639300  0.900100  1
  F  F557  1  0.646700  0.473300  0.120100  1
  F  F558  1  0.353300  0.526700  0.879900  1
  F  F559  1  0.498600  0.426500  0.127200  1
  F  F560  1  0.501400  0.573500  0.872800  1
  F  F561  1  0.551600  0.387700  0.178300  1
  F  F562  1  0.448400  0.612300  0.821700  1
  F  F563  1  0.692400  0.415200  0.172400  1
  F  F564  1  0.307600  0.584800  0.827600  1
  F  F565  1  0.151200  0.082100  0.327000  1
  F  F566  1  0.848800  0.917900  0.673000  1
  F  F567  1  0.375800  0.119700  0.386900  1
  F  F568  1  0.624200  0.880300  0.613100  1
  F  F569  1  0.213100  0.108100  0.407000  1
  F  F570  1  0.786900  0.891900  0.593000  1
  F  F571  1  0.275700  0.179000  0.363900  1
  F  F572  1  0.724300  0.821000  0.636100  1
  F  F573  1  0.303300  0.090500  0.303100  1
  F  F574  1  0.696700  0.909500  0.696900  1
  F  F575  1  0.247400  0.019300  0.347300  1
  F  F576  1  0.752600  0.980700  0.652700  1
  F  F577  1  0.249000  0.651100  0.493500  1
  F  F578  1  0.751000  0.348900  0.506500  1
  F  F579  1  0.202000  0.489400  0.484100  1
  F  F580  1  0.798000  0.510600  0.515900  1
  F  F581  1  0.233000  0.598600  0.552700  1
  F  F582  1  0.767000  0.401400  0.447300  1
  F  F583  1  0.089000  0.563500  0.485400  1
  F  F584  1  0.911000  0.436500  0.514600  1
  F  F585  1  0.196000  0.543800  0.428500  1
  F  F586  1  0.804000  0.456200  0.571500  1
  F  F587  1  0.330000  0.570000  0.486600  1
  F  F588  1  0.670000  0.430000  0.513400  1
