# generated using pymatgen
data_H28PdC28(NO2)8
_symmetry_space_group_name_H-M   'P 1'
_cell_length_a   11.71300000
_cell_length_b   16.58100000
_cell_length_c   20.46100000
_cell_angle_alpha   90.00000000
_cell_angle_beta   103.48000000
_cell_angle_gamma   90.00000000
_symmetry_Int_Tables_number   1
_chemical_formula_structural   H28PdC28(NO2)8
_chemical_formula_sum   'H112 Pd4 C112 N32 O64'
_cell_volume   3864.32461259
_cell_formula_units_Z   4
loop_
 _symmetry_equiv_pos_site_id
 _symmetry_equiv_pos_as_xyz
  1  'x, y, z'
loop_
 _atom_site_type_symbol
 _atom_site_label
 _atom_site_symmetry_multiplicity
 _atom_site_fract_x
 _atom_site_fract_y
 _atom_site_fract_z
 _atom_site_occupancy
  H  H1  1  0.075800  0.950000  0.316400  1.0
  H  H2  1  0.424200  0.450000  0.683600  1.0
  H  H3  1  0.924200  0.050000  0.683600  1.0
  H  H4  1  0.575800  0.550000  0.316400  1.0
  H  H5  1  0.266700  0.944100  0.383600  1.0
  H  H6  1  0.233300  0.444100  0.616400  1.0
  H  H7  1  0.733300  0.055900  0.616400  1.0
  H  H8  1  0.766700  0.555900  0.383600  1.0
  H  H9  1  0.309700  0.012700  0.483200  1.0
  H  H10  1  0.190300  0.512700  0.516800  1.0
  H  H11  1  0.690300  0.987300  0.516800  1.0
  H  H12  1  0.809700  0.487300  0.483200  1.0
  H  H13  1  0.239500  0.110100  0.565600  1.0
  H  H14  1  0.260500  0.610100  0.434400  1.0
  H  H15  1  0.760500  0.889900  0.434400  1.0
  H  H16  1  0.739500  0.389900  0.565600  1.0
  H  H17  1  0.093800  0.184000  0.591400  1.0
  H  H18  1  0.406200  0.684000  0.408600  1.0
  H  H19  1  0.906200  0.816000  0.408600  1.0
  H  H20  1  0.593800  0.316000  0.591400  1.0
  H  H21  1  0.878100  0.230400  0.559600  1.0
  H  H22  1  0.621900  0.730400  0.440400  1.0
  H  H23  1  0.121900  0.769600  0.440400  1.0
  H  H24  1  0.378100  0.269600  0.559600  1.0
  H  H25  1  0.696600  0.220700  0.486700  1.0
  H  H26  1  0.803400  0.720700  0.513300  1.0
  H  H27  1  0.303400  0.779300  0.513300  1.0
  H  H28  1  0.196600  0.279300  0.486700  1.0
  H  H29  1  0.674100  0.145900  0.388200  1.0
  H  H30  1  0.825900  0.645900  0.611800  1.0
  H  H31  1  0.325900  0.854100  0.611800  1.0
  H  H32  1  0.174100  0.354100  0.388200  1.0
  H  H33  1  0.604500  0.970700  0.324400  1.0
  H  H34  1  0.895500  0.470700  0.675600  1.0
  H  H35  1  0.395500  0.029300  0.675600  1.0
  H  H36  1  0.104500  0.529300  0.324400  1.0
  H  H37  1  0.413100  0.991400  0.274800  1.0
  H  H38  1  0.086900  0.491400  0.725200  1.0
  H  H39  1  0.586900  0.008600  0.725200  1.0
  H  H40  1  0.913100  0.508600  0.274800  1.0
  H  H41  1  0.505500  0.173000  0.171200  1.0
  H  H42  1  0.994500  0.673000  0.828800  1.0
  H  H43  1  0.494500  0.827000  0.828800  1.0
  H  H44  1  0.005500  0.327000  0.171200  1.0
  H  H45  1  0.698300  0.146400  0.221600  1.0
  H  H46  1  0.801700  0.646400  0.778400  1.0
  H  H47  1  0.301700  0.853600  0.778400  1.0
  H  H48  1  0.198300  0.353600  0.221600  1.0
  H  H49  1  0.265000  0.049900  0.186600  1.0
  H  H50  1  0.235000  0.549900  0.813400  1.0
  H  H51  1  0.735000  0.950100  0.813400  1.0
  H  H52  1  0.765000  0.450100  0.186600  1.0
  H  H53  1  0.276900  0.134200  0.221900  1.0
  H  H54  1  0.223100  0.634200  0.778100  1.0
  H  H55  1  0.723100  0.865800  0.778100  1.0
  H  H56  1  0.776900  0.365800  0.221900  1.0
  H  H57  1  0.129900  0.193800  0.140700  1.0
  H  H58  1  0.370100  0.693800  0.859300  1.0
  H  H59  1  0.870100  0.806200  0.859300  1.0
  H  H60  1  0.629900  0.306200  0.140700  1.0
  H  H61  1  0.105600  0.108000  0.107900  1.0
  H  H62  1  0.394400  0.608000  0.892100  1.0
  H  H63  1  0.894400  0.892000  0.892100  1.0
  H  H64  1  0.605600  0.392000  0.107900  1.0
  H  H65  1  0.027100  0.206800  0.028500  1.0
  H  H66  1  0.472900  0.706800  0.971500  1.0
  H  H67  1  0.972900  0.793200  0.971500  1.0
  H  H68  1  0.527100  0.293200  0.028500  1.0
  H  H69  1  0.151000  0.247600  0.038500  1.0
  H  H70  1  0.349000  0.747600  0.961500  1.0
  H  H71  1  0.849000  0.752400  0.961500  1.0
  H  H72  1  0.651000  0.252400  0.038500  1.0
  H  H73  1  0.307600  0.177700  0.003800  1.0
  H  H74  1  0.192400  0.677700  0.996200  1.0
  H  H75  1  0.692400  0.822300  0.996200  1.0
  H  H76  1  0.807600  0.322300  0.003800  1.0
  H  H77  1  0.285300  0.092500  0.969800  1.0
  H  H78  1  0.214700  0.592500  0.030200  1.0
  H  H79  1  0.714700  0.907500  0.030200  1.0
  H  H80  1  0.785300  0.407500  0.969800  1.0
  H  H81  1  0.260500  0.037200  0.070900  1.0
  H  H82  1  0.239500  0.537200  0.929100  1.0
  H  H83  1  0.739500  0.962800  0.929100  1.0
  H  H84  1  0.760500  0.462800  0.070900  1.0
  H  H85  1  0.385400  0.076500  0.081300  1.0
  H  H86  1  0.114600  0.576500  0.918700  1.0
  H  H87  1  0.614600  0.923500  0.918700  1.0
  H  H88  1  0.885400  0.423500  0.081300  1.0
  H  H89  1  0.146500  0.231500  0.920600  1.0
  H  H90  1  0.353500  0.731500  0.079400  1.0
  H  H91  1  0.853500  0.768500  0.079400  1.0
  H  H92  1  0.646500  0.268500  0.920600  1.0
  H  H93  1  0.019600  0.196700  0.912700  1.0
  H  H94  1  0.480400  0.696700  0.087300  1.0
  H  H95  1  0.980400  0.803300  0.087300  1.0
  H  H96  1  0.519600  0.303300  0.912700  1.0
  H  H97  1  0.210300  0.208100  0.820100  1.0
  H  H98  1  0.289700  0.708100  0.179900  1.0
  H  H99  1  0.789700  0.791900  0.179900  1.0
  H  H100  1  0.710300  0.291900  0.820100  1.0
  H  H101  1  0.032000  0.031900  0.884200  1.0
  H  H102  1  0.468000  0.531900  0.115800  1.0
  H  H103  1  0.968000  0.968100  0.115800  1.0
  H  H104  1  0.532000  0.468100  0.884200  1.0
  H  H105  1  0.056900  0.954700  0.796100  1.0
  H  H106  1  0.443100  0.454700  0.203900  1.0
  H  H107  1  0.943100  0.045300  0.203900  1.0
  H  H108  1  0.556900  0.545300  0.796100  1.0
  H  H109  1  0.227800  0.126500  0.732000  1.0
  H  H110  1  0.272200  0.626500  0.268000  1.0
  H  H111  1  0.772200  0.873500  0.268000  1.0
  H  H112  1  0.727800  0.373500  0.732000  1.0
  Pd  Pd113  1  0.840460  0.036469  0.323763  1.0
  Pd  Pd114  1  0.659540  0.536469  0.676237  1.0
  Pd  Pd115  1  0.159540  0.963531  0.676237  1.0
  Pd  Pd116  1  0.340460  0.463531  0.323763  1.0
  C  C117  1  0.093500  0.978300  0.356700  1.0
  C  C118  1  0.406500  0.478300  0.643300  1.0
  C  C119  1  0.906500  0.021700  0.643300  1.0
  C  C120  1  0.593500  0.521700  0.356700  1.0
  C  C121  1  0.209300  0.974200  0.397100  1.0
  C  C122  1  0.290700  0.474200  0.602900  1.0
  C  C123  1  0.790700  0.025800  0.602900  1.0
  C  C124  1  0.709300  0.525800  0.397100  1.0
  C  C125  1  0.234300  0.015300  0.455900  1.0
  C  C126  1  0.265700  0.515300  0.544100  1.0
  C  C127  1  0.765700  0.984700  0.544100  1.0
  C  C128  1  0.734300  0.484700  0.455900  1.0
  C  C129  1  0.147300  0.062600  0.476800  1.0
  C  C130  1  0.352700  0.562600  0.523200  1.0
  C  C131  1  0.852700  0.937400  0.523200  1.0
  C  C132  1  0.647300  0.437400  0.476800  1.0
  C  C133  1  0.165600  0.109700  0.536500  1.0
  C  C134  1  0.334400  0.609700  0.463500  1.0
  C  C135  1  0.834400  0.890300  0.463500  1.0
  C  C136  1  0.665600  0.390300  0.536500  1.0
  C  C137  1  0.078700  0.153700  0.552000  1.0
  C  C138  1  0.421300  0.653700  0.448000  1.0
  C  C139  1  0.921300  0.846300  0.448000  1.0
  C  C140  1  0.578700  0.346300  0.552000  1.0
  C  C141  1  0.963800  0.154400  0.508600  1.0
  C  C142  1  0.536200  0.654400  0.491400  1.0
  C  C143  1  0.036200  0.845600  0.491400  1.0
  C  C144  1  0.463800  0.345600  0.508600  1.0
  C  C145  1  0.868100  0.198300  0.521400  1.0
  C  C146  1  0.631900  0.698300  0.478600  1.0
  C  C147  1  0.131900  0.801700  0.478600  1.0
  C  C148  1  0.368100  0.301700  0.521400  1.0
  C  C149  1  0.760500  0.193500  0.477500  1.0
  C  C150  1  0.739500  0.693500  0.522500  1.0
  C  C151  1  0.239500  0.806500  0.522500  1.0
  C  C152  1  0.260500  0.306500  0.477500  1.0
  C  C153  1  0.746800  0.147200  0.418600  1.0
  C  C154  1  0.753200  0.647200  0.581400  1.0
  C  C155  1  0.253200  0.852800  0.581400  1.0
  C  C156  1  0.246800  0.352800  0.418600  1.0
  C  C157  1  0.943500  0.108600  0.449800  1.0
  C  C158  1  0.556500  0.608600  0.550200  1.0
  C  C159  1  0.056500  0.891400  0.550200  1.0
  C  C160  1  0.443500  0.391400  0.449800  1.0
  C  C161  1  0.034800  0.062800  0.433400  1.0
  C  C162  1  0.465200  0.562800  0.566600  1.0
  C  C163  1  0.965200  0.937200  0.566600  1.0
  C  C164  1  0.534800  0.437200  0.433400  1.0
  C  C165  1  0.584500  0.012000  0.293100  1.0
  C  C166  1  0.915500  0.512000  0.706900  1.0
  C  C167  1  0.415500  0.988000  0.706900  1.0
  C  C168  1  0.084500  0.488000  0.293100  1.0
  C  C169  1  0.469700  0.024700  0.263800  1.0
  C  C170  1  0.030300  0.524700  0.736200  1.0
  C  C171  1  0.530300  0.975300  0.736200  1.0
  C  C172  1  0.969700  0.475300  0.263800  1.0
  C  C173  1  0.435300  0.086000  0.218200  1.0
  C  C174  1  0.064700  0.586000  0.781800  1.0
  C  C175  1  0.564700  0.914000  0.781800  1.0
  C  C176  1  0.935300  0.414000  0.218200  1.0
  C  C177  1  0.523900  0.131400  0.202500  1.0
  C  C178  1  0.976100  0.631400  0.797500  1.0
  C  C179  1  0.476100  0.868600  0.797500  1.0
  C  C180  1  0.023900  0.368600  0.202500  1.0
  C  C181  1  0.639700  0.115400  0.233000  1.0
  C  C182  1  0.860300  0.615400  0.767000  1.0
  C  C183  1  0.360300  0.884600  0.767000  1.0
  C  C184  1  0.139700  0.384600  0.233000  1.0
  C  C185  1  0.305900  0.101200  0.190100  1.0
  C  C186  1  0.194100  0.601200  0.809900  1.0
  C  C187  1  0.694100  0.898800  0.809900  1.0
  C  C188  1  0.805900  0.398800  0.190100  1.0
  C  C189  1  0.148600  0.157900  0.107200  1.0
  C  C190  1  0.351400  0.657900  0.892800  1.0
  C  C191  1  0.851400  0.842100  0.892800  1.0
  C  C192  1  0.648600  0.342100  0.107200  1.0
  C  C193  1  0.110900  0.196400  0.038600  1.0
  C  C194  1  0.389100  0.696400  0.961400  1.0
  C  C195  1  0.889100  0.803600  0.961400  1.0
  C  C196  1  0.610900  0.303600  0.038600  1.0
  C  C197  1  0.265500  0.127300  0.003600  1.0
  C  C198  1  0.234500  0.627300  0.996400  1.0
  C  C199  1  0.734500  0.872700  0.996400  1.0
  C  C200  1  0.765500  0.372700  0.003600  1.0
  C  C201  1  0.301900  0.087900  0.071400  1.0
  C  C202  1  0.198100  0.587900  0.928600  1.0
  C  C203  1  0.698100  0.912100  0.928600  1.0
  C  C204  1  0.801900  0.412100  0.071400  1.0
  C  C205  1  0.101800  0.182200  0.920400  1.0
  C  C206  1  0.398200  0.682200  0.079600  1.0
  C  C207  1  0.898200  0.817800  0.079600  1.0
  C  C208  1  0.601800  0.317800  0.920400  1.0
  C  C209  1  0.119000  0.129000  0.863600  1.0
  C  C210  1  0.381000  0.629000  0.136400  1.0
  C  C211  1  0.881000  0.871000  0.136400  1.0
  C  C212  1  0.619000  0.371000  0.863600  1.0
  C  C213  1  0.177900  0.156600  0.816200  1.0
  C  C214  1  0.322100  0.656600  0.183800  1.0
  C  C215  1  0.822100  0.843400  0.183800  1.0
  C  C216  1  0.677900  0.343400  0.816200  1.0
  C  C217  1  0.073200  0.052700  0.854200  1.0
  C  C218  1  0.426800  0.552700  0.145800  1.0
  C  C219  1  0.926800  0.947300  0.145800  1.0
  C  C220  1  0.573200  0.447300  0.854200  1.0
  C  C221  1  0.087800  0.006600  0.800700  1.0
  C  C222  1  0.412200  0.506600  0.199300  1.0
  C  C223  1  0.912200  0.993400  0.199300  1.0
  C  C224  1  0.587800  0.493400  0.800700  1.0
  C  C225  1  0.188300  0.107100  0.763200  1.0
  C  C226  1  0.311700  0.607100  0.236800  1.0
  C  C227  1  0.811700  0.892900  0.236800  1.0
  C  C228  1  0.688300  0.392900  0.763200  1.0
  N  N229  1  0.021600  0.194500  0.297700  1
  N  N230  1  0.478400  0.694500  0.702300  1
  N  N231  1  0.978400  0.805500  0.702300  1
  N  N232  1  0.521600  0.305500  0.297700  1
  N  N233  1  0.162900  0.765500  0.265400  1
  N  N234  1  0.337100  0.265500  0.734600  1
  N  N235  1  0.837100  0.234500  0.734600  1
  N  N236  1  0.662900  0.734500  0.265400  1
  N  N237  1  0.009100  0.020800  0.374190  1.0
  N  N238  1  0.490900  0.520800  0.625810  1.0
  N  N239  1  0.990900  0.979200  0.625810  1.0
  N  N240  1  0.509100  0.479200  0.374190  1.0
  N  N241  1  0.836400  0.104900  0.405400  1.0
  N  N242  1  0.663600  0.604900  0.594600  1.0
  N  N243  1  0.163600  0.895100  0.594600  1.0
  N  N244  1  0.336400  0.395100  0.405400  1.0
  N  N245  1  0.670000  0.056800  0.278280  1.0
  N  N246  1  0.830000  0.556800  0.721720  1.0
  N  N247  1  0.330000  0.943200  0.721720  1.0
  N  N248  1  0.170000  0.443200  0.278280  1.0
  N  N249  1  0.143900  0.032900  0.755460  1.0
  N  N250  1  0.356100  0.532900  0.244540  1.0
  N  N251  1  0.856100  0.967100  0.244540  1.0
  N  N252  1  0.643900  0.467100  0.755460  1.0
  N  N253  1  0.275800  0.140800  0.124320  1.0
  N  N254  1  0.224200  0.640800  0.875680  1.0
  N  N255  1  0.724200  0.859200  0.875680  1.0
  N  N256  1  0.775800  0.359200  0.124320  1.0
  N  N257  1  0.138800  0.142900  0.986750  1.0
  N  N258  1  0.361200  0.642900  0.013250  1.0
  N  N259  1  0.861200  0.857100  0.013250  1.0
  N  N260  1  0.638800  0.357100  0.986750  1.0
  O  O261  1  0.914800  0.199500  0.277000  1
  O  O262  1  0.585200  0.699500  0.723000  1
  O  O263  1  0.085200  0.800500  0.723000  1
  O  O264  1  0.414800  0.300500  0.277000  1
  O  O265  1  0.068600  0.220700  0.352400  1
  O  O266  1  0.431400  0.720700  0.647600  1
  O  O267  1  0.931400  0.779300  0.647600  1
  O  O268  1  0.568600  0.279300  0.352400  1
  O  O269  1  0.079800  0.160300  0.263400  1
  O  O270  1  0.420200  0.660300  0.736600  1
  O  O271  1  0.920200  0.839700  0.736600  1
  O  O272  1  0.579800  0.339700  0.263400  1
  O  O273  1  0.332700  0.176200  0.358600  1
  O  O274  1  0.167300  0.676200  0.641400  1
  O  O275  1  0.667300  0.823800  0.641400  1
  O  O276  1  0.832700  0.323800  0.358600  1
  O  O277  1  0.499000  0.911900  0.558100  1
  O  O278  1  0.001000  0.411900  0.441900  1
  O  O279  1  0.501000  0.088100  0.441900  1
  O  O280  1  0.999000  0.588100  0.558100  1
  O  O281  1  0.206500  0.903200  0.975300  1
  O  O282  1  0.293500  0.403200  0.024700  1
  O  O283  1  0.793500  0.096800  0.024700  1
  O  O284  1  0.706500  0.596800  0.975300  1
  O  O285  1  0.262500  0.372000  0.873700  1
  O  O286  1  0.237500  0.872000  0.126300  1
  O  O287  1  0.737500  0.628000  0.126300  1
  O  O288  1  0.762500  0.128000  0.873700  1
  O  O289  1  0.510500  0.919100  0.426600  1
  O  O290  1  0.989500  0.419100  0.573400  1
  O  O291  1  0.489500  0.080900  0.573400  1
  O  O292  1  0.010500  0.580900  0.426600  1
  O  O293  1  0.364200  0.301400  0.130100  1
  O  O294  1  0.135800  0.801400  0.869900  1
  O  O295  1  0.635800  0.698600  0.869900  1
  O  O296  1  0.864200  0.198600  0.130100  1
  O  O297  1  0.183200  0.840000  0.259000  1
  O  O298  1  0.316800  0.340000  0.741000  1
  O  O299  1  0.816800  0.160000  0.741000  1
  O  O300  1  0.683200  0.660000  0.259000  1
  O  O301  1  0.063000  0.736500  0.237900  1
  O  O302  1  0.437000  0.236500  0.762100  1
  O  O303  1  0.937000  0.263500  0.762100  1
  O  O304  1  0.563000  0.763500  0.237900  1
  O  O305  1  0.160000  0.745800  0.325000  1
  O  O306  1  0.340000  0.245800  0.675000  1
  O  O307  1  0.840000  0.254200  0.675000  1
  O  O308  1  0.660000  0.754200  0.325000  1
  O  O309  1  0.441800  0.929200  0.997500  1
  O  O310  1  0.058200  0.429200  0.002500  1
  O  O311  1  0.558200  0.070800  0.002500  1
  O  O312  1  0.941800  0.570800  0.997500  1
  O  O313  1  0.017600  0.391200  0.863400  1
  O  O314  1  0.482400  0.891200  0.136600  1
  O  O315  1  0.982400  0.608800  0.136600  1
  O  O316  1  0.517600  0.108800  0.863400  1
  O  O317  1  0.433000  0.813100  0.326900  1
  O  O318  1  0.067000  0.313100  0.673100  1
  O  O319  1  0.567000  0.186900  0.673100  1
  O  O320  1  0.933000  0.686900  0.326900  1
  O  O321  1  0.954500  0.025000  0.989300  1
  O  O322  1  0.545500  0.525000  0.010700  1
  O  O323  1  0.045500  0.975000  0.010700  1
  O  O324  1  0.454500  0.475000  0.989300  1
