# generated using pymatgen
data_H36PdC22N6Cl2O11
_symmetry_space_group_name_H-M   'P 1'
_cell_length_a   12.17090000
_cell_length_b   16.88310000
_cell_length_c   17.45980000
_cell_angle_alpha   90.00000000
_cell_angle_beta   90.00000000
_cell_angle_gamma   95.19900000
_symmetry_Int_Tables_number   1
_chemical_formula_structural   H36PdC22N6Cl2O11
_chemical_formula_sum   'H144 Pd4 C88 N24 Cl8 O44'
_cell_volume   3572.92393239
_cell_formula_units_Z   4
loop_
 _symmetry_equiv_pos_site_id
 _symmetry_equiv_pos_as_xyz
  1  'x, y, z'
loop_
 _atom_site_type_symbol
 _atom_site_label
 _atom_site_symmetry_multiplicity
 _atom_site_fract_x
 _atom_site_fract_y
 _atom_site_fract_z
 _atom_site_occupancy
  H  H1  1  0.315400  0.578100  0.773000  1.0
  H  H2  1  0.184600  0.921900  0.273000  1.0
  H  H3  1  0.684600  0.421900  0.227000  1.0
  H  H4  1  0.815400  0.078100  0.727000  1.0
  H  H5  1  0.273600  0.496300  0.736300  1.0
  H  H6  1  0.226400  0.003700  0.236300  1.0
  H  H7  1  0.726400  0.503700  0.263700  1.0
  H  H8  1  0.773600  0.996300  0.763700  1.0
  H  H9  1  0.409700  0.516900  0.639300  1.0
  H  H10  1  0.090300  0.983100  0.139300  1.0
  H  H11  1  0.590300  0.483100  0.360700  1.0
  H  H12  1  0.909700  0.016900  0.860700  1.0
  H  H13  1  0.450200  0.597900  0.679000  1.0
  H  H14  1  0.049800  0.902100  0.179000  1.0
  H  H15  1  0.549800  0.402100  0.321000  1.0
  H  H16  1  0.950200  0.097900  0.821000  1.0
  H  H17  1  0.954100  0.474100  0.867200  1.0
  H  H18  1  0.545900  0.025900  0.367200  1.0
  H  H19  1  0.045900  0.525900  0.132800  1.0
  H  H20  1  0.454100  0.974100  0.632800  1.0
  H  H21  1  0.194200  0.558500  0.486500  1.0
  H  H22  1  0.305800  0.941500  0.986500  1.0
  H  H23  1  0.805800  0.441500  0.513500  1.0
  H  H24  1  0.694200  0.058500  0.013500  1.0
  H  H25  1  0.234500  0.639500  0.526000  1.0
  H  H26  1  0.265500  0.860500  0.026000  1.0
  H  H27  1  0.765500  0.360500  0.474000  1.0
  H  H28  1  0.734500  0.139500  0.974000  1.0
  H  H29  1  0.419700  0.666400  0.564500  1.0
  H  H30  1  0.080300  0.833600  0.064500  1.0
  H  H31  1  0.580300  0.333600  0.435500  1.0
  H  H32  1  0.919700  0.166400  0.935500  1.0
  H  H33  1  0.504400  0.603100  0.550200  1.0
  H  H34  1  0.995600  0.896900  0.050200  1.0
  H  H35  1  0.495600  0.396900  0.449800  1.0
  H  H36  1  0.004400  0.103100  0.949800  1.0
  H  H37  1  0.960000  0.683700  0.774700  1.0
  H  H38  1  0.540000  0.816300  0.274700  1.0
  H  H39  1  0.040000  0.316300  0.225300  1.0
  H  H40  1  0.460000  0.183700  0.725300  1.0
  H  H41  1  0.138000  0.554200  0.613800  1.0
  H  H42  1  0.362000  0.945800  0.113800  1.0
  H  H43  1  0.862000  0.445800  0.386200  1.0
  H  H44  1  0.638000  0.054200  0.886200  1.0
  H  H45  1  0.223000  0.490700  0.601100  1.0
  H  H46  1  0.277000  0.009300  0.101100  1.0
  H  H47  1  0.777000  0.509300  0.398900  1.0
  H  H48  1  0.723000  0.990700  0.898900  1.0
  H  H49  1  0.313800  0.451700  0.413000  1.0
  H  H50  1  0.186200  0.048300  0.913000  1.0
  H  H51  1  0.686200  0.548300  0.587000  1.0
  H  H52  1  0.813800  0.951700  0.087000  1.0
  H  H53  1  0.254600  0.383100  0.305500  1.0
  H  H54  1  0.245400  0.116900  0.805500  1.0
  H  H55  1  0.745400  0.616900  0.694500  1.0
  H  H56  1  0.754600  0.883100  0.194500  1.0
  H  H57  1  0.465200  0.611500  0.424200  1.0
  H  H58  1  0.034800  0.888500  0.924200  1.0
  H  H59  1  0.534800  0.388500  0.575800  1.0
  H  H60  1  0.965200  0.111500  0.075800  1.0
  H  H61  1  0.361300  0.659800  0.426400  1.0
  H  H62  1  0.138700  0.840200  0.926400  1.0
  H  H63  1  0.638700  0.340200  0.573600  1.0
  H  H64  1  0.861300  0.159800  0.073600  1.0
  H  H65  1  0.932500  0.577200  0.988400  1.0
  H  H66  1  0.567500  0.922800  0.488400  1.0
  H  H67  1  0.067500  0.422800  0.011600  1.0
  H  H68  1  0.432500  0.077200  0.511600  1.0
  H  H69  1  0.818800  0.564400  0.030800  1.0
  H  H70  1  0.681200  0.935600  0.530800  1.0
  H  H71  1  0.181200  0.435600  0.969200  1.0
  H  H72  1  0.318800  0.064400  0.469200  1.0
  H  H73  1  0.905300  0.634300  0.055200  1.0
  H  H74  1  0.594700  0.865700  0.555200  1.0
  H  H75  1  0.094700  0.365700  0.944800  1.0
  H  H76  1  0.405300  0.134300  0.444800  1.0
  H  H77  1  0.122400  0.457100  0.817300  1.0
  H  H78  1  0.377600  0.042900  0.317300  1.0
  H  H79  1  0.877600  0.542900  0.182700  1.0
  H  H80  1  0.622400  0.957100  0.682700  1.0
  H  H81  1  0.337800  0.651500  0.288300  1.0
  H  H82  1  0.162200  0.848500  0.788300  1.0
  H  H83  1  0.662200  0.348500  0.711700  1.0
  H  H84  1  0.837800  0.151500  0.211700  1.0
  H  H85  1  0.130300  0.673500  0.725300  1.0
  H  H86  1  0.369700  0.826500  0.225300  1.0
  H  H87  1  0.869700  0.326500  0.274700  1.0
  H  H88  1  0.630300  0.173500  0.774700  1.0
  H  H89  1  0.500800  0.668100  0.861700  1.0
  H  H90  1  0.999200  0.831900  0.361700  1.0
  H  H91  1  0.499200  0.331900  0.138300  1.0
  H  H92  1  0.000800  0.168100  0.638300  1.0
  H  H93  1  0.573800  0.644400  0.792900  1.0
  H  H94  1  0.926200  0.855600  0.292900  1.0
  H  H95  1  0.426200  0.355600  0.207100  1.0
  H  H96  1  0.073800  0.144400  0.707100  1.0
  H  H97  1  0.618700  0.711900  0.849500  1.0
  H  H98  1  0.881300  0.788100  0.349500  1.0
  H  H99  1  0.381300  0.288100  0.150500  1.0
  H  H100  1  0.118700  0.211900  0.650500  1.0
  H  H101  1  0.477700  0.535700  0.912400  1.0
  H  H102  1  0.022300  0.964300  0.412400  1.0
  H  H103  1  0.522300  0.464300  0.087600  1.0
  H  H104  1  0.977700  0.035700  0.587600  1.0
  H  H105  1  0.580300  0.486200  0.918000  1.0
  H  H106  1  0.919700  0.013800  0.418000  1.0
  H  H107  1  0.419700  0.513800  0.082000  1.0
  H  H108  1  0.080300  0.986200  0.582000  1.0
  H  H109  1  0.537500  0.511100  0.837700  1.0
  H  H110  1  0.962500  0.988900  0.337700  1.0
  H  H111  1  0.462500  0.488900  0.162300  1.0
  H  H112  1  0.037500  0.011100  0.662300  1.0
  H  H113  1  0.285200  0.576600  0.183400  1.0
  H  H114  1  0.214800  0.923400  0.683400  1.0
  H  H115  1  0.714800  0.423400  0.816600  1.0
  H  H116  1  0.785200  0.076600  0.316600  1.0
  H  H117  1  0.921500  0.752800  0.990800  1.0
  H  H118  1  0.578500  0.747200  0.490800  1.0
  H  H119  1  0.078500  0.247200  0.009200  1.0
  H  H120  1  0.421500  0.252800  0.509200  1.0
  H  H121  1  0.878800  0.758300  0.906400  1.0
  H  H122  1  0.621200  0.741700  0.406400  1.0
  H  H123  1  0.121200  0.241700  0.093600  1.0
  H  H124  1  0.378800  0.258300  0.593600  1.0
  H  H125  1  0.975000  0.705700  0.925300  1.0
  H  H126  1  0.525000  0.794300  0.425300  1.0
  H  H127  1  0.025000  0.294300  0.074700  1.0
  H  H128  1  0.475000  0.205700  0.574700  1.0
  H  H129  1  0.564000  0.652500  0.990600  1.0
  H  H130  1  0.936000  0.847500  0.490600  1.0
  H  H131  1  0.436000  0.347500  0.009400  1.0
  H  H132  1  0.064000  0.152500  0.509400  1.0
  H  H133  1  0.639500  0.584300  0.008800  1.0
  H  H134  1  0.860500  0.915700  0.508800  1.0
  H  H135  1  0.360500  0.415700  0.991200  1.0
  H  H136  1  0.139500  0.084300  0.491200  1.0
  H  H137  1  0.730700  0.700600  0.039800  1.0
  H  H138  1  0.769300  0.799400  0.539800  1.0
  H  H139  1  0.269300  0.299400  0.960200  1.0
  H  H140  1  0.230700  0.200600  0.460200  1.0
  H  H141  1  0.710200  0.735200  0.958100  1.0
  H  H142  1  0.789800  0.764800  0.458100  1.0
  H  H143  1  0.289800  0.264800  0.041900  1.0
  H  H144  1  0.210200  0.235200  0.541900  1.0
  Pd  Pd145  1  0.782340  0.591260  0.860440  1.0
  Pd  Pd146  1  0.717660  0.908740  0.360440  1.0
  Pd  Pd147  1  0.217660  0.408740  0.139560  1.0
  Pd  Pd148  1  0.282340  0.091260  0.639560  1.0
  C  C149  1  0.262600  0.552500  0.737200  1.0
  C  C150  1  0.237400  0.947500  0.237200  1.0
  C  C151  1  0.737400  0.447500  0.262800  1.0
  C  C152  1  0.762600  0.052500  0.762800  1.0
  C  C153  1  0.147800  0.561800  0.766300  1.0
  C  C154  1  0.352200  0.938200  0.266300  1.0
  C  C155  1  0.852200  0.438200  0.233700  1.0
  C  C156  1  0.647800  0.061800  0.733700  1.0
  C  C157  1  0.400600  0.573400  0.640600  1.0
  C  C158  1  0.099400  0.926600  0.140600  1.0
  C  C159  1  0.599400  0.426600  0.359400  1.0
  C  C160  1  0.900600  0.073400  0.859400  1.0
  C  C161  1  0.990000  0.514700  0.838100  1.0
  C  C162  1  0.510000  0.985300  0.338100  1.0
  C  C163  1  0.010000  0.485300  0.161900  1.0
  C  C164  1  0.490000  0.014700  0.661900  1.0
  C  C165  1  0.243800  0.583000  0.524900  1.0
  C  C166  1  0.256200  0.917000  0.024900  1.0
  C  C167  1  0.756200  0.417000  0.475100  1.0
  C  C168  1  0.743800  0.083000  0.975100  1.0
  C  C169  1  0.428200  0.609900  0.562900  1.0
  C  C170  1  0.071800  0.890100  0.062900  1.0
  C  C171  1  0.571800  0.390100  0.437100  1.0
  C  C172  1  0.928200  0.109900  0.937100  1.0
  C  C173  1  0.994200  0.637600  0.784200  1.0
  C  C174  1  0.505800  0.862400  0.284200  1.0
  C  C175  1  0.005800  0.362400  0.215800  1.0
  C  C176  1  0.494200  0.137600  0.715800  1.0
  C  C177  1  0.214400  0.547300  0.602000  1.0
  C  C178  1  0.285600  0.952700  0.102000  1.0
  C  C179  1  0.785600  0.452700  0.398000  1.0
  C  C180  1  0.714400  0.047300  0.898000  1.0
  C  C181  1  0.338200  0.560300  0.363600  1.0
  C  C182  1  0.161800  0.939700  0.863600  1.0
  C  C183  1  0.661800  0.439700  0.636400  1.0
  C  C184  1  0.838200  0.060300  0.136400  1.0
  C  C185  1  0.309100  0.478700  0.366800  1.0
  C  C186  1  0.190900  0.021300  0.866800  1.0
  C  C187  1  0.690900  0.521300  0.633200  1.0
  C  C188  1  0.809100  0.978700  0.133200  1.0
  C  C189  1  0.273500  0.437600  0.302000  1.0
  C  C190  1  0.226500  0.062400  0.802000  1.0
  C  C191  1  0.726500  0.562400  0.698000  1.0
  C  C192  1  0.773500  0.937600  0.198000  1.0
  C  C193  1  0.385500  0.606700  0.428900  1.0
  C  C194  1  0.114500  0.893300  0.928900  1.0
  C  C195  1  0.614500  0.393300  0.571100  1.0
  C  C196  1  0.885500  0.106700  0.071100  1.0
  C  C197  1  0.875100  0.603400  0.012800  1.0
  C  C198  1  0.624900  0.896600  0.512800  1.0
  C  C199  1  0.124900  0.396600  0.987200  1.0
  C  C200  1  0.375100  0.103400  0.487200  1.0
  C  C201  1  0.091300  0.504600  0.808400  1.0
  C  C202  1  0.408700  0.995400  0.308400  1.0
  C  C203  1  0.908700  0.495400  0.191600  1.0
  C  C204  1  0.591300  0.004600  0.691600  1.0
  C  C205  1  0.324200  0.596600  0.293100  1.0
  C  C206  1  0.175800  0.903400  0.793100  1.0
  C  C207  1  0.675800  0.403400  0.706900  1.0
  C  C208  1  0.824200  0.096600  0.206900  1.0
  C  C209  1  0.095700  0.631900  0.753800  1.0
  C  C210  1  0.404300  0.868100  0.253800  1.0
  C  C211  1  0.904300  0.368100  0.246200  1.0
  C  C212  1  0.595700  0.131900  0.746200  1.0
  C  C213  1  0.574800  0.661900  0.845300  1.0
  C  C214  1  0.925200  0.838100  0.345300  1.0
  C  C215  1  0.425200  0.338100  0.154700  1.0
  C  C216  1  0.074800  0.161900  0.654700  1.0
  C  C217  1  0.547800  0.527100  0.890100  1.0
  C  C218  1  0.952200  0.972900  0.390100  1.0
  C  C219  1  0.452200  0.472900  0.109900  1.0
  C  C220  1  0.047800  0.027100  0.609900  1.0
  C  C221  1  0.290500  0.551600  0.230500  1.0
  C  C222  1  0.209500  0.948400  0.730500  1.0
  C  C223  1  0.709500  0.448400  0.769500  1.0
  C  C224  1  0.790500  0.051600  0.269500  1.0
  C  C225  1  0.907500  0.724000  0.943800  1.0
  C  C226  1  0.592500  0.776000  0.443800  1.0
  C  C227  1  0.092500  0.276000  0.056200  1.0
  C  C228  1  0.407500  0.224000  0.556200  1.0
  C  C229  1  0.631100  0.629600  0.975900  1.0
  C  C230  1  0.868900  0.870400  0.475900  1.0
  C  C231  1  0.368900  0.370400  0.024100  1.0
  C  C232  1  0.131100  0.129600  0.524100  1.0
  C  C233  1  0.722900  0.687100  0.986000  1.0
  C  C234  1  0.777100  0.812900  0.486000  1.0
  C  C235  1  0.277100  0.312900  0.014000  1.0
  C  C236  1  0.222900  0.187100  0.514000  1.0
  N  N237  1  0.940700  0.581400  0.826700  1.0
  N  N238  1  0.559300  0.918600  0.326700  1.0
  N  N239  1  0.059300  0.418600  0.173300  1.0
  N  N240  1  0.440700  0.081400  0.673300  1.0
  N  N241  1  0.285700  0.585800  0.660400  1.0
  N  N242  1  0.214300  0.914200  0.160400  1.0
  N  N243  1  0.714300  0.414200  0.339600  1.0
  N  N244  1  0.785700  0.085800  0.839600  1.0
  N  N245  1  0.355200  0.571900  0.504200  1.0
  N  N246  1  0.144800  0.928100  0.004200  1.0
  N  N247  1  0.644800  0.428100  0.495800  1.0
  N  N248  1  0.855200  0.071900  0.995800  1.0
  N  N249  1  0.265000  0.472900  0.234900  1.0
  N  N250  1  0.235000  0.027100  0.734900  1.0
  N  N251  1  0.735000  0.527100  0.765100  1.0
  N  N252  1  0.765000  0.972900  0.265100  1.0
  N  N253  1  0.827200  0.655800  0.957700  1.0
  N  N254  1  0.672800  0.844200  0.457700  1.0
  N  N255  1  0.172800  0.344200  0.042300  1.0
  N  N256  1  0.327200  0.155800  0.542300  1.0
  N  N257  1  0.622300  0.602400  0.893800  1.0
  N  N258  1  0.877700  0.897600  0.393800  1.0
  N  N259  1  0.377700  0.397600  0.106200  1.0
  N  N260  1  0.122300  0.102400  0.606200  1.0
  Cl  Cl261  1  0.752300  0.365160  0.007570  1
  Cl  Cl262  1  0.747700  0.134840  0.507570  1
  Cl  Cl263  1  0.247700  0.634840  0.992430  1
  Cl  Cl264  1  0.252300  0.865160  0.492430  1
  Cl  Cl265  1  0.843600  0.827000  0.717400  1
  Cl  Cl266  1  0.656400  0.673000  0.217400  1
  Cl  Cl267  1  0.156400  0.173000  0.282600  1
  Cl  Cl268  1  0.343600  0.327000  0.782600  1
  O  O269  1  0.705000  0.420700  0.047000  1
  O  O270  1  0.795000  0.079300  0.547000  1
  O  O271  1  0.295000  0.579300  0.953000  1
  O  O272  1  0.205000  0.920700  0.453000  1
  O  O273  1  0.673500  0.320000  0.973300  1
  O  O274  1  0.826500  0.180000  0.473300  1
  O  O275  1  0.326500  0.680000  0.026700  1
  O  O276  1  0.173500  0.820000  0.526700  1
  O  O277  1  0.821400  0.396900  0.954700  1
  O  O278  1  0.678600  0.103100  0.454700  1
  O  O279  1  0.178600  0.603100  0.045300  1
  O  O280  1  0.321400  0.896900  0.545300  1
  O  O281  1  0.808700  0.320100  0.050600  1
  O  O282  1  0.691300  0.179900  0.550600  1
  O  O283  1  0.191300  0.679900  0.949400  1
  O  O284  1  0.308700  0.820100  0.449400  1
  O  O285  1  0.311500  0.757300  0.678800  1
  O  O286  1  0.188500  0.742700  0.178800  1
  O  O287  1  0.688500  0.242700  0.321200  1
  O  O288  1  0.811500  0.257300  0.821200  1
  O  O289  1  0.826800  0.884200  0.670500  1
  O  O290  1  0.673200  0.615800  0.170500  1
  O  O291  1  0.173200  0.115800  0.329500  1
  O  O292  1  0.326800  0.384200  0.829500  1
  O  O293  1  0.741100  0.804500  0.736700  1
  O  O294  1  0.758900  0.695500  0.236700  1
  O  O295  1  0.258900  0.195500  0.263300  1
  O  O296  1  0.241100  0.304500  0.763300  1
  O  O297  1  0.896000  0.852000  0.781700  1
  O  O298  1  0.604000  0.648000  0.281700  1
  O  O299  1  0.104000  0.148000  0.218300  1
  O  O300  1  0.396000  0.352000  0.718300  1
  O  O301  1  0.880000  0.764300  0.678500  1
  O  O302  1  0.620000  0.735700  0.178500  1
  O  O303  1  0.120000  0.235700  0.321500  1
  O  O304  1  0.380000  0.264300  0.821500  1
  O  O305  1  0.487000  0.875000  0.910000  1
  O  O306  1  0.013000  0.625000  0.410000  1
  O  O307  1  0.513000  0.125000  0.090000  1
  O  O308  1  0.987000  0.375000  0.590000  1
  O  O309  1  0.965000  0.684000  0.577000  1
  O  O310  1  0.535000  0.816000  0.077000  1
  O  O311  1  0.035000  0.316000  0.423000  1
  O  O312  1  0.465000  0.184000  0.923000  1
