# generated using pymatgen
data_H31PdC28N7(ClO4)2
_symmetry_space_group_name_H-M   'P 1'
_cell_length_a   8.95150000
_cell_length_b   19.39480000
_cell_length_c   20.03010000
_cell_angle_alpha   113.90800000
_cell_angle_beta   90.00000000
_cell_angle_gamma   90.00000000
_symmetry_Int_Tables_number   1
_chemical_formula_structural   H31PdC28N7(ClO4)2
_chemical_formula_sum   'H124 Pd4 C112 N28 Cl8 O32'
_cell_volume   3179.10015560
_cell_formula_units_Z   4
loop_
 _symmetry_equiv_pos_site_id
 _symmetry_equiv_pos_as_xyz
  1  'x, y, z'
loop_
 _atom_site_type_symbol
 _atom_site_label
 _atom_site_symmetry_multiplicity
 _atom_site_fract_x
 _atom_site_fract_y
 _atom_site_fract_z
 _atom_site_occupancy
  H  H1  1  0.698500  0.615800  0.947100  1
  H  H2  1  0.198500  0.884200  0.552900  1
  H  H3  1  0.301500  0.384200  0.052900  1
  H  H4  1  0.801500  0.115800  0.447100  1
  H  H5  1  0.550500  0.662000  0.974200  1
  H  H6  1  0.050500  0.838000  0.525800  1
  H  H7  1  0.449500  0.338000  0.025800  1
  H  H8  1  0.949500  0.162000  0.474200  1
  H  H9  1  0.543400  0.576000  0.922600  1
  H  H10  1  0.043400  0.924000  0.577400  1
  H  H11  1  0.456600  0.424000  0.077400  1
  H  H12  1  0.956600  0.076000  0.422600  1
  H  H13  1  0.888900  0.372500  0.299400  1.0
  H  H14  1  0.388900  0.127500  0.200600  1.0
  H  H15  1  0.111100  0.627500  0.700600  1.0
  H  H16  1  0.611100  0.872500  0.799400  1.0
  H  H17  1  0.017300  0.315000  0.361800  1.0
  H  H18  1  0.517300  0.185000  0.138200  1.0
  H  H19  1  0.982700  0.685000  0.638200  1.0
  H  H20  1  0.482700  0.815000  0.861800  1.0
  H  H21  1  0.995900  0.360700  0.486000  1.0
  H  H22  1  0.495900  0.139300  0.014000  1.0
  H  H23  1  0.004100  0.639300  0.514000  1.0
  H  H24  1  0.504100  0.860700  0.986000  1.0
  H  H25  1  0.845900  0.464000  0.547200  1.0
  H  H26  1  0.345900  0.036000  0.952800  1.0
  H  H27  1  0.154100  0.536000  0.452800  1.0
  H  H28  1  0.654100  0.964000  0.047200  1.0
  H  H29  1  0.704900  0.569100  0.596200  1.0
  H  H30  1  0.204900  0.930900  0.903800  1.0
  H  H31  1  0.295100  0.430900  0.403800  1.0
  H  H32  1  0.795100  0.069100  0.096200  1.0
  H  H33  1  0.531500  0.665900  0.636700  1.0
  H  H34  1  0.031500  0.834100  0.863300  1.0
  H  H35  1  0.468500  0.334100  0.363300  1.0
  H  H36  1  0.968500  0.165900  0.136700  1.0
  H  H37  1  0.398400  0.694700  0.552700  1.0
  H  H38  1  0.898400  0.805300  0.947300  1.0
  H  H39  1  0.601600  0.305300  0.447300  1.0
  H  H40  1  0.101600  0.194700  0.052700  1.0
  H  H41  1  0.446000  0.628700  0.429700  1.0
  H  H42  1  0.946000  0.871300  0.070300  1.0
  H  H43  1  0.554000  0.371300  0.570300  1.0
  H  H44  1  0.054000  0.128700  0.929700  1.0
  H  H45  1  0.357400  0.485300  0.286200  1.0
  H  H46  1  0.857400  0.014700  0.213800  1.0
  H  H47  1  0.642600  0.514700  0.713800  1.0
  H  H48  1  0.142600  0.985300  0.786200  1.0
  H  H49  1  0.181900  0.537700  0.238600  1.0
  H  H50  1  0.681900  0.962300  0.261400  1.0
  H  H51  1  0.818100  0.462300  0.761400  1.0
  H  H52  1  0.318100  0.037700  0.738600  1.0
  H  H53  1  0.488000  0.684900  0.234500  1.0
  H  H54  1  0.988000  0.815100  0.265500  1.0
  H  H55  1  0.512000  0.315100  0.765500  1.0
  H  H56  1  0.012000  0.184900  0.734500  1.0
  H  H57  1  0.656200  0.630400  0.283800  1.0
  H  H58  1  0.156200  0.869600  0.216200  1.0
  H  H59  1  0.343800  0.369600  0.716200  1.0
  H  H60  1  0.843800  0.130400  0.783800  1.0
  H  H61  1  0.136700  0.688800  0.242200  1.0
  H  H62  1  0.636700  0.811200  0.257800  1.0
  H  H63  1  0.863300  0.311200  0.757800  1.0
  H  H64  1  0.363300  0.188800  0.742200  1.0
  H  H65  1  0.247000  0.684900  0.179900  1.0
  H  H66  1  0.747000  0.815100  0.320100  1.0
  H  H67  1  0.753000  0.315100  0.820100  1.0
  H  H68  1  0.253000  0.184900  0.679900  1.0
  H  H69  1  0.916100  0.660100  0.181200  1.0
  H  H70  1  0.416100  0.839900  0.318800  1.0
  H  H71  1  0.083900  0.339900  0.818800  1.0
  H  H72  1  0.583900  0.160100  0.681200  1.0
  H  H73  1  0.894100  0.587400  0.109500  1.0
  H  H74  1  0.394100  0.912600  0.390500  1.0
  H  H75  1  0.105900  0.412600  0.890500  1.0
  H  H76  1  0.605900  0.087400  0.609500  1.0
  H  H77  1  0.879800  0.692100  0.081000  1.0
  H  H78  1  0.379800  0.807900  0.419000  1.0
  H  H79  1  0.120200  0.307900  0.919000  1.0
  H  H80  1  0.620200  0.192100  0.581000  1.0
  H  H81  1  0.037000  0.720400  0.116400  1.0
  H  H82  1  0.537000  0.779600  0.383600  1.0
  H  H83  1  0.963000  0.279600  0.883600  1.0
  H  H84  1  0.463000  0.220400  0.616400  1.0
  H  H85  1  0.259600  0.648500  0.059200  1.0
  H  H86  1  0.759600  0.851500  0.440800  1.0
  H  H87  1  0.740400  0.351500  0.940800  1.0
  H  H88  1  0.240400  0.148500  0.559200  1.0
  H  H89  1  0.243700  0.574700  0.987400  1.0
  H  H90  1  0.743700  0.925300  0.512600  1.0
  H  H91  1  0.756300  0.425300  0.012600  1.0
  H  H92  1  0.256300  0.074700  0.487400  1.0
  H  H93  1  0.123900  0.513800  0.050300  1.0
  H  H94  1  0.623900  0.986200  0.449700  1.0
  H  H95  1  0.876100  0.486200  0.949700  1.0
  H  H96  1  0.376100  0.013800  0.550300  1.0
  H  H97  1  0.277400  0.544400  0.088100  1.0
  H  H98  1  0.777400  0.955600  0.411900  1.0
  H  H99  1  0.722600  0.455600  0.911900  1.0
  H  H100  1  0.222600  0.044400  0.588100  1.0
  H  H101  1  0.128300  0.720300  0.005300  1.0
  H  H102  1  0.628300  0.779700  0.494700  1.0
  H  H103  1  0.871700  0.279700  0.994700  1.0
  H  H104  1  0.371700  0.220300  0.505300  1.0
  H  H105  1  0.968200  0.695800  0.972400  1.0
  H  H106  1  0.468200  0.804200  0.527600  1.0
  H  H107  1  0.031800  0.304200  0.027600  1.0
  H  H108  1  0.531800  0.195800  0.472400  1.0
  H  H109  1  0.009200  0.539800  0.874800  1.0
  H  H110  1  0.509200  0.960200  0.625200  1.0
  H  H111  1  0.990800  0.460200  0.125200  1.0
  H  H112  1  0.490800  0.039800  0.374800  1.0
  H  H113  1  0.111800  0.477500  0.761900  1.0
  H  H114  1  0.611800  0.022500  0.738100  1.0
  H  H115  1  0.888200  0.522500  0.238100  1.0
  H  H116  1  0.388200  0.977500  0.261900  1.0
  H  H117  1  0.379600  0.646600  0.792000  1.0
  H  H118  1  0.879600  0.853400  0.708000  1.0
  H  H119  1  0.620400  0.353400  0.208000  1.0
  H  H120  1  0.120400  0.146600  0.292000  1.0
  H  H121  1  0.282600  0.712400  0.905900  1.0
  H  H122  1  0.782600  0.787600  0.594100  1.0
  H  H123  1  0.717400  0.287600  0.094100  1.0
  H  H124  1  0.217400  0.212400  0.405900  1.0
  Pd  Pd125  1  0.664230  0.502663  0.335396  1.0
  Pd  Pd126  1  0.164230  0.997337  0.164604  1.0
  Pd  Pd127  1  0.335770  0.497337  0.664604  1.0
  Pd  Pd128  1  0.835770  0.002663  0.835396  1.0
  C  C129  1  0.597100  0.613900  0.961900  1
  C  C130  1  0.097100  0.886100  0.538100  1
  C  C131  1  0.402900  0.386100  0.038100  1
  C  C132  1  0.902900  0.113900  0.461900  1
  C  C133  1  0.595700  0.595700  0.023700  1
  C  C134  1  0.095700  0.904300  0.476300  1
  C  C135  1  0.404300  0.404300  0.976300  1
  C  C136  1  0.904300  0.095700  0.523700  1
  C  C137  1  0.879500  0.391000  0.349900  1.0
  C  C138  1  0.379500  0.109000  0.150100  1.0
  C  C139  1  0.120500  0.609000  0.650100  1.0
  C  C140  1  0.620500  0.891000  0.849900  1.0
  C  C141  1  0.956900  0.356500  0.386900  1.0
  C  C142  1  0.456900  0.143500  0.113100  1.0
  C  C143  1  0.043100  0.643500  0.613100  1.0
  C  C144  1  0.543100  0.856500  0.886900  1.0
  C  C145  1  0.944200  0.383600  0.460100  1.0
  C  C146  1  0.444200  0.116400  0.039900  1.0
  C  C147  1  0.055800  0.616400  0.539900  1.0
  C  C148  1  0.555800  0.883600  0.960100  1.0
  C  C149  1  0.854700  0.445100  0.496700  1.0
  C  C150  1  0.354700  0.054900  0.003300  1.0
  C  C151  1  0.145300  0.554900  0.503300  1.0
  C  C152  1  0.645300  0.945100  0.996700  1.0
  C  C153  1  0.777300  0.478800  0.457560  1.0
  C  C154  1  0.277300  0.021200  0.042440  1.0
  C  C155  1  0.222700  0.521200  0.542440  1.0
  C  C156  1  0.722700  0.978800  0.957560  1.0
  C  C157  1  0.673800  0.542500  0.489210  1.0
  C  C158  1  0.173800  0.957500  0.010790  1.0
  C  C159  1  0.326200  0.457500  0.510790  1.0
  C  C160  1  0.826200  0.042500  0.989210  1.0
  C  C161  1  0.651200  0.581500  0.562900  1.0
  C  C162  1  0.151200  0.918500  0.937100  1.0
  C  C163  1  0.348800  0.418500  0.437100  1.0
  C  C164  1  0.848800  0.081500  0.062900  1.0
  C  C165  1  0.547900  0.639100  0.586900  1.0
  C  C166  1  0.047900  0.860900  0.913100  1.0
  C  C167  1  0.452100  0.360900  0.413100  1.0
  C  C168  1  0.952100  0.139100  0.086900  1.0
  C  C169  1  0.469600  0.656500  0.537300  1.0
  C  C170  1  0.969600  0.843500  0.962700  1.0
  C  C171  1  0.530400  0.343500  0.462700  1.0
  C  C172  1  0.030400  0.156500  0.037300  1.0
  C  C173  1  0.498100  0.616500  0.463600  1.0
  C  C174  1  0.998100  0.883500  0.036400  1.0
  C  C175  1  0.501900  0.383500  0.536400  1.0
  C  C176  1  0.001900  0.116500  0.963600  1.0
  C  C177  1  0.383500  0.526700  0.276500  1.0
  C  C178  1  0.883500  0.973300  0.223500  1.0
  C  C179  1  0.616500  0.473300  0.723500  1.0
  C  C180  1  0.116500  0.026700  0.776500  1.0
  C  C181  1  0.277900  0.557700  0.247500  1.0
  C  C182  1  0.777900  0.942300  0.252500  1.0
  C  C183  1  0.722100  0.442300  0.752500  1.0
  C  C184  1  0.222100  0.057700  0.747500  1.0
  C  C185  1  0.313300  0.618360  0.231560  1.0
  C  C186  1  0.813300  0.881640  0.268440  1.0
  C  C187  1  0.686700  0.381640  0.768440  1.0
  C  C188  1  0.186700  0.118360  0.731560  1.0
  C  C189  1  0.458500  0.644590  0.245350  1.0
  C  C190  1  0.958500  0.855410  0.254650  1.0
  C  C191  1  0.541500  0.355410  0.754650  1.0
  C  C192  1  0.041500  0.144590  0.745350  1.0
  C  C193  1  0.559100  0.611750  0.274880  1.0
  C  C194  1  0.059100  0.888250  0.225120  1.0
  C  C195  1  0.440900  0.388250  0.725120  1.0
  C  C196  1  0.940900  0.111750  0.774880  1.0
  C  C197  1  0.197700  0.655080  0.202260  1.0
  C  C198  1  0.697700  0.844920  0.297740  1.0
  C  C199  1  0.802300  0.344920  0.797740  1.0
  C  C200  1  0.302300  0.155080  0.702260  1.0
  C  C201  1  0.961500  0.629000  0.134720  1.0
  C  C202  1  0.461500  0.871000  0.365280  1.0
  C  C203  1  0.038500  0.371000  0.865280  1.0
  C  C204  1  0.538500  0.129000  0.634720  1.0
  C  C205  1  0.977600  0.675800  0.089740  1.0
  C  C206  1  0.477600  0.824200  0.410260  1.0
  C  C207  1  0.022400  0.324200  0.910260  1.0
  C  C208  1  0.522400  0.175800  0.589740  1.0
  C  C209  1  0.196300  0.605210  0.033480  1.0
  C  C210  1  0.696300  0.894790  0.466520  1.0
  C  C211  1  0.803700  0.394790  0.966520  1.0
  C  C212  1  0.303700  0.105210  0.533480  1.0
  C  C213  1  0.179000  0.559390  0.078600  1.0
  C  C214  1  0.679000  0.940610  0.421400  1.0
  C  C215  1  0.821000  0.440610  0.921400  1.0
  C  C216  1  0.321000  0.059390  0.578600  1.0
  C  C217  1  0.065800  0.677110  0.978140  1.0
  C  C218  1  0.565800  0.822890  0.521860  1.0
  C  C219  1  0.934200  0.322890  0.021860  1.0
  C  C220  1  0.434200  0.177110  0.478140  1.0
  C  C221  1  0.133500  0.634400  0.903600  1.0
  C  C222  1  0.633500  0.865600  0.596400  1.0
  C  C223  1  0.866500  0.365600  0.096400  1.0
  C  C224  1  0.366500  0.134400  0.403600  1.0
  C  C225  1  0.084200  0.562680  0.858860  1.0
  C  C226  1  0.584200  0.937320  0.641140  1.0
  C  C227  1  0.915800  0.437320  0.141140  1.0
  C  C228  1  0.415800  0.062680  0.358860  1.0
  C  C229  1  0.146000  0.525620  0.791290  1.0
  C  C230  1  0.646000  0.974380  0.708710  1.0
  C  C231  1  0.854000  0.474380  0.208710  1.0
  C  C232  1  0.354000  0.025620  0.291290  1.0
  C  C233  1  0.303800  0.625000  0.808900  1.0
  C  C234  1  0.803800  0.875000  0.691100  1.0
  C  C235  1  0.696200  0.375000  0.191100  1.0
  C  C236  1  0.196200  0.125000  0.308900  1.0
  C  C237  1  0.245600  0.664630  0.877230  1.0
  C  C238  1  0.745600  0.835370  0.622770  1.0
  C  C239  1  0.754400  0.335370  0.122770  1.0
  C  C240  1  0.254400  0.164630  0.377230  1.0
  N  N241  1  0.594200  0.578500  0.073000  1
  N  N242  1  0.094200  0.921500  0.427000  1
  N  N243  1  0.405800  0.421500  0.927000  1
  N  N244  1  0.905800  0.078500  0.573000  1
  N  N245  1  0.790900  0.450490  0.384110  1.0
  N  N246  1  0.290900  0.049510  0.115890  1.0
  N  N247  1  0.209100  0.549510  0.615890  1.0
  N  N248  1  0.709100  0.950490  0.884110  1.0
  N  N249  1  0.598500  0.560830  0.439940  1.0
  N  N250  1  0.098500  0.939170  0.060060  1.0
  N  N251  1  0.401500  0.439170  0.560060  1.0
  N  N252  1  0.901500  0.060830  0.939940  1.0
  N  N253  1  0.522500  0.553600  0.291390  1.0
  N  N254  1  0.022500  0.946400  0.208610  1.0
  N  N255  1  0.477500  0.446400  0.708610  1.0
  N  N256  1  0.977500  0.053600  0.791390  1.0
  N  N257  1  0.102300  0.598800  0.148430  1.0
  N  N258  1  0.602300  0.901200  0.351570  1.0
  N  N259  1  0.897700  0.401200  0.851570  1.0
  N  N260  1  0.397700  0.098800  0.648430  1.0
  N  N261  1  0.049800  0.630780  0.019820  1.0
  N  N262  1  0.549800  0.869220  0.480180  1.0
  N  N263  1  0.950200  0.369220  0.980180  1.0
  N  N264  1  0.450200  0.130780  0.519820  1.0
  N  N265  1  0.254100  0.556160  0.765990  1.0
  N  N266  1  0.754100  0.943840  0.734010  1.0
  N  N267  1  0.745900  0.443840  0.234010  1.0
  N  N268  1  0.245900  0.056160  0.265990  1.0
  Cl  Cl269  1  0.228660  0.323180  0.219590  1
  Cl  Cl270  1  0.728660  0.176820  0.280410  1
  Cl  Cl271  1  0.771340  0.676820  0.780410  1
  Cl  Cl272  1  0.271340  0.823180  0.719590  1
  Cl  Cl273  1  0.968140  0.675080  0.388110  1
  Cl  Cl274  1  0.468140  0.824920  0.111890  1
  Cl  Cl275  1  0.031860  0.324920  0.611890  1
  Cl  Cl276  1  0.531860  0.175080  0.888110  1
  O  O277  1  0.159000  0.393200  0.266000  1
  O  O278  1  0.659000  0.106800  0.234000  1
  O  O279  1  0.841000  0.606800  0.734000  1
  O  O280  1  0.341000  0.893200  0.766000  1
  O  O281  1  0.373100  0.335000  0.243500  1
  O  O282  1  0.873100  0.165000  0.256500  1
  O  O283  1  0.626900  0.665000  0.756500  1
  O  O284  1  0.126900  0.835000  0.743500  1
  O  O285  1  0.169100  0.263100  0.230600  1
  O  O286  1  0.669100  0.236900  0.269400  1
  O  O287  1  0.830900  0.736900  0.769400  1
  O  O288  1  0.330900  0.763100  0.730600  1
  O  O289  1  0.226000  0.311500  0.148200  1
  O  O290  1  0.726000  0.188500  0.351800  1
  O  O291  1  0.774000  0.688500  0.851800  1
  O  O292  1  0.274000  0.811500  0.648200  1
  O  O293  1  0.970800  0.595700  0.368800  1
  O  O294  1  0.470800  0.904300  0.131200  1
  O  O295  1  0.029200  0.404300  0.631200  1
  O  O296  1  0.529200  0.095700  0.868800  1
  O  O297  1  0.883600  0.710100  0.451300  1
  O  O298  1  0.383600  0.789900  0.048700  1
  O  O299  1  0.116400  0.289900  0.548700  1
  O  O300  1  0.616400  0.210100  0.951300  1
  O  O301  1  0.116200  0.699300  0.403100  1
  O  O302  1  0.616200  0.800700  0.096900  1
  O  O303  1  0.883800  0.300700  0.596900  1
  O  O304  1  0.383800  0.199300  0.903100  1
  O  O305  1  0.910800  0.686700  0.328600  1
  O  O306  1  0.410800  0.813300  0.171400  1
  O  O307  1  0.089200  0.313300  0.671400  1
  O  O308  1  0.589200  0.186700  0.828600  1
