# generated using pymatgen
data_Si14H202W(C9O2)12
_symmetry_space_group_name_H-M   'P 1'
_cell_length_a   15.88873987
_cell_length_b   15.88873987
_cell_length_c   22.17600000
_cell_angle_alpha   90.00000000
_cell_angle_beta   90.00000000
_cell_angle_gamma   104.71748482
_symmetry_Int_Tables_number   1
_chemical_formula_structural   Si14H202W(C9O2)12
_chemical_formula_sum   'Si28 H404 W2 C216 O48'
_cell_volume   5414.69552501
_cell_formula_units_Z   2
loop_
 _symmetry_equiv_pos_site_id
 _symmetry_equiv_pos_as_xyz
  1  'x, y, z'
loop_
 _atom_site_type_symbol
 _atom_site_label
 _atom_site_symmetry_multiplicity
 _atom_site_fract_x
 _atom_site_fract_y
 _atom_site_fract_z
 _atom_site_occupancy
  C  C1  1  0.499300  0.118900  0.892800  1
  C  C2  1  0.000700  0.381100  0.392800  1
  C  C3  1  0.118900  0.499300  0.107200  1
  C  C4  1  0.381100  0.000700  0.607200  1
  C  C5  1  0.500700  0.881100  0.107200  1
  C  C6  1  0.999300  0.618900  0.607200  1
  C  C7  1  0.881100  0.500700  0.892800  1
  C  C8  1  0.618900  0.999300  0.392800  1
  C  C9  1  0.554700  0.112500  0.837000  1
  C  C10  1  0.945300  0.387500  0.337000  1
  C  C11  1  0.112500  0.554700  0.163000  1
  C  C12  1  0.387500  0.945300  0.663000  1
  C  C13  1  0.445300  0.887500  0.163000  1
  C  C14  1  0.054700  0.612500  0.663000  1
  C  C15  1  0.887500  0.445300  0.837000  1
  C  C16  1  0.612500  0.054700  0.337000  1
  C  C17  1  0.534400  0.023600  0.813500  1
  C  C18  1  0.965600  0.476400  0.313500  1
  C  C19  1  0.023600  0.534400  0.186500  1
  C  C20  1  0.476400  0.965600  0.686500  1
  C  C21  1  0.465600  0.976400  0.186500  1
  C  C22  1  0.034400  0.523600  0.686500  1
  C  C23  1  0.976400  0.465600  0.813500  1
  C  C24  1  0.523600  0.034400  0.313500  1
  C  C25  1  0.535500  0.952300  0.861900  1
  C  C26  1  0.964500  0.547700  0.361900  1
  C  C27  1  0.952300  0.535500  0.138100  1
  C  C28  1  0.547700  0.964500  0.638100  1
  C  C29  1  0.464500  0.047700  0.138100  1
  C  C30  1  0.035500  0.452300  0.638100  1
  C  C31  1  0.047700  0.464500  0.861900  1
  C  C32  1  0.452300  0.035500  0.361900  1
  C  C33  1  0.478300  0.961100  0.915200  1
  C  C34  1  0.021700  0.538900  0.415200  1
  C  C35  1  0.961100  0.478300  0.084800  1
  C  C36  1  0.538900  0.021700  0.584800  1
  C  C37  1  0.521700  0.038900  0.084800  1
  C  C38  1  0.978300  0.461100  0.584800  1
  C  C39  1  0.038900  0.521700  0.915200  1
  C  C40  1  0.461100  0.978300  0.415200  1
  C  C41  1  0.497400  0.042200  0.945800  1
  C  C42  1  0.002600  0.457800  0.445800  1
  C  C43  1  0.042200  0.497400  0.054200  1
  C  C44  1  0.457800  0.002600  0.554200  1
  C  C45  1  0.502600  0.957800  0.054200  1
  C  C46  1  0.997400  0.542200  0.554200  1
  C  C47  1  0.957800  0.502600  0.945800  1
  C  C48  1  0.542200  0.997400  0.445800  1
  C  C49  1  0.554200  0.445800  0.801100  1.0
  C  C50  1  0.945800  0.054200  0.301100  1.0
  C  C51  1  0.445800  0.554200  0.198900  1.0
  C  C52  1  0.054200  0.945800  0.698900  1.0
  C  C53  1  0.497500  0.502500  0.784800  1.0
  C  C54  1  0.002500  0.997500  0.284800  1.0
  C  C55  1  0.502500  0.497500  0.215200  1.0
  C  C56  1  0.997500  0.002500  0.715200  1.0
  C  C57  1  0.481900  0.518100  0.720800  1.0
  C  C58  1  0.018100  0.981900  0.220800  1.0
  C  C59  1  0.518100  0.481900  0.279200  1.0
  C  C60  1  0.981900  0.018100  0.779200  1.0
  C  C61  1  0.523000  0.477000  0.674300  1.0
  C  C62  1  0.977000  0.023000  0.174300  1.0
  C  C63  1  0.477000  0.523000  0.325700  1.0
  C  C64  1  0.023000  0.977000  0.825700  1.0
  C  C65  1  0.579700  0.420300  0.690400  1.0
  C  C66  1  0.920300  0.079700  0.190400  1.0
  C  C67  1  0.420300  0.579700  0.309600  1.0
  C  C68  1  0.079700  0.920300  0.809600  1.0
  C  C69  1  0.595500  0.404500  0.754500  1.0
  C  C70  1  0.904500  0.095500  0.254500  1.0
  C  C71  1  0.404500  0.595500  0.245500  1.0
  C  C72  1  0.095500  0.904500  0.745500  1.0
  C  C73  1  0.809000  0.191000  0.972700  1.0
  C  C74  1  0.691000  0.309000  0.472700  1.0
  C  C75  1  0.191000  0.809000  0.027300  1.0
  C  C76  1  0.309000  0.691000  0.527300  1.0
  C  C77  1  0.911600  0.088400  0.016900  1.0
  C  C78  1  0.588400  0.411600  0.516900  1.0
  C  C79  1  0.088400  0.911600  0.983100  1.0
  C  C80  1  0.411600  0.588400  0.483100  1.0
  C  C81  1  0.694700  0.305300  0.173600  1.0
  C  C82  1  0.805300  0.194700  0.673600  1.0
  C  C83  1  0.305300  0.694700  0.826400  1.0
  C  C84  1  0.194700  0.805300  0.326400  1.0
  C  C85  1  0.750400  0.249600  0.191400  1.0
  C  C86  1  0.749600  0.250400  0.691400  1.0
  C  C87  1  0.249600  0.750400  0.808600  1.0
  C  C88  1  0.250400  0.749600  0.308600  1.0
  C  C89  1  0.764700  0.235300  0.255500  1.0
  C  C90  1  0.735300  0.264700  0.755500  1.0
  C  C91  1  0.235300  0.764700  0.744500  1.0
  C  C92  1  0.264700  0.735300  0.244500  1.0
  C  C93  1  0.722800  0.277200  0.301100  1.0
  C  C94  1  0.777200  0.222800  0.801100  1.0
  C  C95  1  0.277200  0.722800  0.698900  1.0
  C  C96  1  0.222800  0.777200  0.198900  1.0
  C  C97  1  0.667100  0.332900  0.284100  1.0
  C  C98  1  0.832900  0.167100  0.784100  1.0
  C  C99  1  0.332900  0.667100  0.715900  1.0
  C  C100  1  0.167100  0.832900  0.215900  1.0
  C  C101  1  0.652400  0.347600  0.219700  1.0
  C  C102  1  0.847600  0.152400  0.719700  1.0
  C  C103  1  0.347600  0.652400  0.780300  1.0
  C  C104  1  0.152400  0.847600  0.280300  1.0
  C  C105  1  0.475300  0.143500  0.875200  1.0
  C  C106  1  0.024700  0.356500  0.375200  1.0
  C  C107  1  0.143500  0.475300  0.124800  1.0
  C  C108  1  0.356500  0.024700  0.624800  1.0
  C  C109  1  0.524700  0.856500  0.124800  1.0
  C  C110  1  0.975300  0.643500  0.624800  1.0
  C  C111  1  0.856500  0.524700  0.875200  1.0
  C  C112  1  0.643500  0.975300  0.375200  1.0
  C  C113  1  0.388200  0.160000  0.855800  1.0
  C  C114  1  0.111800  0.340000  0.355800  1.0
  C  C115  1  0.160000  0.388200  0.144200  1.0
  C  C116  1  0.340000  0.111800  0.644200  1.0
  C  C117  1  0.611800  0.840000  0.144200  1.0
  C  C118  1  0.888200  0.660000  0.644200  1.0
  C  C119  1  0.840000  0.611800  0.855800  1.0
  C  C120  1  0.660000  0.888200  0.355800  1.0
  C  C121  1  0.346600  0.076600  0.807000  1.0
  C  C122  1  0.153400  0.423400  0.307000  1.0
  C  C123  1  0.076600  0.346600  0.193000  1.0
  C  C124  1  0.423400  0.153400  0.693000  1.0
  C  C125  1  0.653400  0.923400  0.193000  1.0
  C  C126  1  0.846600  0.576600  0.693000  1.0
  C  C127  1  0.923400  0.653400  0.807000  1.0
  C  C128  1  0.576600  0.846600  0.307000  1.0
  C  C129  1  0.323000  0.990000  0.840600  1.0
  C  C130  1  0.177000  0.510000  0.340600  1.0
  C  C131  1  0.990000  0.323000  0.159400  1.0
  C  C132  1  0.510000  0.177000  0.659400  1.0
  C  C133  1  0.677000  0.010000  0.159400  1.0
  C  C134  1  0.823000  0.490000  0.659400  1.0
  C  C135  1  0.010000  0.677000  0.840600  1.0
  C  C136  1  0.490000  0.823000  0.340600  1.0
  C  C137  1  0.407200  0.973200  0.865000  1.0
  C  C138  1  0.092800  0.526800  0.365000  1.0
  C  C139  1  0.973200  0.407200  0.135000  1.0
  C  C140  1  0.526800  0.092800  0.635000  1.0
  C  C141  1  0.592800  0.026800  0.135000  1.0
  C  C142  1  0.907200  0.473200  0.635000  1.0
  C  C143  1  0.026800  0.592800  0.865000  1.0
  C  C144  1  0.473200  0.907200  0.365000  1.0
  C  C145  1  0.450400  0.049000  0.909400  1.0
  C  C146  1  0.049600  0.451000  0.409400  1.0
  C  C147  1  0.049000  0.450400  0.090600  1.0
  C  C148  1  0.451000  0.049600  0.590600  1.0
  C  C149  1  0.549600  0.951000  0.090600  1.0
  C  C150  1  0.950400  0.549000  0.590600  1.0
  C  C151  1  0.951000  0.549600  0.909400  1.0
  C  C152  1  0.549000  0.950400  0.409400  1.0
  C  C153  1  0.771000  0.097800  0.997100  1.0
  C  C154  1  0.729000  0.402200  0.497100  1.0
  C  C155  1  0.097800  0.771000  0.002900  1.0
  C  C156  1  0.402200  0.729000  0.502900  1.0
  C  C157  1  0.229000  0.902200  0.002900  1.0
  C  C158  1  0.271000  0.597800  0.502900  1.0
  C  C159  1  0.902200  0.229000  0.997100  1.0
  C  C160  1  0.597800  0.271000  0.497100  1.0
  C  C161  1  0.830700  0.047300  0.977400  1.0
  C  C162  1  0.669300  0.452700  0.477400  1.0
  C  C163  1  0.047300  0.830700  0.022600  1.0
  C  C164  1  0.452700  0.669300  0.522600  1.0
  C  C165  1  0.169300  0.952700  0.022600  1.0
  C  C166  1  0.330700  0.547300  0.522600  1.0
  C  C167  1  0.952700  0.169300  0.977400  1.0
  C  C168  1  0.547300  0.330700  0.477400  1.0
  C  C169  1  0.348200  0.223400  0.068400  1.0
  C  C170  1  0.151800  0.276600  0.568400  1.0
  C  C171  1  0.223400  0.348200  0.931600  1.0
  C  C172  1  0.276600  0.151800  0.431600  1.0
  C  C173  1  0.651800  0.776600  0.931600  1.0
  C  C174  1  0.848200  0.723400  0.431600  1.0
  C  C175  1  0.776600  0.651800  0.068400  1.0
  C  C176  1  0.723400  0.848200  0.568400  1.0
  C  C177  1  0.369000  0.274200  0.122800  1.0
  C  C178  1  0.131000  0.225800  0.622800  1.0
  C  C179  1  0.274200  0.369000  0.877200  1.0
  C  C180  1  0.225800  0.131000  0.377200  1.0
  C  C181  1  0.631000  0.725800  0.877200  1.0
  C  C182  1  0.869000  0.774200  0.377200  1.0
  C  C183  1  0.725800  0.631000  0.122800  1.0
  C  C184  1  0.774200  0.869000  0.622800  1.0
  C  C185  1  0.321200  0.208200  0.170600  1.0
  C  C186  1  0.178800  0.291800  0.670600  1.0
  C  C187  1  0.208200  0.321200  0.829400  1.0
  C  C188  1  0.291800  0.178800  0.329400  1.0
  C  C189  1  0.678800  0.791800  0.829400  1.0
  C  C190  1  0.821200  0.708200  0.329400  1.0
  C  C191  1  0.791800  0.678800  0.170600  1.0
  C  C192  1  0.708200  0.821200  0.670600  1.0
  C  C193  1  0.234600  0.225000  0.158600  1.0
  C  C194  1  0.265400  0.275000  0.658600  1.0
  C  C195  1  0.225000  0.234600  0.841400  1.0
  C  C196  1  0.275000  0.265400  0.341400  1.0
  C  C197  1  0.765400  0.775000  0.841400  1.0
  C  C198  1  0.734600  0.725000  0.341400  1.0
  C  C199  1  0.775000  0.765400  0.158600  1.0
  C  C200  1  0.725000  0.734600  0.658600  1.0
  C  C201  1  0.211400  0.219000  0.094800  1.0
  C  C202  1  0.288600  0.281000  0.594800  1.0
  C  C203  1  0.219000  0.211400  0.905200  1.0
  C  C204  1  0.281000  0.288600  0.405200  1.0
  C  C205  1  0.788600  0.781000  0.905200  1.0
  C  C206  1  0.711400  0.719000  0.405200  1.0
  C  C207  1  0.781000  0.788600  0.094800  1.0
  C  C208  1  0.719000  0.711400  0.594800  1.0
  C  C209  1  0.264300  0.156300  0.071600  1.0
  C  C210  1  0.235700  0.343700  0.571600  1.0
  C  C211  1  0.156300  0.264300  0.928400  1.0
  C  C212  1  0.343700  0.235700  0.428400  1.0
  C  C213  1  0.735700  0.843700  0.928400  1.0
  C  C214  1  0.764300  0.656300  0.428400  1.0
  C  C215  1  0.843700  0.735700  0.071600  1.0
  C  C216  1  0.656300  0.764300  0.571600  1.0
  H  H217  1  0.503700  0.395300  0.801100  1
  H  H218  1  0.996300  0.104700  0.301100  1
  H  H219  1  0.395300  0.503700  0.198900  1
  H  H220  1  0.104700  0.996300  0.698900  1
  H  H221  1  0.496300  0.604700  0.198900  1
  H  H222  1  0.003700  0.895300  0.698900  1
  H  H223  1  0.604700  0.496300  0.801100  1
  H  H224  1  0.895300  0.003700  0.301100  1
  H  H225  1  0.509100  0.138900  0.838900  1
  H  H226  1  0.990900  0.361100  0.338900  1
  H  H227  1  0.138900  0.509100  0.161100  1
  H  H228  1  0.361100  0.990900  0.661100  1
  H  H229  1  0.490900  0.861100  0.161100  1
  H  H230  1  0.009100  0.638900  0.661100  1
  H  H231  1  0.861100  0.490900  0.838900  1
  H  H232  1  0.638900  0.009100  0.338900  1
  H  H233  1  0.439500  0.115700  0.879900  1
  H  H234  1  0.060500  0.384300  0.379900  1
  H  H235  1  0.115700  0.439500  0.120100  1
  H  H236  1  0.384300  0.060500  0.620100  1
  H  H237  1  0.560500  0.884300  0.120100  1
  H  H238  1  0.939500  0.615700  0.620100  1
  H  H239  1  0.884300  0.560500  0.879900  1
  H  H240  1  0.615700  0.939500  0.379900  1
  H  H241  1  0.543900  0.151500  0.806000  1
  H  H242  1  0.956100  0.348500  0.306000  1
  H  H243  1  0.151500  0.543900  0.194000  1
  H  H244  1  0.348500  0.956100  0.694000  1
  H  H245  1  0.456100  0.848500  0.194000  1
  H  H246  1  0.043900  0.651500  0.694000  1
  H  H247  1  0.848500  0.456100  0.806000  1
  H  H248  1  0.651500  0.043900  0.306000  1
  H  H249  1  0.615900  0.130500  0.847600  1
  H  H250  1  0.884100  0.369500  0.347600  1
  H  H251  1  0.130500  0.615900  0.152400  1
  H  H252  1  0.369500  0.884100  0.652400  1
  H  H253  1  0.384100  0.869500  0.152400  1
  H  H254  1  0.115900  0.630500  0.652400  1
  H  H255  1  0.869500  0.384100  0.847600  1
  H  H256  1  0.630500  0.115900  0.347600  1
  H  H257  1  0.576100  0.020500  0.782200  1
  H  H258  1  0.923900  0.479500  0.282200  1
  H  H259  1  0.020500  0.576100  0.217800  1
  H  H260  1  0.479500  0.923900  0.717800  1
  H  H261  1  0.423900  0.979500  0.217800  1
  H  H262  1  0.076100  0.520500  0.717800  1
  H  H263  1  0.979500  0.423900  0.782200  1
  H  H264  1  0.520500  0.076100  0.282200  1
  H  H265  1  0.477200  0.010800  0.795000  1
  H  H266  1  0.022800  0.489200  0.295000  1
  H  H267  1  0.010800  0.477200  0.205000  1
  H  H268  1  0.489200  0.022800  0.705000  1
  H  H269  1  0.522800  0.989200  0.205000  1
  H  H270  1  0.977200  0.510800  0.705000  1
  H  H271  1  0.989200  0.522800  0.795000  1
  H  H272  1  0.510800  0.977200  0.295000  1
  H  H273  1  0.514800  0.895000  0.844000  1
  H  H274  1  0.985200  0.605000  0.344000  1
  H  H275  1  0.895000  0.514800  0.156000  1
  H  H276  1  0.605000  0.985200  0.656000  1
  H  H277  1  0.485200  0.105000  0.156000  1
  H  H278  1  0.014800  0.395000  0.656000  1
  H  H279  1  0.105000  0.485200  0.844000  1
  H  H280  1  0.395000  0.014800  0.344000  1
  H  H281  1  0.594700  0.958300  0.875700  1
  H  H282  1  0.905300  0.541700  0.375700  1
  H  H283  1  0.958300  0.594700  0.124300  1
  H  H284  1  0.541700  0.905300  0.624300  1
  H  H285  1  0.405300  0.041700  0.124300  1
  H  H286  1  0.094700  0.458300  0.624300  1
  H  H287  1  0.041700  0.405300  0.875700  1
  H  H288  1  0.458300  0.094700  0.375700  1
  H  H289  1  0.418600  0.948800  0.901100  1
  H  H290  1  0.081400  0.551200  0.401100  1
  H  H291  1  0.948800  0.418600  0.098900  1
  H  H292  1  0.551200  0.081400  0.598900  1
  H  H293  1  0.581400  0.051200  0.098900  1
  H  H294  1  0.918600  0.448800  0.598900  1
  H  H295  1  0.051200  0.581400  0.901100  1
  H  H296  1  0.448800  0.918600  0.401100  1
  H  H297  1  0.481400  0.916400  0.944300  1
  H  H298  1  0.018600  0.583600  0.444300  1
  H  H299  1  0.916400  0.481400  0.055700  1
  H  H300  1  0.583600  0.018600  0.555700  1
  H  H301  1  0.518600  0.083600  0.055700  1
  H  H302  1  0.981400  0.416400  0.555700  1
  H  H303  1  0.083600  0.518600  0.944300  1
  H  H304  1  0.416400  0.981400  0.444300  1
  H  H305  1  0.553300  0.052500  0.965900  1
  H  H306  1  0.946700  0.447500  0.465900  1
  H  H307  1  0.052500  0.553300  0.034100  1
  H  H308  1  0.447500  0.946700  0.534100  1
  H  H309  1  0.446700  0.947500  0.034100  1
  H  H310  1  0.053300  0.552500  0.534100  1
  H  H311  1  0.947500  0.446700  0.965900  1
  H  H312  1  0.552500  0.053300  0.465900  1
  H  H313  1  0.453000  0.042800  0.975700  1
  H  H314  1  0.047000  0.457200  0.475700  1
  H  H315  1  0.042800  0.453000  0.024300  1
  H  H316  1  0.457200  0.047000  0.524300  1
  H  H317  1  0.547000  0.957200  0.024300  1
  H  H318  1  0.953000  0.542800  0.524300  1
  H  H319  1  0.957200  0.547000  0.975700  1
  H  H320  1  0.542800  0.953000  0.475700  1
  H  H321  1  0.745200  0.355800  0.173600  1
  H  H322  1  0.754800  0.144200  0.673600  1
  H  H323  1  0.355800  0.745200  0.826400  1
  H  H324  1  0.144200  0.754800  0.326400  1
  H  H325  1  0.254800  0.644200  0.826400  1
  H  H326  1  0.245200  0.855800  0.326400  1
  H  H327  1  0.644200  0.254800  0.173600  1
  H  H328  1  0.855800  0.245200  0.673600  1
  H  H329  1  0.816300  0.183700  0.929300  1.0
  H  H330  1  0.683700  0.316300  0.429300  1.0
  H  H331  1  0.183700  0.816300  0.070700  1.0
  H  H332  1  0.316300  0.683700  0.570700  1.0
  H  H333  1  0.950000  0.050000  0.021100  1.0
  H  H334  1  0.550000  0.450000  0.521100  1.0
  H  H335  1  0.050000  0.950000  0.978900  1.0
  H  H336  1  0.450000  0.550000  0.478900  1.0
  H  H337  1  0.895200  0.104800  0.056500  1.0
  H  H338  1  0.604800  0.395200  0.556500  1.0
  H  H339  1  0.104800  0.895200  0.943500  1.0
  H  H340  1  0.395200  0.604800  0.443500  1.0
  H  H341  1  0.521700  0.558700  0.803500  1.0
  H  H342  1  0.978300  0.941300  0.303500  1.0
  H  H343  1  0.558700  0.521700  0.196500  1.0
  H  H344  1  0.941300  0.978300  0.696500  1.0
  H  H345  1  0.478300  0.441300  0.196500  1.0
  H  H346  1  0.021700  0.058700  0.696500  1.0
  H  H347  1  0.441300  0.478300  0.803500  1.0
  H  H348  1  0.058700  0.021700  0.303500  1.0
  H  H349  1  0.419500  0.500100  0.714200  1.0
  H  H350  1  0.080500  0.999900  0.214200  1.0
  H  H351  1  0.500100  0.419500  0.285800  1.0
  H  H352  1  0.999900  0.080500  0.785800  1.0
  H  H353  1  0.580500  0.499900  0.285800  1.0
  H  H354  1  0.919500  0.000100  0.785800  1.0
  H  H355  1  0.499900  0.580500  0.714200  1.0
  H  H356  1  0.000100  0.919500  0.214200  1.0
  H  H357  1  0.557000  0.523200  0.649100  1.0
  H  H358  1  0.943000  0.976800  0.149100  1.0
  H  H359  1  0.523200  0.557000  0.350900  1.0
  H  H360  1  0.976800  0.943000  0.850900  1.0
  H  H361  1  0.443000  0.476800  0.350900  1.0
  H  H362  1  0.057000  0.023200  0.850900  1.0
  H  H363  1  0.476800  0.443000  0.649100  1.0
  H  H364  1  0.023200  0.057000  0.149100  1.0
  H  H365  1  0.635900  0.444500  0.671800  1.0
  H  H366  1  0.864100  0.055500  0.171800  1.0
  H  H367  1  0.444500  0.635900  0.328200  1.0
  H  H368  1  0.055500  0.864100  0.828200  1.0
  H  H369  1  0.364100  0.555500  0.328200  1.0
  H  H370  1  0.135900  0.944500  0.828200  1.0
  H  H371  1  0.555500  0.364100  0.671800  1.0
  H  H372  1  0.944500  0.135900  0.171800  1.0
  H  H373  1  0.577500  0.342100  0.761100  1.0
  H  H374  1  0.922500  0.157900  0.261100  1.0
  H  H375  1  0.342100  0.577500  0.238900  1.0
  H  H376  1  0.157900  0.922500  0.738900  1.0
  H  H377  1  0.422500  0.657900  0.238900  1.0
  H  H378  1  0.077500  0.842100  0.738900  1.0
  H  H379  1  0.657900  0.422500  0.761100  1.0
  H  H380  1  0.842100  0.077500  0.261100  1.0
  H  H381  1  0.397000  0.216000  0.835900  1.0
  H  H382  1  0.103000  0.284000  0.335900  1.0
  H  H383  1  0.216000  0.397000  0.164100  1.0
  H  H384  1  0.284000  0.103000  0.664100  1.0
  H  H385  1  0.603000  0.784000  0.164100  1.0
  H  H386  1  0.897000  0.716000  0.664100  1.0
  H  H387  1  0.784000  0.603000  0.835900  1.0
  H  H388  1  0.716000  0.897000  0.335900  1.0
  H  H389  1  0.350000  0.158400  0.890100  1.0
  H  H390  1  0.150000  0.341600  0.390100  1.0
  H  H391  1  0.158400  0.350000  0.109900  1.0
  H  H392  1  0.341600  0.150000  0.609900  1.0
  H  H393  1  0.650000  0.841600  0.109900  1.0
  H  H394  1  0.850000  0.658400  0.609900  1.0
  H  H395  1  0.841600  0.650000  0.890100  1.0
  H  H396  1  0.658400  0.850000  0.390100  1.0
  H  H397  1  0.295100  0.086100  0.787500  1.0
  H  H398  1  0.204900  0.413900  0.287500  1.0
  H  H399  1  0.086100  0.295100  0.212500  1.0
  H  H400  1  0.413900  0.204900  0.712500  1.0
  H  H401  1  0.704900  0.913900  0.212500  1.0
  H  H402  1  0.795100  0.586100  0.712500  1.0
  H  H403  1  0.913900  0.704900  0.787500  1.0
  H  H404  1  0.586100  0.795100  0.287500  1.0
  H  H405  1  0.389100  0.074900  0.776000  1.0
  H  H406  1  0.110900  0.425100  0.276000  1.0
  H  H407  1  0.074900  0.389100  0.224000  1.0
  H  H408  1  0.425100  0.110900  0.724000  1.0
  H  H409  1  0.610900  0.925100  0.224000  1.0
  H  H410  1  0.889100  0.574900  0.724000  1.0
  H  H411  1  0.925100  0.610900  0.776000  1.0
  H  H412  1  0.574900  0.889100  0.276000  1.0
  H  H413  1  0.283600  0.992600  0.873600  1.0
  H  H414  1  0.216400  0.507400  0.373600  1.0
  H  H415  1  0.992600  0.283600  0.126400  1.0
  H  H416  1  0.507400  0.216400  0.626400  1.0
  H  H417  1  0.716400  0.007400  0.126400  1.0
  H  H418  1  0.783600  0.492600  0.626400  1.0
  H  H419  1  0.007400  0.716400  0.873600  1.0
  H  H420  1  0.492600  0.783600  0.373600  1.0
  H  H421  1  0.294600  0.943600  0.813600  1.0
  H  H422  1  0.205400  0.556400  0.313600  1.0
  H  H423  1  0.943600  0.294600  0.186400  1.0
  H  H424  1  0.556400  0.205400  0.686400  1.0
  H  H425  1  0.705400  0.056400  0.186400  1.0
  H  H426  1  0.794600  0.443600  0.686400  1.0
  H  H427  1  0.056400  0.705400  0.813600  1.0
  H  H428  1  0.443600  0.794600  0.313600  1.0
  H  H429  1  0.446600  0.971000  0.831900  1.0
  H  H430  1  0.053400  0.529000  0.331900  1.0
  H  H431  1  0.971000  0.446600  0.168100  1.0
  H  H432  1  0.529000  0.053400  0.668100  1.0
  H  H433  1  0.553400  0.029000  0.168100  1.0
  H  H434  1  0.946600  0.471000  0.668100  1.0
  H  H435  1  0.029000  0.553400  0.831900  1.0
  H  H436  1  0.471000  0.946600  0.331900  1.0
  H  H437  1  0.394700  0.917900  0.886000  1.0
  H  H438  1  0.105300  0.582100  0.386000  1.0
  H  H439  1  0.917900  0.394700  0.114000  1.0
  H  H440  1  0.582100  0.105300  0.614000  1.0
  H  H441  1  0.605300  0.082100  0.114000  1.0
  H  H442  1  0.894700  0.417900  0.614000  1.0
  H  H443  1  0.082100  0.605300  0.886000  1.0
  H  H444  1  0.417900  0.894700  0.386000  1.0
  H  H445  1  0.502700  0.037700  0.926400  1.0
  H  H446  1  0.997300  0.462300  0.426400  1.0
  H  H447  1  0.037700  0.502700  0.073600  1.0
  H  H448  1  0.462300  0.997300  0.573600  1.0
  H  H449  1  0.497300  0.962300  0.073600  1.0
  H  H450  1  0.002700  0.537700  0.573600  1.0
  H  H451  1  0.962300  0.497300  0.926400  1.0
  H  H452  1  0.537700  0.002700  0.426400  1.0
  H  H453  1  0.410600  0.050600  0.942300  1.0
  H  H454  1  0.089400  0.449400  0.442300  1.0
  H  H455  1  0.050600  0.410600  0.057700  1.0
  H  H456  1  0.449400  0.089400  0.557700  1.0
  H  H457  1  0.589400  0.949400  0.057700  1.0
  H  H458  1  0.910600  0.550600  0.557700  1.0
  H  H459  1  0.949400  0.589400  0.942300  1.0
  H  H460  1  0.550600  0.910600  0.442300  1.0
  H  H461  1  0.767300  0.098100  0.040700  1.0
  H  H462  1  0.732700  0.401900  0.540700  1.0
  H  H463  1  0.098100  0.767300  0.959300  1.0
  H  H464  1  0.401900  0.732700  0.459300  1.0
  H  H465  1  0.232700  0.901900  0.959300  1.0
  H  H466  1  0.267300  0.598100  0.459300  1.0
  H  H467  1  0.901900  0.232700  0.040700  1.0
  H  H468  1  0.598100  0.267300  0.540700  1.0
  H  H469  1  0.713300  0.073300  0.980800  1.0
  H  H470  1  0.786700  0.426700  0.480800  1.0
  H  H471  1  0.073300  0.713300  0.019200  1.0
  H  H472  1  0.426700  0.786700  0.519200  1.0
  H  H473  1  0.286700  0.926700  0.019200  1.0
  H  H474  1  0.213300  0.573300  0.519200  1.0
  H  H475  1  0.926700  0.286700  0.980800  1.0
  H  H476  1  0.573300  0.213300  0.480800  1.0
  H  H477  1  0.843700  0.055100  0.934700  1.0
  H  H478  1  0.656300  0.444900  0.434700  1.0
  H  H479  1  0.055100  0.843700  0.065300  1.0
  H  H480  1  0.444900  0.656300  0.565300  1.0
  H  H481  1  0.156300  0.944900  0.065300  1.0
  H  H482  1  0.343700  0.555100  0.565300  1.0
  H  H483  1  0.944900  0.156300  0.934700  1.0
  H  H484  1  0.555100  0.343700  0.434700  1.0
  H  H485  1  0.808000  0.985800  0.985900  1.0
  H  H486  1  0.692000  0.514200  0.485900  1.0
  H  H487  1  0.985800  0.808000  0.014100  1.0
  H  H488  1  0.514200  0.692000  0.514100  1.0
  H  H489  1  0.192000  0.014200  0.014100  1.0
  H  H490  1  0.308000  0.485800  0.514100  1.0
  H  H491  1  0.014200  0.192000  0.985900  1.0
  H  H492  1  0.485800  0.308000  0.485900  1.0
  H  H493  1  0.807100  0.273300  0.173300  1.0
  H  H494  1  0.692900  0.226700  0.673300  1.0
  H  H495  1  0.273300  0.807100  0.826700  1.0
  H  H496  1  0.226700  0.692900  0.326700  1.0
  H  H497  1  0.192900  0.726700  0.826700  1.0
  H  H498  1  0.307100  0.773300  0.326700  1.0
  H  H499  1  0.726700  0.192900  0.173300  1.0
  H  H500  1  0.773300  0.307100  0.673300  1.0
  H  H501  1  0.746500  0.173100  0.262600  1.0
  H  H502  1  0.753500  0.326900  0.762600  1.0
  H  H503  1  0.173100  0.746500  0.737400  1.0
  H  H504  1  0.326900  0.753500  0.237400  1.0
  H  H505  1  0.253500  0.826900  0.737400  1.0
  H  H506  1  0.246500  0.673100  0.237400  1.0
  H  H507  1  0.826900  0.253500  0.262600  1.0
  H  H508  1  0.673100  0.246500  0.762600  1.0
  H  H509  1  0.688400  0.231400  0.326400  1.0
  H  H510  1  0.811600  0.268600  0.826400  1.0
  H  H511  1  0.231400  0.688400  0.673600  1.0
  H  H512  1  0.268600  0.811600  0.173600  1.0
  H  H513  1  0.311600  0.768600  0.673600  1.0
  H  H514  1  0.188400  0.731400  0.173600  1.0
  H  H515  1  0.768600  0.311600  0.326400  1.0
  H  H516  1  0.731400  0.188400  0.826400  1.0
  H  H517  1  0.690900  0.389500  0.302400  1.0
  H  H518  1  0.809100  0.110500  0.802400  1.0
  H  H519  1  0.389500  0.690900  0.697600  1.0
  H  H520  1  0.110500  0.809100  0.197600  1.0
  H  H521  1  0.309100  0.610500  0.697600  1.0
  H  H522  1  0.190900  0.889500  0.197600  1.0
  H  H523  1  0.610500  0.309100  0.302400  1.0
  H  H524  1  0.889500  0.190900  0.802400  1.0
  H  H525  1  0.670600  0.409800  0.212600  1.0
  H  H526  1  0.829400  0.090200  0.712600  1.0
  H  H527  1  0.409800  0.670600  0.787400  1.0
  H  H528  1  0.090200  0.829400  0.287400  1.0
  H  H529  1  0.329400  0.590200  0.787400  1.0
  H  H530  1  0.170600  0.909800  0.287400  1.0
  H  H531  1  0.590200  0.329400  0.212600  1.0
  H  H532  1  0.909800  0.170600  0.712600  1.0
  H  H533  1  0.323600  0.266200  0.047800  1.0
  H  H534  1  0.176400  0.233800  0.547800  1.0
  H  H535  1  0.266200  0.323600  0.952200  1.0
  H  H536  1  0.233800  0.176400  0.452200  1.0
  H  H537  1  0.676400  0.733800  0.952200  1.0
  H  H538  1  0.823600  0.766200  0.452200  1.0
  H  H539  1  0.733800  0.676400  0.047800  1.0
  H  H540  1  0.766200  0.823600  0.547800  1.0
  H  H541  1  0.346700  0.325700  0.121600  1.0
  H  H542  1  0.153300  0.174300  0.621600  1.0
  H  H543  1  0.325700  0.346700  0.878400  1.0
  H  H544  1  0.174300  0.153300  0.378400  1.0
  H  H545  1  0.653300  0.674300  0.878400  1.0
  H  H546  1  0.846700  0.825700  0.378400  1.0
  H  H547  1  0.674300  0.653300  0.121600  1.0
  H  H548  1  0.825700  0.846700  0.621600  1.0
  H  H549  1  0.431200  0.291400  0.129900  1.0
  H  H550  1  0.068800  0.208600  0.629900  1.0
  H  H551  1  0.291400  0.431200  0.870100  1.0
  H  H552  1  0.208600  0.068800  0.370100  1.0
  H  H553  1  0.568800  0.708600  0.870100  1.0
  H  H554  1  0.931200  0.791400  0.370100  1.0
  H  H555  1  0.708600  0.568800  0.129900  1.0
  H  H556  1  0.791400  0.931200  0.629900  1.0
  H  H557  1  0.322700  0.148900  0.161700  1.0
  H  H558  1  0.177300  0.351100  0.661700  1.0
  H  H559  1  0.148900  0.322700  0.838300  1.0
  H  H560  1  0.351100  0.177300  0.338300  1.0
  H  H561  1  0.677300  0.851100  0.838300  1.0
  H  H562  1  0.822700  0.648900  0.338300  1.0
  H  H563  1  0.851100  0.677300  0.161700  1.0
  H  H564  1  0.648900  0.822700  0.661700  1.0
  H  H565  1  0.341900  0.223700  0.211300  1.0
  H  H566  1  0.158100  0.276300  0.711300  1.0
  H  H567  1  0.223700  0.341900  0.788700  1.0
  H  H568  1  0.276300  0.158100  0.288700  1.0
  H  H569  1  0.658100  0.776300  0.788700  1.0
  H  H570  1  0.841900  0.723700  0.288700  1.0
  H  H571  1  0.776300  0.658100  0.211300  1.0
  H  H572  1  0.723700  0.841900  0.711300  1.0
  H  H573  1  0.190500  0.183300  0.181000  1.0
  H  H574  1  0.309500  0.316700  0.681000  1.0
  H  H575  1  0.183300  0.190500  0.819000  1.0
  H  H576  1  0.316700  0.309500  0.319000  1.0
  H  H577  1  0.809500  0.816700  0.819000  1.0
  H  H578  1  0.690500  0.683300  0.319000  1.0
  H  H579  1  0.816700  0.809500  0.181000  1.0
  H  H580  1  0.683300  0.690500  0.681000  1.0
  H  H581  1  0.234900  0.282700  0.173200  1.0
  H  H582  1  0.265100  0.217300  0.673200  1.0
  H  H583  1  0.282700  0.234900  0.826800  1.0
  H  H584  1  0.217300  0.265100  0.326800  1.0
  H  H585  1  0.765100  0.717300  0.826800  1.0
  H  H586  1  0.734900  0.782700  0.326800  1.0
  H  H587  1  0.717300  0.765100  0.173200  1.0
  H  H588  1  0.782700  0.734900  0.673200  1.0
  H  H589  1  0.229000  0.275200  0.075200  1.0
  H  H590  1  0.271000  0.224800  0.575200  1.0
  H  H591  1  0.275200  0.229000  0.924800  1.0
  H  H592  1  0.224800  0.271000  0.424800  1.0
  H  H593  1  0.771000  0.724800  0.924800  1.0
  H  H594  1  0.729000  0.775200  0.424800  1.0
  H  H595  1  0.724800  0.771000  0.075200  1.0
  H  H596  1  0.775200  0.729000  0.575200  1.0
  H  H597  1  0.149300  0.194900  0.089200  1.0
  H  H598  1  0.350700  0.305100  0.589200  1.0
  H  H599  1  0.194900  0.149300  0.910800  1.0
  H  H600  1  0.305100  0.350700  0.410800  1.0
  H  H601  1  0.850700  0.805100  0.910800  1.0
  H  H602  1  0.649300  0.694900  0.410800  1.0
  H  H603  1  0.805100  0.850700  0.089200  1.0
  H  H604  1  0.694900  0.649300  0.589200  1.0
  H  H605  1  0.265500  0.110300  0.100100  1.0
  H  H606  1  0.234500  0.389700  0.600100  1.0
  H  H607  1  0.110300  0.265500  0.899900  1.0
  H  H608  1  0.389700  0.234500  0.399900  1.0
  H  H609  1  0.734500  0.889700  0.899900  1.0
  H  H610  1  0.765500  0.610300  0.399900  1.0
  H  H611  1  0.889700  0.734500  0.100100  1.0
  H  H612  1  0.610300  0.765500  0.600100  1.0
  H  H613  1  0.244500  0.131700  0.032500  1.0
  H  H614  1  0.255500  0.368300  0.532500  1.0
  H  H615  1  0.131700  0.244500  0.967500  1.0
  H  H616  1  0.368300  0.255500  0.467500  1.0
  H  H617  1  0.755500  0.868300  0.967500  1.0
  H  H618  1  0.744500  0.631700  0.467500  1.0
  H  H619  1  0.868300  0.755500  0.032500  1.0
  H  H620  1  0.631700  0.744500  0.532500  1.0
  O  O621  1  0.536800  0.463200  0.927000  1.0
  O  O622  1  0.963200  0.036800  0.427000  1.0
  O  O623  1  0.463200  0.536800  0.073000  1.0
  O  O624  1  0.036800  0.963200  0.573000  1.0
  O  O625  1  0.717100  0.282900  0.051300  1.0
  O  O626  1  0.782900  0.217100  0.551300  1.0
  O  O627  1  0.282900  0.717100  0.948700  1.0
  O  O628  1  0.217100  0.782900  0.448700  1.0
  O  O629  1  0.552800  0.311000  0.889000  1.0
  O  O630  1  0.947200  0.189000  0.389000  1.0
  O  O631  1  0.311000  0.552800  0.111000  1.0
  O  O632  1  0.189000  0.947200  0.611000  1.0
  O  O633  1  0.447200  0.689000  0.111000  1.0
  O  O634  1  0.052800  0.811000  0.611000  1.0
  O  O635  1  0.689000  0.447200  0.889000  1.0
  O  O636  1  0.811000  0.052800  0.389000  1.0
  O  O637  1  0.638700  0.223700  0.948100  1.0
  O  O638  1  0.861300  0.276300  0.448100  1.0
  O  O639  1  0.223700  0.638700  0.051900  1.0
  O  O640  1  0.276300  0.861300  0.551900  1.0
  O  O641  1  0.361300  0.776300  0.051900  1.0
  O  O642  1  0.138700  0.723700  0.551900  1.0
  O  O643  1  0.776300  0.361300  0.948100  1.0
  O  O644  1  0.723700  0.138700  0.448100  1.0
  O  O645  1  0.568400  0.299000  0.087000  1.0
  O  O646  1  0.931600  0.201000  0.587000  1.0
  O  O647  1  0.299000  0.568400  0.913000  1.0
  O  O648  1  0.201000  0.931600  0.413000  1.0
  O  O649  1  0.431600  0.701000  0.913000  1.0
  O  O650  1  0.068400  0.799000  0.413000  1.0
  O  O651  1  0.701000  0.431600  0.087000  1.0
  O  O652  1  0.799000  0.068400  0.587000  1.0
  O  O653  1  0.477500  0.385300  0.030500  1.0
  O  O654  1  0.022500  0.114700  0.530500  1.0
  O  O655  1  0.385300  0.477500  0.969500  1.0
  O  O656  1  0.114700  0.022500  0.469500  1.0
  O  O657  1  0.522500  0.614700  0.969500  1.0
  O  O658  1  0.977500  0.885300  0.469500  1.0
  O  O659  1  0.614700  0.522500  0.030500  1.0
  O  O660  1  0.885300  0.977500  0.530500  1.0
  O  O661  1  0.490900  0.236300  0.988300  1.0
  O  O662  1  0.009100  0.263700  0.488300  1.0
  O  O663  1  0.236300  0.490900  0.011700  1.0
  O  O664  1  0.263700  0.009100  0.511700  1.0
  O  O665  1  0.509100  0.763700  0.011700  1.0
  O  O666  1  0.990900  0.736300  0.511700  1.0
  O  O667  1  0.763700  0.509100  0.988300  1.0
  O  O668  1  0.736300  0.990900  0.488300  1.0
  Si  Si669  1  0.585000  0.415000  0.877600  1.0
  Si  Si670  1  0.915000  0.085000  0.377600  1.0
  Si  Si671  1  0.415000  0.585000  0.122400  1.0
  Si  Si672  1  0.085000  0.915000  0.622400  1.0
  Si  Si673  1  0.733400  0.266600  0.979000  1.0
  Si  Si674  1  0.766600  0.233400  0.479000  1.0
  Si  Si675  1  0.266600  0.733400  0.021000  1.0
  Si  Si676  1  0.233400  0.766600  0.521000  1.0
  Si  Si677  1  0.670200  0.329800  0.099600  1.0
  Si  Si678  1  0.829800  0.170200  0.599600  1.0
  Si  Si679  1  0.329800  0.670200  0.900400  1.0
  Si  Si680  1  0.170200  0.829800  0.400400  1.0
  Si  Si681  1  0.546600  0.227800  0.928300  1.0
  Si  Si682  1  0.953400  0.272200  0.428300  1.0
  Si  Si683  1  0.227800  0.546600  0.071700  1.0
  Si  Si684  1  0.272200  0.953400  0.571700  1.0
  Si  Si685  1  0.453400  0.772200  0.071700  1.0
  Si  Si686  1  0.046600  0.727800  0.571700  1.0
  Si  Si687  1  0.772200  0.453400  0.928300  1.0
  Si  Si688  1  0.727800  0.046600  0.428300  1.0
  Si  Si689  1  0.481800  0.290400  0.048400  1.0
  Si  Si690  1  0.018200  0.209600  0.548400  1.0
  Si  Si691  1  0.290400  0.481800  0.951600  1.0
  Si  Si692  1  0.209600  0.018200  0.451600  1.0
  Si  Si693  1  0.518200  0.709600  0.951600  1.0
  Si  Si694  1  0.981800  0.790400  0.451600  1.0
  Si  Si695  1  0.709600  0.518200  0.048400  1.0
  Si  Si696  1  0.790400  0.981800  0.548400  1.0
  W  W697  1  0.500000  0.500000  0.000000  1
  W  W698  1  0.000000  0.000000  0.500000  1
