# generated using pymatgen
data_H69Pd3C64N9(Cl2O3)3
_symmetry_space_group_name_H-M   'P 1'
_cell_length_a   10.43400000
_cell_length_b   17.06170000
_cell_length_c   19.34150000
_cell_angle_alpha   90.00000000
_cell_angle_beta   90.00000000
_cell_angle_gamma   100.73300000
_symmetry_Int_Tables_number   1
_chemical_formula_structural   H69Pd3C64N9(Cl2O3)3
_chemical_formula_sum   'H138 Pd6 C128 N18 Cl12 O18'
_cell_volume   3382.97168846
_cell_formula_units_Z   2
loop_
 _symmetry_equiv_pos_site_id
 _symmetry_equiv_pos_as_xyz
  1  'x, y, z'
loop_
 _atom_site_type_symbol
 _atom_site_label
 _atom_site_symmetry_multiplicity
 _atom_site_fract_x
 _atom_site_fract_y
 _atom_site_fract_z
 _atom_site_occupancy
  H  H1  1  0.252500  0.579000  0.250000  1
  H  H2  1  0.747500  0.421000  0.750000  1
  H  H3  1  0.187900  0.487800  0.250000  1
  H  H4  1  0.812100  0.512200  0.750000  1
  H  H5  1  0.625200  0.487500  0.250000  1
  H  H6  1  0.374800  0.512500  0.750000  1
  H  H7  1  0.693100  0.300600  0.250000  1
  H  H8  1  0.306900  0.699400  0.750000  1
  H  H9  1  0.892900  0.353600  0.250000  1
  H  H10  1  0.107100  0.646400  0.750000  1
  H  H11  1  0.861800  0.018700  0.334900  1
  H  H12  1  0.138200  0.981300  0.834900  1
  H  H13  1  0.138200  0.981300  0.665100  1
  H  H14  1  0.861800  0.018700  0.165100  1
  H  H15  1  0.084000  0.187400  0.278100  1
  H  H16  1  0.916000  0.812600  0.778100  1
  H  H17  1  0.916000  0.812600  0.721900  1
  H  H18  1  0.084000  0.187400  0.221900  1
  H  H19  1  0.966300  0.222000  0.248400  1
  H  H20  1  0.033700  0.778000  0.748400  1
  H  H21  1  0.033700  0.778000  0.751600  1
  H  H22  1  0.966300  0.222000  0.251600  1
  H  H23  1  0.030200  0.162600  0.204000  1
  H  H24  1  0.969800  0.837400  0.704000  1
  H  H25  1  0.969800  0.837400  0.796000  1
  H  H26  1  0.030200  0.162600  0.296000  1
  H  H27  1  0.755900  0.058100  0.224700  1
  H  H28  1  0.244100  0.941900  0.724700  1
  H  H29  1  0.244100  0.941900  0.775300  1
  H  H30  1  0.755900  0.058100  0.275300  1
  H  H31  1  0.786800  0.151400  0.219400  1
  H  H32  1  0.213200  0.848600  0.719400  1
  H  H33  1  0.213200  0.848600  0.780600  1
  H  H34  1  0.786800  0.151400  0.280600  1
  H  H35  1  0.722000  0.110100  0.286500  1
  H  H36  1  0.278000  0.889900  0.786500  1
  H  H37  1  0.278000  0.889900  0.713500  1
  H  H38  1  0.722000  0.110100  0.213500  1
  H  H39  1  0.446800  0.625500  0.315300  1.0
  H  H40  1  0.553200  0.374500  0.815300  1.0
  H  H41  1  0.553200  0.374500  0.684700  1.0
  H  H42  1  0.446800  0.625500  0.184700  1.0
  H  H43  1  0.437400  0.379900  0.413700  1.0
  H  H44  1  0.562600  0.620100  0.913700  1.0
  H  H45  1  0.562600  0.620100  0.586300  1.0
  H  H46  1  0.437400  0.379900  0.086300  1.0
  H  H47  1  0.168700  0.381100  0.304300  1.0
  H  H48  1  0.831300  0.618900  0.804300  1.0
  H  H49  1  0.831300  0.618900  0.695700  1.0
  H  H50  1  0.168700  0.381100  0.195700  1.0
  H  H51  1  0.205500  0.340200  0.372300  1.0
  H  H52  1  0.794500  0.659800  0.872300  1.0
  H  H53  1  0.794500  0.659800  0.627700  1.0
  H  H54  1  0.205500  0.340200  0.127700  1.0
  H  H55  1  0.342300  0.242100  0.368400  1.0
  H  H56  1  0.657700  0.757900  0.868400  1.0
  H  H57  1  0.657700  0.757900  0.631600  1.0
  H  H58  1  0.342300  0.242100  0.131600  1.0
  H  H59  1  0.606500  0.712600  0.341700  1.0
  H  H60  1  0.393500  0.287400  0.841700  1.0
  H  H61  1  0.393500  0.287400  0.658300  1.0
  H  H62  1  0.606500  0.712600  0.158300  1.0
  H  H63  1  0.722500  0.671100  0.319000  1.0
  H  H64  1  0.277500  0.328900  0.819000  1.0
  H  H65  1  0.277500  0.328900  0.681000  1.0
  H  H66  1  0.722500  0.671100  0.181000  1.0
  H  H67  1  0.675700  0.379400  0.433600  1.0
  H  H68  1  0.324300  0.620600  0.933600  1.0
  H  H69  1  0.324300  0.620600  0.566400  1.0
  H  H70  1  0.675700  0.379400  0.066400  1.0
  H  H71  1  0.584100  0.381200  0.498000  1.0
  H  H72  1  0.415900  0.618800  0.998000  1.0
  H  H73  1  0.415900  0.618800  0.502000  1.0
  H  H74  1  0.584100  0.381200  0.002000  1.0
  H  H75  1  0.460300  0.170900  0.415100  1.0
  H  H76  1  0.539700  0.829100  0.915100  1.0
  H  H77  1  0.539700  0.829100  0.584900  1.0
  H  H78  1  0.460300  0.170900  0.084900  1.0
  H  H79  1  0.590100  0.212300  0.379300  1.0
  H  H80  1  0.409900  0.787700  0.879300  1.0
  H  H81  1  0.409900  0.787700  0.620700  1.0
  H  H82  1  0.590100  0.212300  0.120700  1.0
  H  H83  1  0.744400  0.713800  0.492900  1.0
  H  H84  1  0.255600  0.286200  0.992900  1.0
  H  H85  1  0.255600  0.286200  0.507100  1.0
  H  H86  1  0.744400  0.713800  0.007100  1.0
  H  H87  1  0.882700  0.814600  0.547400  1.0
  H  H88  1  0.117300  0.185400  0.047400  1.0
  H  H89  1  0.117300  0.185400  0.452600  1.0
  H  H90  1  0.882700  0.814600  0.952600  1.0
  H  H91  1  0.993600  0.920400  0.477700  1.0
  H  H92  1  0.006400  0.079600  0.977700  1.0
  H  H93  1  0.006400  0.079600  0.522300  1.0
  H  H94  1  0.993600  0.920400  0.022300  1.0
  H  H95  1  0.971000  0.912300  0.359900  1.0
  H  H96  1  0.029000  0.087700  0.859900  1.0
  H  H97  1  0.029000  0.087700  0.640100  1.0
  H  H98  1  0.971000  0.912300  0.140100  1.0
  H  H99  1  0.817900  0.536100  0.529800  1.0
  H  H100  1  0.182100  0.463900  0.029800  1.0
  H  H101  1  0.182100  0.463900  0.470200  1.0
  H  H102  1  0.817900  0.536100  0.970200  1.0
  H  H103  1  0.995000  0.541900  0.604800  1.0
  H  H104  1  0.005000  0.458100  0.104800  1.0
  H  H105  1  0.005000  0.458100  0.395200  1.0
  H  H106  1  0.995000  0.541900  0.895200  1.0
  H  H107  1  0.046000  0.421700  0.645400  1.0
  H  H108  1  0.954000  0.578300  0.145400  1.0
  H  H109  1  0.954000  0.578300  0.354600  1.0
  H  H110  1  0.046000  0.421700  0.854600  1.0
  H  H111  1  0.937800  0.305000  0.599200  1.0
  H  H112  1  0.062200  0.695000  0.099200  1.0
  H  H113  1  0.062200  0.695000  0.400800  1.0
  H  H114  1  0.937800  0.305000  0.900800  1.0
  H  H115  1  0.521500  0.008300  0.355600  1.0
  H  H116  1  0.478500  0.991700  0.855600  1.0
  H  H117  1  0.478500  0.991700  0.644400  1.0
  H  H118  1  0.521500  0.008300  0.144400  1.0
  H  H119  1  0.621900  0.914900  0.415700  1.0
  H  H120  1  0.378100  0.085100  0.915700  1.0
  H  H121  1  0.378100  0.085100  0.584300  1.0
  H  H122  1  0.621900  0.914900  0.084300  1.0
  H  H123  1  0.731800  0.952700  0.516200  1.0
  H  H124  1  0.268200  0.047300  0.016200  1.0
  H  H125  1  0.268200  0.047300  0.483800  1.0
  H  H126  1  0.731800  0.952700  0.983800  1.0
  H  H127  1  0.769900  0.087300  0.545000  1.0
  H  H128  1  0.230100  0.912700  0.045000  1.0
  H  H129  1  0.230100  0.912700  0.455000  1.0
  H  H130  1  0.769900  0.087300  0.955000  1.0
  H  H131  1  0.600100  0.346600  0.290500  1.0
  H  H132  1  0.399900  0.653400  0.790500  1.0
  H  H133  1  0.399900  0.653400  0.709500  1.0
  H  H134  1  0.600100  0.346600  0.209500  1.0
  H  H135  1  0.930000  0.434200  0.290500  1.0
  H  H136  1  0.070000  0.565800  0.790500  1.0
  H  H137  1  0.070000  0.565800  0.709500  1.0
  H  H138  1  0.930000  0.434200  0.209500  1.0
  Pd  Pd139  1  0.835900  0.810220  0.250000  1
  Pd  Pd140  1  0.164100  0.189780  0.750000  1
  Pd  Pd141  1  0.737070  0.240570  0.500840  1.0
  Pd  Pd142  1  0.262930  0.759430  0.000840  1.0
  Pd  Pd143  1  0.262930  0.759430  0.499160  1.0
  Pd  Pd144  1  0.737070  0.240570  0.999160  1.0
  C  C145  1  0.270300  0.525200  0.250000  1
  C  C146  1  0.729700  0.474800  0.750000  1
  C  C147  1  0.714700  0.488600  0.250000  1
  C  C148  1  0.285300  0.511400  0.750000  1
  C  C149  1  0.653300  0.347000  0.250000  1
  C  C150  1  0.346700  0.653000  0.750000  1
  C  C151  1  0.887700  0.409100  0.250000  1
  C  C152  1  0.112300  0.590900  0.750000  1
  C  C153  1  0.932000  0.060000  0.328900  1
  C  C154  1  0.068000  0.940000  0.828900  1
  C  C155  1  0.068000  0.940000  0.671100  1
  C  C156  1  0.932000  0.060000  0.171100  1
  C  C157  1  0.007000  0.176000  0.250000  1
  C  C158  1  0.993000  0.824000  0.750000  1
  C  C159  1  0.783000  0.106700  0.250000  1
  C  C160  1  0.217000  0.893300  0.750000  1
  C  C161  1  0.351100  0.511900  0.313400  1.0
  C  C162  1  0.648900  0.488100  0.813400  1.0
  C  C163  1  0.648900  0.488100  0.686600  1.0
  C  C164  1  0.351100  0.511900  0.186600  1.0
  C  C165  1  0.446600  0.575400  0.334300  1.0
  C  C166  1  0.553400  0.424600  0.834300  1.0
  C  C167  1  0.553400  0.424600  0.665700  1.0
  C  C168  1  0.446600  0.575400  0.165700  1.0
  C  C169  1  0.542000  0.566800  0.382400  1.0
  C  C170  1  0.458000  0.433200  0.882400  1.0
  C  C171  1  0.458000  0.433200  0.617600  1.0
  C  C172  1  0.542000  0.566800  0.117600  1.0
  C  C173  1  0.541800  0.491800  0.410600  1.0
  C  C174  1  0.458200  0.508200  0.910600  1.0
  C  C175  1  0.458200  0.508200  0.589400  1.0
  C  C176  1  0.541800  0.491800  0.089400  1.0
  C  C177  1  0.441100  0.429300  0.392700  1.0
  C  C178  1  0.558900  0.570700  0.892700  1.0
  C  C179  1  0.558900  0.570700  0.607300  1.0
  C  C180  1  0.441100  0.429300  0.107300  1.0
  C  C181  1  0.346300  0.438100  0.344700  1.0
  C  C182  1  0.653700  0.561900  0.844700  1.0
  C  C183  1  0.653700  0.561900  0.655300  1.0
  C  C184  1  0.346300  0.438100  0.155300  1.0
  C  C185  1  0.239900  0.364400  0.329100  1.0
  C  C186  1  0.760100  0.635600  0.829100  1.0
  C  C187  1  0.760100  0.635600  0.670900  1.0
  C  C188  1  0.239900  0.364400  0.170900  1.0
  C  C189  1  0.294100  0.301900  0.285400  1.0
  C  C190  1  0.705900  0.698100  0.785400  1.0
  C  C191  1  0.705900  0.698100  0.714600  1.0
  C  C192  1  0.294100  0.301900  0.214600  1.0
  C  C193  1  0.348800  0.244600  0.320400  1.0
  C  C194  1  0.651200  0.755400  0.820400  1.0
  C  C195  1  0.651200  0.755400  0.679600  1.0
  C  C196  1  0.348800  0.244600  0.179600  1.0
  C  C197  1  0.411800  0.191800  0.286900  1.0
  C  C198  1  0.588200  0.808200  0.786900  1.0
  C  C199  1  0.588200  0.808200  0.713100  1.0
  C  C200  1  0.411800  0.191800  0.213100  1.0
  C  C201  1  0.680200  0.690700  0.358300  1.0
  C  C202  1  0.319800  0.309300  0.858300  1.0
  C  C203  1  0.319800  0.309300  0.641700  1.0
  C  C204  1  0.680200  0.690700  0.141700  1.0
  C  C205  1  0.661300  0.409500  0.474500  1.0
  C  C206  1  0.338700  0.590500  0.974500  1.0
  C  C207  1  0.338700  0.590500  0.525500  1.0
  C  C208  1  0.661300  0.409500  0.025500  1.0
  C  C209  1  0.530000  0.162100  0.384200  1.0
  C  C210  1  0.470000  0.837900  0.884200  1.0
  C  C211  1  0.470000  0.837900  0.615800  1.0
  C  C212  1  0.530000  0.162100  0.115800  1.0
  C  C213  1  0.775000  0.754300  0.395500  1.0
  C  C214  1  0.225000  0.245700  0.895500  1.0
  C  C215  1  0.225000  0.245700  0.604500  1.0
  C  C216  1  0.775000  0.754300  0.104500  1.0
  C  C217  1  0.791000  0.755400  0.466900  1.0
  C  C218  1  0.209000  0.244600  0.966900  1.0
  C  C219  1  0.209000  0.244600  0.533100  1.0
  C  C220  1  0.791000  0.755400  0.033100  1.0
  C  C221  1  0.871800  0.814700  0.499700  1.0
  C  C222  1  0.128200  0.185300  0.999700  1.0
  C  C223  1  0.128200  0.185300  0.500300  1.0
  C  C224  1  0.871800  0.814700  0.000300  1.0
  C  C225  1  0.939200  0.876800  0.457800  1.0
  C  C226  1  0.060800  0.123200  0.957800  1.0
  C  C227  1  0.060800  0.123200  0.542200  1.0
  C  C228  1  0.939200  0.876800  0.042200  1.0
  C  C229  1  0.923500  0.872200  0.387100  1.0
  C  C230  1  0.076500  0.127800  0.887100  1.0
  C  C231  1  0.076500  0.127800  0.612900  1.0
  C  C232  1  0.923500  0.872200  0.112900  1.0
  C  C233  1  0.777000  0.417200  0.521500  1.0
  C  C234  1  0.223000  0.582800  0.021500  1.0
  C  C235  1  0.223000  0.582800  0.478500  1.0
  C  C236  1  0.777000  0.417200  0.978500  1.0
  C  C237  1  0.843000  0.489300  0.544500  1.0
  C  C238  1  0.157000  0.510700  0.044500  1.0
  C  C239  1  0.157000  0.510700  0.455500  1.0
  C  C240  1  0.843000  0.489300  0.955500  1.0
  C  C241  1  0.947900  0.493000  0.590100  1.0
  C  C242  1  0.052100  0.507000  0.090100  1.0
  C  C243  1  0.052100  0.507000  0.409900  1.0
  C  C244  1  0.947900  0.493000  0.909900  1.0
  C  C245  1  0.980400  0.421900  0.612900  1.0
  C  C246  1  0.019600  0.578100  0.112900  1.0
  C  C247  1  0.019600  0.578100  0.387100  1.0
  C  C248  1  0.980400  0.421900  0.887100  1.0
  C  C249  1  0.913200  0.352500  0.586100  1.0
  C  C250  1  0.086800  0.647500  0.086100  1.0
  C  C251  1  0.086800  0.647500  0.413900  1.0
  C  C252  1  0.913200  0.352500  0.913900  1.0
  C  C253  1  0.600000  0.101500  0.416200  1.0
  C  C254  1  0.400000  0.898500  0.916200  1.0
  C  C255  1  0.400000  0.898500  0.583800  1.0
  C  C256  1  0.600000  0.101500  0.083800  1.0
  C  C257  1  0.574400  0.023500  0.393800  1.0
  C  C258  1  0.425600  0.976500  0.893800  1.0
  C  C259  1  0.425600  0.976500  0.606200  1.0
  C  C260  1  0.574400  0.023500  0.106200  1.0
  C  C261  1  0.631800  0.967200  0.431200  1.0
  C  C262  1  0.368200  0.032800  0.931200  1.0
  C  C263  1  0.368200  0.032800  0.568800  1.0
  C  C264  1  0.631800  0.967200  0.068800  1.0
  C  C265  1  0.699900  0.989400  0.488700  1.0
  C  C266  1  0.300100  0.010600  0.988700  1.0
  C  C267  1  0.300100  0.010600  0.511300  1.0
  C  C268  1  0.699900  0.989400  0.011300  1.0
  C  C269  1  0.721100  0.070600  0.505700  1.0
  C  C270  1  0.278900  0.929400  0.005700  1.0
  C  C271  1  0.278900  0.929400  0.494300  1.0
  C  C272  1  0.721100  0.070600  0.994300  1.0
  N  N273  1  0.753000  0.417400  0.250000  1
  N  N274  1  0.247000  0.582600  0.750000  1
  N  N275  1  0.914600  0.107700  0.280200  1
  N  N276  1  0.085400  0.892300  0.780200  1
  N  N277  1  0.085400  0.892300  0.719800  1
  N  N278  1  0.914600  0.107700  0.219800  1
  N  N279  1  0.841700  0.811800  0.355700  1.0
  N  N280  1  0.158300  0.188200  0.855700  1.0
  N  N281  1  0.158300  0.188200  0.644300  1.0
  N  N282  1  0.841700  0.811800  0.144300  1.0
  N  N283  1  0.812800  0.348900  0.541300  1.0
  N  N284  1  0.187200  0.651100  0.041300  1.0
  N  N285  1  0.187200  0.651100  0.458700  1.0
  N  N286  1  0.812800  0.348900  0.958700  1.0
  N  N287  1  0.675300  0.125500  0.468500  1.0
  N  N288  1  0.324700  0.874500  0.968500  1.0
  N  N289  1  0.324700  0.874500  0.531500  1.0
  N  N290  1  0.675300  0.125500  0.031500  1.0
  Cl  Cl291  1  0.007700  0.743600  0.250000  1
  Cl  Cl292  1  0.992300  0.256400  0.750000  1
  Cl  Cl293  1  0.663900  0.875700  0.250000  1
  Cl  Cl294  1  0.336100  0.124300  0.750000  1
  Cl  Cl295  1  0.883800  0.264940  0.410710  1.0
  Cl  Cl296  1  0.116200  0.735060  0.910710  1.0
  Cl  Cl297  1  0.116200  0.735060  0.589290  1.0
  Cl  Cl298  1  0.883800  0.264940  0.089290  1.0
  Cl  Cl299  1  0.583200  0.222500  0.585600  1.0
  Cl  Cl300  1  0.416800  0.777500  0.085600  1.0
  Cl  Cl301  1  0.416800  0.777500  0.414400  1.0
  Cl  Cl302  1  0.583200  0.222500  0.914400  1.0
  O  O303  1  0.783900  0.553400  0.250000  1
  O  O304  1  0.216100  0.446600  0.750000  1
  O  O305  1  0.022000  0.057800  0.370000  1
  O  O306  1  0.978000  0.942200  0.870000  1
  O  O307  1  0.978000  0.942200  0.630000  1
  O  O308  1  0.022000  0.057800  0.130000  1
  O  O309  1  0.637200  0.627700  0.405500  1.0
  O  O310  1  0.362800  0.372300  0.905500  1.0
  O  O311  1  0.362800  0.372300  0.594500  1.0
  O  O312  1  0.637200  0.627700  0.094500  1.0
  O  O313  1  0.643000  0.486900  0.455500  1.0
  O  O314  1  0.357000  0.513100  0.955500  1.0
  O  O315  1  0.357000  0.513100  0.544500  1.0
  O  O316  1  0.643000  0.486900  0.044500  1.0
  O  O317  1  0.476000  0.138800  0.319800  1.0
  O  O318  1  0.524000  0.861200  0.819800  1.0
  O  O319  1  0.524000  0.861200  0.680200  1.0
  O  O320  1  0.476000  0.138800  0.180200  1.0
