# generated using pymatgen
data_H69Pd3Au3C65(N7O2)3
_symmetry_space_group_name_H-M   'P 1'
_cell_length_a   14.17340000
_cell_length_b   19.42700000
_cell_length_c   32.49900000
_cell_angle_alpha   90.00000000
_cell_angle_beta   90.00000000
_cell_angle_gamma   90.00000000
_symmetry_Int_Tables_number   1
_chemical_formula_structural   H69Pd3Au3C65(N7O2)3
_chemical_formula_sum   'H276 Pd12 Au12 C260 N84 O24'
_cell_volume   8948.49051186
_cell_formula_units_Z   4
loop_
 _symmetry_equiv_pos_site_id
 _symmetry_equiv_pos_as_xyz
  1  'x, y, z'
loop_
 _atom_site_type_symbol
 _atom_site_label
 _atom_site_symmetry_multiplicity
 _atom_site_fract_x
 _atom_site_fract_y
 _atom_site_fract_z
 _atom_site_occupancy
  H  H1  1  0.220000  0.750000  0.182100  1
  H  H2  1  0.280000  0.250000  0.682100  1
  H  H3  1  0.780000  0.250000  0.817900  1
  H  H4  1  0.720000  0.750000  0.317900  1
  H  H5  1  0.001200  0.714700  0.002900  1
  H  H6  1  0.498800  0.285300  0.502900  1
  H  H7  1  0.998800  0.214700  0.997100  1
  H  H8  1  0.501200  0.785300  0.497100  1
  H  H9  1  0.998800  0.285300  0.997100  1
  H  H10  1  0.501200  0.714700  0.497100  1
  H  H11  1  0.001200  0.785300  0.002900  1
  H  H12  1  0.498800  0.214700  0.502900  1
  H  H13  1  0.992000  0.795300  0.012400  1
  H  H14  1  0.508000  0.204700  0.512400  1
  H  H15  1  0.008000  0.295300  0.987600  1
  H  H16  1  0.492000  0.704700  0.487600  1
  H  H17  1  0.008000  0.204700  0.987600  1
  H  H18  1  0.492000  0.795300  0.487600  1
  H  H19  1  0.992000  0.704700  0.012400  1
  H  H20  1  0.508000  0.295300  0.512400  1
  H  H21  1  0.959500  0.740000  0.046100  1
  H  H22  1  0.540500  0.260000  0.546100  1
  H  H23  1  0.040500  0.240000  0.953900  1
  H  H24  1  0.459500  0.760000  0.453900  1
  H  H25  1  0.040500  0.260000  0.953900  1
  H  H26  1  0.459500  0.740000  0.453900  1
  H  H27  1  0.959500  0.760000  0.046100  1
  H  H28  1  0.540500  0.240000  0.546100  1
  H  H29  1  0.433200  0.689400  0.177700  1.0
  H  H30  1  0.066800  0.310600  0.677700  1.0
  H  H31  1  0.566800  0.189400  0.822300  1.0
  H  H32  1  0.933200  0.810600  0.322300  1.0
  H  H33  1  0.566800  0.310600  0.822300  1.0
  H  H34  1  0.933200  0.689400  0.322300  1.0
  H  H35  1  0.433200  0.810600  0.177700  1.0
  H  H36  1  0.066800  0.189400  0.677700  1.0
  H  H37  1  0.573400  0.629100  0.189500  1.0
  H  H38  1  0.926600  0.370900  0.689500  1.0
  H  H39  1  0.426600  0.129100  0.810500  1.0
  H  H40  1  0.073400  0.870900  0.310500  1.0
  H  H41  1  0.426600  0.370900  0.810500  1.0
  H  H42  1  0.073400  0.629100  0.310500  1.0
  H  H43  1  0.573400  0.870900  0.189500  1.0
  H  H44  1  0.926600  0.129100  0.689500  1.0
  H  H45  1  0.695800  0.576900  0.197400  1.0
  H  H46  1  0.804200  0.423100  0.697400  1.0
  H  H47  1  0.304200  0.076900  0.802600  1.0
  H  H48  1  0.195800  0.923100  0.302600  1.0
  H  H49  1  0.304200  0.423100  0.802600  1.0
  H  H50  1  0.195800  0.576900  0.302600  1.0
  H  H51  1  0.695800  0.923100  0.197400  1.0
  H  H52  1  0.804200  0.076900  0.697400  1.0
  H  H53  1  0.835100  0.520300  0.211400  1.0
  H  H54  1  0.664900  0.479700  0.711400  1.0
  H  H55  1  0.164900  0.020300  0.788600  1.0
  H  H56  1  0.335100  0.979700  0.288600  1.0
  H  H57  1  0.164900  0.479700  0.788600  1.0
  H  H58  1  0.335100  0.520300  0.288600  1.0
  H  H59  1  0.835100  0.979700  0.211400  1.0
  H  H60  1  0.664900  0.020300  0.711400  1.0
  H  H61  1  0.969400  0.580700  0.227800  1.0
  H  H62  1  0.530600  0.419300  0.727800  1.0
  H  H63  1  0.030600  0.080700  0.772200  1.0
  H  H64  1  0.469400  0.919300  0.272200  1.0
  H  H65  1  0.030600  0.419300  0.772200  1.0
  H  H66  1  0.469400  0.580700  0.272200  1.0
  H  H67  1  0.969400  0.919300  0.227800  1.0
  H  H68  1  0.530600  0.080700  0.727800  1.0
  H  H69  1  0.967600  0.699400  0.229600  1.0
  H  H70  1  0.532400  0.300600  0.729600  1.0
  H  H71  1  0.032400  0.199400  0.770400  1.0
  H  H72  1  0.467600  0.800600  0.270400  1.0
  H  H73  1  0.032400  0.300600  0.770400  1.0
  H  H74  1  0.467600  0.699400  0.270400  1.0
  H  H75  1  0.967600  0.800600  0.229600  1.0
  H  H76  1  0.532400  0.199400  0.729600  1.0
  H  H77  1  0.648300  0.492600  0.098000  1.0
  H  H78  1  0.851700  0.507400  0.598000  1.0
  H  H79  1  0.351700  0.992600  0.902000  1.0
  H  H80  1  0.148300  0.007400  0.402000  1.0
  H  H81  1  0.351700  0.507400  0.902000  1.0
  H  H82  1  0.148300  0.492600  0.402000  1.0
  H  H83  1  0.648300  0.007400  0.098000  1.0
  H  H84  1  0.851700  0.992600  0.598000  1.0
  H  H85  1  0.760900  0.427300  0.145200  1.0
  H  H86  1  0.739100  0.572700  0.645200  1.0
  H  H87  1  0.239100  0.927300  0.854800  1.0
  H  H88  1  0.260900  0.072700  0.354800  1.0
  H  H89  1  0.239100  0.572700  0.854800  1.0
  H  H90  1  0.260900  0.427300  0.354800  1.0
  H  H91  1  0.760900  0.072700  0.145200  1.0
  H  H92  1  0.739100  0.927300  0.645200  1.0
  H  H93  1  0.868100  0.337800  0.154000  1.0
  H  H94  1  0.631900  0.662200  0.654000  1.0
  H  H95  1  0.131900  0.837800  0.846000  1.0
  H  H96  1  0.368100  0.162200  0.346000  1.0
  H  H97  1  0.131900  0.662200  0.846000  1.0
  H  H98  1  0.368100  0.337800  0.346000  1.0
  H  H99  1  0.868100  0.162200  0.154000  1.0
  H  H100  1  0.631900  0.837800  0.654000  1.0
  H  H101  1  0.017400  0.346400  0.124700  1.0
  H  H102  1  0.482600  0.653600  0.624700  1.0
  H  H103  1  0.982600  0.846400  0.875300  1.0
  H  H104  1  0.517400  0.153600  0.375300  1.0
  H  H105  1  0.982600  0.653600  0.875300  1.0
  H  H106  1  0.517400  0.346400  0.375300  1.0
  H  H107  1  0.017400  0.153600  0.124700  1.0
  H  H108  1  0.482600  0.846400  0.624700  1.0
  H  H109  1  0.957300  0.528800  0.078900  1.0
  H  H110  1  0.542700  0.471200  0.578900  1.0
  H  H111  1  0.042700  0.028800  0.921100  1.0
  H  H112  1  0.457300  0.971200  0.421100  1.0
  H  H113  1  0.042700  0.471200  0.921100  1.0
  H  H114  1  0.457300  0.528800  0.421100  1.0
  H  H115  1  0.957300  0.971200  0.078900  1.0
  H  H116  1  0.542700  0.028800  0.578900  1.0
  H  H117  1  0.499600  0.549900  0.130900  1.0
  H  H118  1  0.000400  0.450100  0.630900  1.0
  H  H119  1  0.500400  0.049900  0.869100  1.0
  H  H120  1  0.999600  0.950100  0.369100  1.0
  H  H121  1  0.500400  0.450100  0.869100  1.0
  H  H122  1  0.999600  0.549900  0.369100  1.0
  H  H123  1  0.499600  0.950100  0.130900  1.0
  H  H124  1  0.000400  0.049900  0.630900  1.0
  H  H125  1  0.340700  0.571500  0.120000  1.0
  H  H126  1  0.159300  0.428500  0.620000  1.0
  H  H127  1  0.659300  0.071500  0.880000  1.0
  H  H128  1  0.840700  0.928500  0.380000  1.0
  H  H129  1  0.659300  0.428500  0.880000  1.0
  H  H130  1  0.840700  0.571500  0.380000  1.0
  H  H131  1  0.340700  0.928500  0.120000  1.0
  H  H132  1  0.159300  0.071500  0.620000  1.0
  H  H133  1  0.294200  0.656900  0.073800  1.0
  H  H134  1  0.205800  0.343100  0.573800  1.0
  H  H135  1  0.705800  0.156900  0.926200  1.0
  H  H136  1  0.794200  0.843100  0.426200  1.0
  H  H137  1  0.705800  0.343100  0.926200  1.0
  H  H138  1  0.794200  0.656900  0.426200  1.0
  H  H139  1  0.294200  0.843100  0.073800  1.0
  H  H140  1  0.205800  0.156900  0.573800  1.0
  H  H141  1  0.561000  0.686400  0.041800  1.0
  H  H142  1  0.939000  0.313600  0.541800  1.0
  H  H143  1  0.439000  0.186400  0.958200  1.0
  H  H144  1  0.061000  0.813600  0.458200  1.0
  H  H145  1  0.439000  0.313600  0.958200  1.0
  H  H146  1  0.061000  0.686400  0.458200  1.0
  H  H147  1  0.561000  0.813600  0.041800  1.0
  H  H148  1  0.939000  0.186400  0.541800  1.0
  H  H149  1  0.185900  0.623200  0.217200  1.0
  H  H150  1  0.314100  0.376800  0.717200  1.0
  H  H151  1  0.814100  0.123200  0.782800  1.0
  H  H152  1  0.685900  0.876800  0.282800  1.0
  H  H153  1  0.814100  0.376800  0.782800  1.0
  H  H154  1  0.685900  0.623200  0.282800  1.0
  H  H155  1  0.185900  0.876800  0.217200  1.0
  H  H156  1  0.314100  0.123200  0.717200  1.0
  H  H157  1  0.239600  0.510000  0.218600  1.0
  H  H158  1  0.260400  0.490000  0.718600  1.0
  H  H159  1  0.760400  0.010000  0.781400  1.0
  H  H160  1  0.739600  0.990000  0.281400  1.0
  H  H161  1  0.760400  0.490000  0.781400  1.0
  H  H162  1  0.739600  0.510000  0.281400  1.0
  H  H163  1  0.239600  0.990000  0.218600  1.0
  H  H164  1  0.260400  0.010000  0.718600  1.0
  H  H165  1  0.213000  0.439300  0.162500  1.0
  H  H166  1  0.287000  0.560700  0.662500  1.0
  H  H167  1  0.787000  0.939300  0.837500  1.0
  H  H168  1  0.713000  0.060700  0.337500  1.0
  H  H169  1  0.787000  0.560700  0.837500  1.0
  H  H170  1  0.713000  0.439300  0.337500  1.0
  H  H171  1  0.213000  0.060700  0.162500  1.0
  H  H172  1  0.287000  0.939300  0.662500  1.0
  H  H173  1  0.102200  0.593600  0.100300  1.0
  H  H174  1  0.397800  0.406400  0.600300  1.0
  H  H175  1  0.897800  0.093600  0.899700  1.0
  H  H176  1  0.602200  0.906400  0.399700  1.0
  H  H177  1  0.897800  0.406400  0.899700  1.0
  H  H178  1  0.602200  0.593600  0.399700  1.0
  H  H179  1  0.102200  0.906400  0.100300  1.0
  H  H180  1  0.397800  0.093600  0.600300  1.0
  H  H181  1  0.106200  0.335300  0.040500  1.0
  H  H182  1  0.393800  0.664700  0.540500  1.0
  H  H183  1  0.893800  0.835300  0.959500  1.0
  H  H184  1  0.606200  0.164700  0.459500  1.0
  H  H185  1  0.893800  0.664700  0.959500  1.0
  H  H186  1  0.606200  0.335300  0.459500  1.0
  H  H187  1  0.106200  0.164700  0.040500  1.0
  H  H188  1  0.393800  0.835300  0.540500  1.0
  H  H189  1  0.046200  0.394200  0.017800  1.0
  H  H190  1  0.453800  0.605800  0.517800  1.0
  H  H191  1  0.953800  0.894200  0.982200  1.0
  H  H192  1  0.546200  0.105800  0.482200  1.0
  H  H193  1  0.953800  0.605800  0.982200  1.0
  H  H194  1  0.546200  0.394200  0.482200  1.0
  H  H195  1  0.046200  0.105800  0.017800  1.0
  H  H196  1  0.453800  0.894200  0.517800  1.0
  H  H197  1  0.170100  0.431400  0.981700  1.0
  H  H198  1  0.329900  0.568600  0.481700  1.0
  H  H199  1  0.829900  0.931400  0.018300  1.0
  H  H200  1  0.670100  0.068600  0.518300  1.0
  H  H201  1  0.829900  0.568600  0.018300  1.0
  H  H202  1  0.670100  0.431400  0.518300  1.0
  H  H203  1  0.170100  0.068600  0.981700  1.0
  H  H204  1  0.329900  0.931400  0.481700  1.0
  H  H205  1  0.188800  0.350000  0.982700  1.0
  H  H206  1  0.311200  0.650000  0.482700  1.0
  H  H207  1  0.811200  0.850000  0.017300  1.0
  H  H208  1  0.688800  0.150000  0.517300  1.0
  H  H209  1  0.811200  0.650000  0.017300  1.0
  H  H210  1  0.688800  0.350000  0.517300  1.0
  H  H211  1  0.188800  0.150000  0.982700  1.0
  H  H212  1  0.311200  0.850000  0.482700  1.0
  H  H213  1  0.297200  0.360200  0.034500  1.0
  H  H214  1  0.202800  0.639800  0.534500  1.0
  H  H215  1  0.702800  0.860200  0.965500  1.0
  H  H216  1  0.797200  0.139800  0.465500  1.0
  H  H217  1  0.702800  0.639800  0.965500  1.0
  H  H218  1  0.797200  0.360200  0.465500  1.0
  H  H219  1  0.297200  0.139800  0.034500  1.0
  H  H220  1  0.202800  0.860200  0.534500  1.0
  H  H221  1  0.323900  0.419200  0.002000  1.0
  H  H222  1  0.176100  0.580800  0.502000  1.0
  H  H223  1  0.676100  0.919200  0.998000  1.0
  H  H224  1  0.823900  0.080800  0.498000  1.0
  H  H225  1  0.676100  0.580800  0.998000  1.0
  H  H226  1  0.823900  0.419200  0.498000  1.0
  H  H227  1  0.323900  0.080800  0.002000  1.0
  H  H228  1  0.176100  0.919200  0.502000  1.0
  H  H229  1  0.272200  0.500700  0.040900  1.0
  H  H230  1  0.227800  0.499300  0.540900  1.0
  H  H231  1  0.727800  0.000700  0.959100  1.0
  H  H232  1  0.772200  0.999300  0.459100  1.0
  H  H233  1  0.727800  0.499300  0.959100  1.0
  H  H234  1  0.772200  0.500700  0.459100  1.0
  H  H235  1  0.272200  0.999300  0.040900  1.0
  H  H236  1  0.227800  0.000700  0.540900  1.0
  H  H237  1  0.311200  0.447800  0.074700  1.0
  H  H238  1  0.188800  0.552200  0.574700  1.0
  H  H239  1  0.688800  0.947800  0.925300  1.0
  H  H240  1  0.811200  0.052200  0.425300  1.0
  H  H241  1  0.688800  0.552200  0.925300  1.0
  H  H242  1  0.811200  0.447800  0.425300  1.0
  H  H243  1  0.311200  0.052200  0.074700  1.0
  H  H244  1  0.188800  0.947800  0.574700  1.0
  H  H245  1  0.385800  0.649700  0.962300  1.0
  H  H246  1  0.114200  0.350300  0.462300  1.0
  H  H247  1  0.614200  0.149700  0.037700  1.0
  H  H248  1  0.885800  0.850300  0.537700  1.0
  H  H249  1  0.614200  0.350300  0.037700  1.0
  H  H250  1  0.885800  0.649700  0.537700  1.0
  H  H251  1  0.385800  0.850300  0.962300  1.0
  H  H252  1  0.114200  0.149700  0.462300  1.0
  H  H253  1  0.282700  0.651600  0.982800  1.0
  H  H254  1  0.217300  0.348400  0.482800  1.0
  H  H255  1  0.717300  0.151600  0.017200  1.0
  H  H256  1  0.782700  0.848400  0.517200  1.0
  H  H257  1  0.717300  0.348400  0.017200  1.0
  H  H258  1  0.782700  0.651600  0.517200  1.0
  H  H259  1  0.282700  0.848400  0.982800  1.0
  H  H260  1  0.217300  0.151600  0.482800  1.0
  H  H261  1  0.334200  0.702300  0.910900  1.0
  H  H262  1  0.165800  0.297700  0.410900  1.0
  H  H263  1  0.665800  0.202300  0.089100  1.0
  H  H264  1  0.834200  0.797700  0.589100  1.0
  H  H265  1  0.665800  0.297700  0.089100  1.0
  H  H266  1  0.834200  0.702300  0.589100  1.0
  H  H267  1  0.334200  0.797700  0.910900  1.0
  H  H268  1  0.165800  0.202300  0.410900  1.0
  H  H269  1  0.231500  0.702300  0.930700  1.0
  H  H270  1  0.268500  0.297700  0.430700  1.0
  H  H271  1  0.768500  0.202300  0.069300  1.0
  H  H272  1  0.731500  0.797700  0.569300  1.0
  H  H273  1  0.768500  0.297700  0.069300  1.0
  H  H274  1  0.731500  0.702300  0.569300  1.0
  H  H275  1  0.231500  0.797700  0.930700  1.0
  H  H276  1  0.268500  0.202300  0.430700  1.0
  Pd  Pd277  1  0.379010  0.750000  0.012060  1
  Pd  Pd278  1  0.120990  0.250000  0.512060  1
  Pd  Pd279  1  0.620990  0.250000  0.987940  1
  Pd  Pd280  1  0.879010  0.750000  0.487940  1
  Pd  Pd281  1  0.132330  0.447590  0.077780  1.0
  Pd  Pd282  1  0.367670  0.552410  0.577780  1.0
  Pd  Pd283  1  0.867670  0.947590  0.922220  1.0
  Pd  Pd284  1  0.632330  0.052410  0.422220  1.0
  Pd  Pd285  1  0.867670  0.552410  0.922220  1.0
  Pd  Pd286  1  0.632330  0.447590  0.422220  1.0
  Pd  Pd287  1  0.132330  0.052410  0.077780  1.0
  Pd  Pd288  1  0.367670  0.947590  0.577780  1.0
  Au  Au289  1  0.717390  0.750000  0.095760  1
  Au  Au290  1  0.782610  0.250000  0.595760  1
  Au  Au291  1  0.282610  0.250000  0.904240  1
  Au  Au292  1  0.217390  0.750000  0.404240  1
  Au  Au293  1  0.916550  0.663200  0.118200  1.0
  Au  Au294  1  0.583450  0.336800  0.618200  1.0
  Au  Au295  1  0.083450  0.163200  0.881800  1.0
  Au  Au296  1  0.416550  0.836800  0.381800  1.0
  Au  Au297  1  0.083450  0.336800  0.881800  1.0
  Au  Au298  1  0.416550  0.663200  0.381800  1.0
  Au  Au299  1  0.916550  0.836800  0.118200  1.0
  Au  Au300  1  0.583450  0.163200  0.618200  1.0
  C  C301  1  0.005500  0.750000  0.024300  1
  C  C302  1  0.494500  0.250000  0.524300  1
  C  C303  1  0.994500  0.250000  0.975700  1
  C  C304  1  0.505500  0.750000  0.475700  1
  C  C305  1  0.100500  0.750000  0.041800  1
  C  C306  1  0.399500  0.250000  0.541800  1
  C  C307  1  0.899500  0.250000  0.958200  1
  C  C308  1  0.600500  0.750000  0.458200  1
  C  C309  1  0.162500  0.750000  0.167100  1
  C  C310  1  0.337500  0.250000  0.667100  1
  C  C311  1  0.837500  0.250000  0.832900  1
  C  C312  1  0.662500  0.750000  0.332900  1
  C  C313  1  0.490100  0.713900  0.182600  1.0
  C  C314  1  0.009900  0.286100  0.682600  1.0
  C  C315  1  0.509900  0.213900  0.817400  1.0
  C  C316  1  0.990100  0.786100  0.317400  1.0
  C  C317  1  0.509900  0.286100  0.817400  1.0
  C  C318  1  0.990100  0.713900  0.317400  1.0
  C  C319  1  0.490100  0.786100  0.182600  1.0
  C  C320  1  0.009900  0.213900  0.682600  1.0
  C  C321  1  0.573600  0.678000  0.189800  1.0
  C  C322  1  0.926400  0.322000  0.689800  1.0
  C  C323  1  0.426400  0.178000  0.810200  1.0
  C  C324  1  0.073600  0.822000  0.310200  1.0
  C  C325  1  0.426400  0.322000  0.810200  1.0
  C  C326  1  0.073600  0.678000  0.310200  1.0
  C  C327  1  0.573600  0.822000  0.189800  1.0
  C  C328  1  0.926400  0.178000  0.689800  1.0
  C  C329  1  0.658600  0.713700  0.197600  1.0
  C  C330  1  0.841400  0.286300  0.697600  1.0
  C  C331  1  0.341400  0.213700  0.802400  1.0
  C  C332  1  0.158600  0.786300  0.302400  1.0
  C  C333  1  0.341400  0.286300  0.802400  1.0
  C  C334  1  0.158600  0.713700  0.302400  1.0
  C  C335  1  0.658600  0.786300  0.197600  1.0
  C  C336  1  0.841400  0.213700  0.697600  1.0
  C  C337  1  0.745400  0.675900  0.204900  1.0
  C  C338  1  0.754600  0.324100  0.704900  1.0
  C  C339  1  0.254600  0.175900  0.795100  1.0
  C  C340  1  0.245400  0.824100  0.295100  1.0
  C  C341  1  0.254600  0.324100  0.795100  1.0
  C  C342  1  0.245400  0.675900  0.295100  1.0
  C  C343  1  0.745400  0.824100  0.204900  1.0
  C  C344  1  0.754600  0.175900  0.704900  1.0
  C  C345  1  0.750600  0.602800  0.203900  1.0
  C  C346  1  0.749400  0.397200  0.703900  1.0
  C  C347  1  0.249400  0.102800  0.796100  1.0
  C  C348  1  0.250600  0.897200  0.296100  1.0
  C  C349  1  0.249400  0.397200  0.796100  1.0
  C  C350  1  0.250600  0.602800  0.296100  1.0
  C  C351  1  0.750600  0.897200  0.203900  1.0
  C  C352  1  0.749400  0.102800  0.703900  1.0
  C  C353  1  0.833300  0.569100  0.212300  1.0
  C  C354  1  0.666700  0.430900  0.712300  1.0
  C  C355  1  0.166700  0.069100  0.787700  1.0
  C  C356  1  0.333300  0.930900  0.287700  1.0
  C  C357  1  0.166700  0.430900  0.787700  1.0
  C  C358  1  0.333300  0.569100  0.287700  1.0
  C  C359  1  0.833300  0.930900  0.212300  1.0
  C  C360  1  0.666700  0.069100  0.712300  1.0
  C  C361  1  0.912600  0.604700  0.221800  1.0
  C  C362  1  0.587400  0.395300  0.721800  1.0
  C  C363  1  0.087400  0.104700  0.778200  1.0
  C  C364  1  0.412600  0.895300  0.278200  1.0
  C  C365  1  0.087400  0.395300  0.778200  1.0
  C  C366  1  0.412600  0.604700  0.278200  1.0
  C  C367  1  0.912600  0.895300  0.221800  1.0
  C  C368  1  0.587400  0.104700  0.721800  1.0
  C  C369  1  0.911400  0.675200  0.222900  1.0
  C  C370  1  0.588600  0.324800  0.722900  1.0
  C  C371  1  0.088600  0.175200  0.777100  1.0
  C  C372  1  0.411400  0.824800  0.277100  1.0
  C  C373  1  0.088600  0.324800  0.777100  1.0
  C  C374  1  0.411400  0.675200  0.277100  1.0
  C  C375  1  0.911400  0.824800  0.222900  1.0
  C  C376  1  0.588600  0.175200  0.722900  1.0
  C  C377  1  0.829900  0.712000  0.214500  1.0
  C  C378  1  0.670100  0.288000  0.714500  1.0
  C  C379  1  0.170100  0.212000  0.785500  1.0
  C  C380  1  0.329900  0.788000  0.285500  1.0
  C  C381  1  0.170100  0.288000  0.785500  1.0
  C  C382  1  0.329900  0.712000  0.285500  1.0
  C  C383  1  0.829900  0.788000  0.214500  1.0
  C  C384  1  0.670100  0.212000  0.714500  1.0
  C  C385  1  0.778900  0.543100  0.104200  1.0
  C  C386  1  0.721100  0.456900  0.604200  1.0
  C  C387  1  0.221100  0.043100  0.895800  1.0
  C  C388  1  0.278900  0.956900  0.395800  1.0
  C  C389  1  0.221100  0.456900  0.895800  1.0
  C  C390  1  0.278900  0.543100  0.395800  1.0
  C  C391  1  0.778900  0.956900  0.104200  1.0
  C  C392  1  0.721100  0.043100  0.604200  1.0
  C  C393  1  0.682400  0.534600  0.098200  1.0
  C  C394  1  0.817600  0.465400  0.598200  1.0
  C  C395  1  0.317600  0.034600  0.901800  1.0
  C  C396  1  0.182400  0.965400  0.401800  1.0
  C  C397  1  0.317600  0.465400  0.901800  1.0
  C  C398  1  0.182400  0.534600  0.401800  1.0
  C  C399  1  0.682400  0.965400  0.098200  1.0
  C  C400  1  0.817600  0.034600  0.598200  1.0
  C  C401  1  0.646900  0.599700  0.092800  1.0
  C  C402  1  0.853100  0.400300  0.592800  1.0
  C  C403  1  0.353100  0.099700  0.907200  1.0
  C  C404  1  0.146900  0.900300  0.407200  1.0
  C  C405  1  0.353100  0.400300  0.907200  1.0
  C  C406  1  0.146900  0.599700  0.407200  1.0
  C  C407  1  0.646900  0.900300  0.092800  1.0
  C  C408  1  0.853100  0.099700  0.592800  1.0
  C  C409  1  0.846500  0.488400  0.111100  1.0
  C  C410  1  0.653500  0.511600  0.611100  1.0
  C  C411  1  0.153500  0.988400  0.888900  1.0
  C  C412  1  0.346500  0.011600  0.388900  1.0
  C  C413  1  0.153500  0.511600  0.888900  1.0
  C  C414  1  0.346500  0.488400  0.388900  1.0
  C  C415  1  0.846500  0.011600  0.111100  1.0
  C  C416  1  0.653500  0.988400  0.611100  1.0
  C  C417  1  0.822100  0.430500  0.133400  1.0
  C  C418  1  0.677900  0.569500  0.633400  1.0
  C  C419  1  0.177900  0.930500  0.866600  1.0
  C  C420  1  0.322100  0.069500  0.366600  1.0
  C  C421  1  0.177900  0.569500  0.866600  1.0
  C  C422  1  0.322100  0.430500  0.366600  1.0
  C  C423  1  0.822100  0.069500  0.133400  1.0
  C  C424  1  0.677900  0.930500  0.633400  1.0
  C  C425  1  0.885100  0.377500  0.138700  1.0
  C  C426  1  0.614900  0.622500  0.638700  1.0
  C  C427  1  0.114900  0.877500  0.861300  1.0
  C  C428  1  0.385100  0.122500  0.361300  1.0
  C  C429  1  0.114900  0.622500  0.861300  1.0
  C  C430  1  0.385100  0.377500  0.361300  1.0
  C  C431  1  0.885100  0.122500  0.138700  1.0
  C  C432  1  0.614900  0.877500  0.638700  1.0
  C  C433  1  0.973800  0.383100  0.121400  1.0
  C  C434  1  0.526200  0.616900  0.621400  1.0
  C  C435  1  0.026200  0.883100  0.878600  1.0
  C  C436  1  0.473800  0.116900  0.378600  1.0
  C  C437  1  0.026200  0.616900  0.878600  1.0
  C  C438  1  0.473800  0.383100  0.378600  1.0
  C  C439  1  0.973800  0.116900  0.121400  1.0
  C  C440  1  0.526200  0.883100  0.621400  1.0
  C  C441  1  0.938300  0.489900  0.094500  1.0
  C  C442  1  0.561700  0.510100  0.594500  1.0
  C  C443  1  0.061700  0.989900  0.905500  1.0
  C  C444  1  0.438300  0.010100  0.405500  1.0
  C  C445  1  0.061700  0.510100  0.905500  1.0
  C  C446  1  0.438300  0.489900  0.405500  1.0
  C  C447  1  0.938300  0.010100  0.094500  1.0
  C  C448  1  0.561700  0.989900  0.594500  1.0
  C  C449  1  0.547100  0.616600  0.087100  1.0
  C  C450  1  0.952900  0.383400  0.587100  1.0
  C  C451  1  0.452900  0.116600  0.912900  1.0
  C  C452  1  0.047100  0.883400  0.412900  1.0
  C  C453  1  0.452900  0.383400  0.912900  1.0
  C  C454  1  0.047100  0.616600  0.412900  1.0
  C  C455  1  0.547100  0.883400  0.087100  1.0
  C  C456  1  0.952900  0.116600  0.587100  1.0
  C  C457  1  0.480400  0.582400  0.110700  1.0
  C  C458  1  0.019600  0.417600  0.610700  1.0
  C  C459  1  0.519600  0.082400  0.889300  1.0
  C  C460  1  0.980400  0.917600  0.389300  1.0
  C  C461  1  0.519600  0.417600  0.889300  1.0
  C  C462  1  0.980400  0.582400  0.389300  1.0
  C  C463  1  0.480400  0.917600  0.110700  1.0
  C  C464  1  0.019600  0.082400  0.610700  1.0
  C  C465  1  0.387000  0.596100  0.104800  1.0
  C  C466  1  0.113000  0.403900  0.604800  1.0
  C  C467  1  0.613000  0.096100  0.895200  1.0
  C  C468  1  0.887000  0.903900  0.395200  1.0
  C  C469  1  0.613000  0.403900  0.895200  1.0
  C  C470  1  0.887000  0.596100  0.395200  1.0
  C  C471  1  0.387000  0.903900  0.104800  1.0
  C  C472  1  0.113000  0.096100  0.604800  1.0
  C  C473  1  0.359200  0.645700  0.076500  1.0
  C  C474  1  0.140800  0.354300  0.576500  1.0
  C  C475  1  0.640800  0.145700  0.923500  1.0
  C  C476  1  0.859200  0.854300  0.423500  1.0
  C  C477  1  0.640800  0.354300  0.923500  1.0
  C  C478  1  0.859200  0.645700  0.423500  1.0
  C  C479  1  0.359200  0.854300  0.076500  1.0
  C  C480  1  0.140800  0.145700  0.576500  1.0
  C  C481  1  0.515600  0.663400  0.058400  1.0
  C  C482  1  0.984400  0.336600  0.558400  1.0
  C  C483  1  0.484400  0.163400  0.941600  1.0
  C  C484  1  0.015600  0.836600  0.441600  1.0
  C  C485  1  0.484400  0.336600  0.941600  1.0
  C  C486  1  0.015600  0.663400  0.441600  1.0
  C  C487  1  0.515600  0.836600  0.058400  1.0
  C  C488  1  0.984400  0.163400  0.558400  1.0
  C  C489  1  0.112800  0.693000  0.154200  1.0
  C  C490  1  0.387200  0.307000  0.654200  1.0
  C  C491  1  0.887200  0.193000  0.845800  1.0
  C  C492  1  0.612800  0.807000  0.345800  1.0
  C  C493  1  0.887200  0.307000  0.845800  1.0
  C  C494  1  0.612800  0.693000  0.345800  1.0
  C  C495  1  0.112800  0.807000  0.154200  1.0
  C  C496  1  0.387200  0.193000  0.654200  1.0
  C  C497  1  0.139800  0.621000  0.157400  1.0
  C  C498  1  0.360200  0.379000  0.657400  1.0
  C  C499  1  0.860200  0.121000  0.842600  1.0
  C  C500  1  0.639800  0.879000  0.342600  1.0
  C  C501  1  0.860200  0.379000  0.842600  1.0
  C  C502  1  0.639800  0.621000  0.342600  1.0
  C  C503  1  0.139800  0.879000  0.157400  1.0
  C  C504  1  0.360200  0.121000  0.657400  1.0
  C  C505  1  0.179700  0.594800  0.193600  1.0
  C  C506  1  0.320300  0.405200  0.693600  1.0
  C  C507  1  0.820300  0.094800  0.806400  1.0
  C  C508  1  0.679700  0.905200  0.306400  1.0
  C  C509  1  0.820300  0.405200  0.806400  1.0
  C  C510  1  0.679700  0.594800  0.306400  1.0
  C  C511  1  0.179700  0.905200  0.193600  1.0
  C  C512  1  0.320300  0.094800  0.693600  1.0
  C  C513  1  0.209600  0.527700  0.194700  1.0
  C  C514  1  0.290400  0.472300  0.694700  1.0
  C  C515  1  0.790400  0.027700  0.805300  1.0
  C  C516  1  0.709600  0.972300  0.305300  1.0
  C  C517  1  0.790400  0.472300  0.805300  1.0
  C  C518  1  0.709600  0.527700  0.305300  1.0
  C  C519  1  0.209600  0.972300  0.194700  1.0
  C  C520  1  0.290400  0.027700  0.694700  1.0
  C  C521  1  0.195800  0.486500  0.161000  1.0
  C  C522  1  0.304200  0.513500  0.661000  1.0
  C  C523  1  0.804200  0.986500  0.839000  1.0
  C  C524  1  0.695800  0.013500  0.339000  1.0
  C  C525  1  0.804200  0.513500  0.839000  1.0
  C  C526  1  0.695800  0.486500  0.339000  1.0
  C  C527  1  0.195800  0.013500  0.161000  1.0
  C  C528  1  0.304200  0.986500  0.661000  1.0
  C  C529  1  0.130400  0.576800  0.124800  1.0
  C  C530  1  0.369600  0.423200  0.624800  1.0
  C  C531  1  0.869600  0.076800  0.875200  1.0
  C  C532  1  0.630400  0.923200  0.375200  1.0
  C  C533  1  0.869600  0.423200  0.875200  1.0
  C  C534  1  0.630400  0.576800  0.375200  1.0
  C  C535  1  0.130400  0.923200  0.124800  1.0
  C  C536  1  0.369600  0.076800  0.624800  1.0
  C  C537  1  0.184200  0.391800  0.999900  1.0
  C  C538  1  0.315800  0.608200  0.499900  1.0
  C  C539  1  0.815800  0.891800  0.000100  1.0
  C  C540  1  0.684200  0.108200  0.500100  1.0
  C  C541  1  0.815800  0.608200  0.000100  1.0
  C  C542  1  0.684200  0.391800  0.500100  1.0
  C  C543  1  0.184200  0.108200  0.999900  1.0
  C  C544  1  0.315800  0.891800  0.499900  1.0
  C  C545  1  0.275300  0.403700  0.021900  1.0
  C  C546  1  0.224700  0.596300  0.521900  1.0
  C  C547  1  0.724700  0.903700  0.978100  1.0
  C  C548  1  0.775300  0.096300  0.478100  1.0
  C  C549  1  0.724700  0.596300  0.978100  1.0
  C  C550  1  0.775300  0.403700  0.478100  1.0
  C  C551  1  0.275300  0.096300  0.021900  1.0
  C  C552  1  0.224700  0.903700  0.521900  1.0
  C  C553  1  0.297300  0.717500  0.935200  1.0
  C  C554  1  0.202700  0.282500  0.435200  1.0
  C  C555  1  0.702700  0.217500  0.064800  1.0
  C  C556  1  0.797300  0.782500  0.564800  1.0
  C  C557  1  0.702700  0.282500  0.064800  1.0
  C  C558  1  0.797300  0.717500  0.564800  1.0
  C  C559  1  0.297300  0.782500  0.935200  1.0
  C  C560  1  0.202700  0.217500  0.435200  1.0
  N  N561  1  0.173700  0.750000  0.055300  1
  N  N562  1  0.326300  0.250000  0.555300  1
  N  N563  1  0.826300  0.250000  0.944700  1
  N  N564  1  0.673700  0.750000  0.444700  1
  N  N565  1  0.122900  0.599200  0.005300  1
  N  N566  1  0.377100  0.400800  0.505300  1
  N  N567  1  0.877100  0.099200  0.994700  1
  N  N568  1  0.622900  0.900800  0.494700  1
  N  N569  1  0.877100  0.400800  0.994700  1
  N  N570  1  0.622900  0.599200  0.494700  1
  N  N571  1  0.122900  0.900800  0.005300  1
  N  N572  1  0.377100  0.099200  0.505300  1
  N  N573  1  0.799700  0.611300  0.103180  1.0
  N  N574  1  0.700300  0.388700  0.603180  1.0
  N  N575  1  0.200300  0.111300  0.896820  1.0
  N  N576  1  0.299700  0.888700  0.396820  1.0
  N  N577  1  0.200300  0.388700  0.896820  1.0
  N  N578  1  0.299700  0.611300  0.396820  1.0
  N  N579  1  0.799700  0.888700  0.103180  1.0
  N  N580  1  0.700300  0.111300  0.603180  1.0
  N  N581  1  0.716500  0.646500  0.095950  1.0
  N  N582  1  0.783500  0.353500  0.595950  1.0
  N  N583  1  0.283500  0.146500  0.904050  1.0
  N  N584  1  0.216500  0.853500  0.404050  1.0
  N  N585  1  0.283500  0.353500  0.904050  1.0
  N  N586  1  0.216500  0.646500  0.404050  1.0
  N  N587  1  0.716500  0.853500  0.095950  1.0
  N  N588  1  0.783500  0.146500  0.595950  1.0
  N  N589  1  0.999700  0.438600  0.100090  1.0
  N  N590  1  0.500300  0.561400  0.600090  1.0
  N  N591  1  0.000300  0.938600  0.899910  1.0
  N  N592  1  0.499700  0.061400  0.399910  1.0
  N  N593  1  0.000300  0.561400  0.899910  1.0
  N  N594  1  0.499700  0.438600  0.399910  1.0
  N  N595  1  0.999700  0.061400  0.100090  1.0
  N  N596  1  0.500300  0.938600  0.600090  1.0
  N  N597  1  0.423600  0.678100  0.052600  1.0
  N  N598  1  0.076400  0.321900  0.552600  1.0
  N  N599  1  0.576400  0.178100  0.947400  1.0
  N  N600  1  0.923600  0.821900  0.447400  1.0
  N  N601  1  0.576400  0.321900  0.947400  1.0
  N  N602  1  0.923600  0.678100  0.447400  1.0
  N  N603  1  0.423600  0.821900  0.052600  1.0
  N  N604  1  0.076400  0.178100  0.552600  1.0
  N  N605  1  0.033500  0.715500  0.135400  1.0
  N  N606  1  0.466500  0.284500  0.635400  1.0
  N  N607  1  0.966500  0.215500  0.864600  1.0
  N  N608  1  0.533500  0.784500  0.364600  1.0
  N  N609  1  0.966500  0.284500  0.864600  1.0
  N  N610  1  0.533500  0.715500  0.364600  1.0
  N  N611  1  0.033500  0.784500  0.135400  1.0
  N  N612  1  0.466500  0.215500  0.635400  1.0
  N  N613  1  0.158800  0.510900  0.125710  1.0
  N  N614  1  0.341200  0.489100  0.625710  1.0
  N  N615  1  0.841200  0.010900  0.874290  1.0
  N  N616  1  0.658800  0.989100  0.374290  1.0
  N  N617  1  0.841200  0.489100  0.874290  1.0
  N  N618  1  0.658800  0.510900  0.374290  1.0
  N  N619  1  0.158800  0.989100  0.125710  1.0
  N  N620  1  0.341200  0.010900  0.625710  1.0
  N  N621  1  0.107900  0.383400  0.030500  1.0
  N  N622  1  0.392100  0.616600  0.530500  1.0
  N  N623  1  0.892100  0.883400  0.969500  1.0
  N  N624  1  0.607900  0.116600  0.469500  1.0
  N  N625  1  0.892100  0.616600  0.969500  1.0
  N  N626  1  0.607900  0.383400  0.469500  1.0
  N  N627  1  0.107900  0.116600  0.030500  1.0
  N  N628  1  0.392100  0.883400  0.530500  1.0
  N  N629  1  0.263200  0.454400  0.052900  1.0
  N  N630  1  0.236800  0.545600  0.552900  1.0
  N  N631  1  0.736800  0.954400  0.947100  1.0
  N  N632  1  0.763200  0.045600  0.447100  1.0
  N  N633  1  0.736800  0.545600  0.947100  1.0
  N  N634  1  0.763200  0.454400  0.447100  1.0
  N  N635  1  0.263200  0.045600  0.052900  1.0
  N  N636  1  0.236800  0.954400  0.552900  1.0
  N  N637  1  0.333200  0.680300  0.970700  1.0
  N  N638  1  0.166800  0.319700  0.470700  1.0
  N  N639  1  0.666800  0.180300  0.029300  1.0
  N  N640  1  0.833200  0.819700  0.529300  1.0
  N  N641  1  0.666800  0.319700  0.029300  1.0
  N  N642  1  0.833200  0.680300  0.529300  1.0
  N  N643  1  0.333200  0.819700  0.970700  1.0
  N  N644  1  0.166800  0.180300  0.470700  1.0
  O  O645  1  0.111200  0.630300  0.972780  1
  O  O646  1  0.388800  0.369700  0.472780  1
  O  O647  1  0.888800  0.130300  0.027220  1
  O  O648  1  0.611200  0.869700  0.527220  1
  O  O649  1  0.888800  0.369700  0.027220  1
  O  O650  1  0.611200  0.630300  0.527220  1
  O  O651  1  0.111200  0.869700  0.972780  1
  O  O652  1  0.388800  0.130300  0.472780  1
  O  O653  1  0.053700  0.579800  0.026050  1
  O  O654  1  0.446300  0.420200  0.526050  1
  O  O655  1  0.946300  0.079800  0.973950  1
  O  O656  1  0.553700  0.920200  0.473950  1
  O  O657  1  0.946300  0.420200  0.973950  1
  O  O658  1  0.553700  0.579800  0.473950  1
  O  O659  1  0.053700  0.920200  0.026050  1
  O  O660  1  0.446300  0.079800  0.526050  1
  O  O661  1  0.203900  0.586900  0.017800  1
  O  O662  1  0.296100  0.413100  0.517800  1
  O  O663  1  0.796100  0.086900  0.982200  1
  O  O664  1  0.703900  0.913100  0.482200  1
  O  O665  1  0.796100  0.413100  0.982200  1
  O  O666  1  0.703900  0.586900  0.482200  1
  O  O667  1  0.203900  0.913100  0.017800  1
  O  O668  1  0.296100  0.086900  0.517800  1
