# generated using pymatgen
data_CdH30C28(N3O5)2
_symmetry_space_group_name_H-M   'P 1'
_cell_length_a   7.61970000
_cell_length_b   9.26390000
_cell_length_c   23.38940000
_cell_angle_alpha   80.53200000
_cell_angle_beta   87.95300000
_cell_angle_gamma   69.01300000
_symmetry_Int_Tables_number   1
_chemical_formula_structural   CdH30C28(N3O5)2
_chemical_formula_sum   'Cd2 H60 C56 N12 O20'
_cell_volume   1520.00764428
_cell_formula_units_Z   2
loop_
 _symmetry_equiv_pos_site_id
 _symmetry_equiv_pos_as_xyz
  1  'x, y, z'
loop_
 _atom_site_type_symbol
 _atom_site_label
 _atom_site_symmetry_multiplicity
 _atom_site_fract_x
 _atom_site_fract_y
 _atom_site_fract_z
 _atom_site_occupancy
  Cd  Cd1  1  0.133230  0.416330  0.368594  1.0
  Cd  Cd2  1  0.866770  0.583670  0.631406  1.0
  H  H3  1  0.068000  0.251200  0.171100  1
  H  H4  1  0.932000  0.748800  0.828900  1
  H  H5  1  0.236800  0.312200  0.160500  1
  H  H6  1  0.763200  0.687800  0.839500  1
  H  H7  1  0.009900  0.304900  0.077700  1
  H  H8  1  0.990100  0.695100  0.922300  1
  H  H9  1  0.165400  0.381500  0.068000  1
  H  H10  1  0.834600  0.618500  0.932000  1
  H  H11  1  0.953000  0.621000  0.064200  1
  H  H12  1  0.047000  0.379000  0.935800  1
  H  H13  1  0.799100  0.546100  0.059000  1
  H  H14  1  0.200900  0.453900  0.941000  1
  H  H15  1  0.809400  0.675600  0.146300  1
  H  H16  1  0.190600  0.324400  0.853700  1
  H  H17  1  0.738100  0.533800  0.152700  1
  H  H18  1  0.261900  0.466200  0.847300  1
  H  H19  1  0.031500  0.695900  0.442200  1.0
  H  H20  1  0.968500  0.304100  0.557800  1.0
  H  H21  1  0.917500  0.962400  0.435300  1.0
  H  H22  1  0.082500  0.037600  0.564700  1.0
  H  H23  1  0.827100  0.117800  0.346200  1.0
  H  H24  1  0.172900  0.882200  0.653800  1.0
  H  H25  1  0.975000  0.728800  0.275500  1.0
  H  H26  1  0.025000  0.271200  0.724500  1.0
  H  H27  1  0.797600  0.141400  0.238800  1.0
  H  H28  1  0.202400  0.858600  0.761200  1.0
  H  H29  1  0.608500  0.272000  0.165800  1.0
  H  H30  1  0.391500  0.728000  0.834200  1.0
  H  H31  1  0.515000  0.400000  0.072800  1.0
  H  H32  1  0.485000  0.600000  0.927200  1.0
  H  H33  1  0.846200  0.024900  0.008800  1.0
  H  H34  1  0.153800  0.975100  0.991200  1.0
  H  H35  1  0.935500  0.894200  0.101200  1.0
  H  H36  1  0.064500  0.105800  0.898800  1.0
  H  H37  1  0.725200  0.399100  0.879800  1.0
  H  H38  1  0.274800  0.600900  0.120200  1.0
  H  H39  1  0.732800  0.301900  0.794700  1.0
  H  H40  1  0.267200  0.698100  0.205300  1.0
  H  H41  1  0.555700  0.970000  0.878700  1.0
  H  H42  1  0.444300  0.030000  0.121300  1.0
  H  H43  1  0.530200  0.076700  0.962100  1.0
  H  H44  1  0.469800  0.923300  0.037900  1.0
  H  H45  1  0.535700  0.247100  0.728900  1.0
  H  H46  1  0.464300  0.752900  0.271100  1.0
  H  H47  1  0.272300  0.149800  0.288400  1.0
  H  H48  1  0.727700  0.850200  0.711600  1.0
  H  H49  1  0.339100  0.096900  0.455300  1.0
  H  H50  1  0.660900  0.903100  0.544700  1.0
  H  H51  1  0.472600  0.831300  0.461500  1.0
  H  H52  1  0.527400  0.168700  0.538500  1.0
  H  H53  1  0.489700  0.279700  0.622100  1.0
  H  H54  1  0.510300  0.720300  0.377900  1.0
  H  H55  1  0.830000  0.445000  0.298800  1.0
  H  H56  1  0.170000  0.555000  0.701200  1.0
  H  H57  1  0.274000  0.426000  0.477500  1.0
  H  H58  1  0.726000  0.574000  0.522500  1.0
  H  H59  1  0.405000  0.385000  0.448000  1.0
  H  H60  1  0.595000  0.615000  0.552000  1.0
  H  H61  1  0.966000  0.444000  0.253900  1.0
  H  H62  1  0.034000  0.556000  0.746100  1.0
  C  C63  1  0.103100  0.339300  0.153810  1
  C  C64  1  0.896900  0.660700  0.846190  1
  C  C65  1  0.055900  0.380000  0.090140  1
  C  C66  1  0.944100  0.620000  0.909860  1
  C  C67  1  0.903700  0.542000  0.082420  1
  C  C68  1  0.096300  0.458000  0.917580  1
  C  C69  1  0.844500  0.566200  0.142570  1
  C  C70  1  0.155500  0.433800  0.857430  1
  C  C71  1  0.996400  0.757400  0.405920  1.0
  C  C72  1  0.003600  0.242600  0.594080  1.0
  C  C73  1  0.927600  0.917100  0.402130  1.0
  C  C74  1  0.072400  0.082900  0.597870  1.0
  C  C75  1  0.874100  0.009300  0.349310  1.0
  C  C76  1  0.125900  0.990700  0.650690  1.0
  C  C77  1  0.890200  0.940300  0.300600  1.0
  C  C78  1  0.109800  0.059700  0.699400  1.0
  C  C79  1  0.962600  0.777000  0.308070  1.0
  C  C80  1  0.037400  0.223000  0.691930  1.0
  C  C81  1  0.837100  0.032900  0.242680  1.0
  C  C82  1  0.162900  0.967100  0.757320  1.0
  C  C83  1  0.784100  0.067700  0.143620  1.0
  C  C84  1  0.215900  0.932300  0.856380  1.0
  C  C85  1  0.656500  0.221300  0.134450  1.0
  C  C86  1  0.343500  0.778700  0.865550  1.0
  C  C87  1  0.601700  0.298000  0.078720  1.0
  C  C88  1  0.398300  0.702000  0.921280  1.0
  C  C89  1  0.672700  0.226100  0.031980  1.0
  C  C90  1  0.327300  0.773900  0.968020  1.0
  C  C91  1  0.797900  0.074700  0.040390  1.0
  C  C92  1  0.202100  0.925300  0.959610  1.0
  C  C93  1  0.851400  0.997200  0.095740  1.0
  C  C94  1  0.148600  0.002800  0.904260  1.0
  C  C95  1  0.629100  0.246200  0.929070  1.0
  C  C96  1  0.370900  0.753800  0.070930  1.0
  C  C97  1  0.688800  0.313600  0.879340  1.0
  C  C98  1  0.311200  0.686400  0.120660  1.0
  C  C99  1  0.694700  0.254700  0.828610  1.0
  C  C100  1  0.305300  0.745300  0.171390  1.0
  C  C101  1  0.644300  0.125800  0.827990  1.0
  C  C102  1  0.355700  0.874200  0.172010  1.0
  C  C103  1  0.586800  0.058400  0.878530  1.0
  C  C104  1  0.413200  0.941600  0.121470  1.0
  C  C105  1  0.574800  0.120000  0.928600  1.0
  C  C106  1  0.425200  0.880000  0.071400  1.0
  C  C107  1  0.592900  0.139500  0.730220  1.0
  C  C108  1  0.407100  0.860500  0.269780  1.0
  C  C109  1  0.607000  0.075100  0.676500  1.0
  C  C110  1  0.393000  0.924900  0.323500  1.0
  C  C111  1  0.313900  0.084300  0.323620  1.0
  C  C112  1  0.686100  0.915700  0.676380  1.0
  C  C113  1  0.353000  0.053500  0.421570  1.0
  C  C114  1  0.647000  0.946500  0.578430  1.0
  C  C115  1  0.433200  0.894200  0.425670  1.0
  C  C116  1  0.566800  0.105800  0.574330  1.0
  C  C117  1  0.545100  0.171800  0.623890  1.0
  C  C118  1  0.454900  0.828200  0.376110  1.0
  N  N119  1  0.015000  0.686700  0.359600  1.0
  N  N120  1  0.985000  0.313300  0.640400  1.0
  N  N121  1  0.842000  0.973800  0.198670  1.0
  N  N122  1  0.158000  0.026200  0.801330  1.0
  N  N123  1  0.654800  0.055400  0.777760  1.0
  N  N124  1  0.345200  0.944600  0.222240  1.0
  N  N125  1  0.293500  0.149900  0.371110  1.0
  N  N126  1  0.706500  0.850100  0.628890  1.0
  N  N127  1  0.465900  0.429900  0.294280  1.0
  N  N128  1  0.534100  0.570100  0.705720  1.0
  N  N129  1  0.813900  0.367800  0.445460  1.0
  N  N130  1  0.186100  0.632200  0.554540  1.0
  O  O131  1  0.998900  0.474600  0.177790  1
  O  O132  1  0.001100  0.525400  0.822210  1
  O  O133  1  0.615400  0.317100  0.977990  1.0
  O  O134  1  0.384600  0.682900  0.022010  1.0
  O  O135  1  0.309100  0.435200  0.281370  1.0
  O  O136  1  0.690900  0.564800  0.718630  1.0
  O  O137  1  0.493800  0.441300  0.344390  1.0
  O  O138  1  0.506200  0.558700  0.655610  1.0
  O  O139  1  0.590500  0.418000  0.259640  1.0
  O  O140  1  0.409500  0.582000  0.740360  1.0
  O  O141  1  0.911500  0.271300  0.418170  1.0
  O  O142  1  0.088500  0.728700  0.581830  1.0
  O  O143  1  0.869000  0.475800  0.445470  1.0
  O  O144  1  0.131000  0.524200  0.554530  1.0
  O  O145  1  0.685400  0.359200  0.472480  1.0
  O  O146  1  0.314600  0.640800  0.527520  1.0
  O  O147  1  0.305500  0.386800  0.452610  1.0
  O  O148  1  0.694500  0.613200  0.547390  1.0
  O  O149  1  0.935400  0.433500  0.293920  1.0
  O  O150  1  0.064600  0.566500  0.706080  1.0
