# generated using pymatgen
data_Cu3P2H64C57N8Cl4O23
_symmetry_space_group_name_H-M   'P 1'
_cell_length_a   13.38410000
_cell_length_b   15.55500000
_cell_length_c   18.07270000
_cell_angle_alpha   67.47900000
_cell_angle_beta   72.65600000
_cell_angle_gamma   68.84200000
_symmetry_Int_Tables_number   1
_chemical_formula_structural   Cu3P2H64C57N8Cl4O23
_chemical_formula_sum   'Cu6 P4 H128 C114 N16 Cl8 O46'
_cell_volume   3185.02253687
_cell_formula_units_Z   2
loop_
 _symmetry_equiv_pos_site_id
 _symmetry_equiv_pos_as_xyz
  1  'x, y, z'
loop_
 _atom_site_type_symbol
 _atom_site_label
 _atom_site_symmetry_multiplicity
 _atom_site_fract_x
 _atom_site_fract_y
 _atom_site_fract_z
 _atom_site_occupancy
  Cu  Cu1  1  0.103460  0.102820  0.370810  1.0
  Cu  Cu2  1  0.896540  0.897180  0.629190  1.0
  Cu  Cu3  1  0.209550  0.236860  0.132340  1.0
  Cu  Cu4  1  0.790450  0.763140  0.867660  1.0
  Cu  Cu5  1  0.344920  0.913880  0.186150  1.0
  Cu  Cu6  1  0.655080  0.086120  0.813850  1.0
  P  P7  1  0.108070  0.051400  0.211070  1.0
  P  P8  1  0.891930  0.948600  0.788930  1.0
  P  P9  1  0.347420  0.070040  0.262620  1.0
  P  P10  1  0.652580  0.929960  0.737380  1.0
  H  H11  1  0.495500  0.427400  0.736200  1
  H  H12  1  0.504500  0.572600  0.263800  1
  H  H13  1  0.407500  0.497400  0.782700  1
  H  H14  1  0.592500  0.502600  0.217300  1
  H  H15  1  0.365000  0.515800  0.536400  1
  H  H16  1  0.635000  0.484200  0.463600  1
  H  H17  1  0.291100  0.503400  0.490100  1
  H  H18  1  0.708900  0.496600  0.509900  1
  H  H19  1  0.149800  0.633900  0.520300  1
  H  H20  1  0.850200  0.366100  0.479700  1
  H  H21  1  0.223900  0.653900  0.561200  1
  H  H22  1  0.776100  0.346100  0.438800  1
  H  H23  1  0.221900  0.502800  0.669600  1
  H  H24  1  0.778100  0.497200  0.330400  1
  H  H25  1  0.142800  0.486300  0.629100  1
  H  H26  1  0.857200  0.513700  0.370900  1
  H  H27  1  0.881200  0.098500  0.355900  1.0
  H  H28  1  0.118800  0.901500  0.644100  1.0
  H  H29  1  0.712100  0.104600  0.437400  1.0
  H  H30  1  0.287900  0.895400  0.562600  1.0
  H  H31  1  0.680000  0.116400  0.566100  1.0
  H  H32  1  0.320000  0.883600  0.433900  1.0
  H  H33  1  0.816900  0.138900  0.607400  1.0
  H  H34  1  0.183100  0.861100  0.392600  1.0
  H  H35  1  0.943700  0.197300  0.618000  1.0
  H  H36  1  0.056300  0.802700  0.382000  1.0
  H  H37  1  0.092700  0.231600  0.629900  1.0
  H  H38  1  0.907300  0.768400  0.370100  1.0
  H  H39  1  0.255400  0.203200  0.536400  1.0
  H  H40  1  0.744600  0.796800  0.463600  1.0
  H  H41  1  0.262200  0.145200  0.433600  1.0
  H  H42  1  0.737800  0.854800  0.566400  1.0
  H  H43  1  0.030400  0.249500  0.050500  1.0
  H  H44  1  0.969600  0.750500  0.949500  1.0
  H  H45  1  0.958300  0.348300  0.933400  1.0
  H  H46  1  0.041700  0.651700  0.066600  1.0
  H  H47  1  0.012200  0.486500  0.856300  1.0
  H  H48  1  0.987800  0.513500  0.143700  1.0
  H  H49  1  0.133800  0.525600  0.895600  1.0
  H  H50  1  0.866200  0.474400  0.104400  1.0
  H  H51  1  0.236800  0.559400  0.954800  1.0
  H  H52  1  0.763200  0.440600  0.045200  1.0
  H  H53  1  0.362900  0.571100  0.012300  1.0
  H  H54  1  0.637100  0.428900  0.987700  1.0
  H  H55  1  0.443200  0.437700  0.111100  1.0
  H  H56  1  0.556800  0.562300  0.888900  1.0
  H  H57  1  0.387400  0.300000  0.156800  1.0
  H  H58  1  0.612600  0.700000  0.843200  1.0
  H  H59  1  0.193500  0.859200  0.124300  1.0
  H  H60  1  0.806500  0.140800  0.875700  1.0
  H  H61  1  0.202200  0.808200  0.016000  1.0
  H  H62  1  0.797800  0.191800  0.984000  1.0
  H  H63  1  0.357300  0.800500  0.917200  1.0
  H  H64  1  0.642700  0.199500  0.082800  1.0
  H  H65  1  0.505300  0.835900  0.930300  1.0
  H  H66  1  0.494700  0.164100  0.069700  1.0
  H  H67  1  0.637900  0.869700  0.954700  1.0
  H  H68  1  0.362100  0.130300  0.045300  1.0
  H  H69  1  0.775800  0.885600  0.996200  1.0
  H  H70  1  0.224200  0.114400  0.003800  1.0
  H  H71  1  0.740300  0.905700  0.125500  1.0
  H  H72  1  0.259700  0.094300  0.874500  1.0
  H  H73  1  0.567600  0.920100  0.199500  1.0
  H  H74  1  0.432400  0.079900  0.800500  1.0
  H  H75  1  0.932700  0.121300  0.186500  1.0
  H  H76  1  0.067300  0.878700  0.813500  1.0
  H  H77  1  0.971700  0.115100  0.059600  1.0
  H  H78  1  0.028300  0.884900  0.940400  1.0
  H  H79  1  0.078000  0.028300  0.075100  1.0
  H  H80  1  0.922000  0.971700  0.924900  1.0
  H  H81  1  0.899200  0.004400  0.062200  1.0
  H  H82  1  0.100800  0.995600  0.937800  1.0
  H  H83  1  0.989500  0.917400  0.106000  1.0
  H  H84  1  0.010500  0.082600  0.894000  1.0
  H  H85  1  0.841800  0.914900  0.209200  1.0
  H  H86  1  0.158200  0.085100  0.790800  1.0
  H  H87  1  0.797600  0.029200  0.182200  1.0
  H  H88  1  0.202400  0.970800  0.817800  1.0
  H  H89  1  0.885700  0.994000  0.289000  1.0
  H  H90  1  0.114300  0.006000  0.711000  1.0
  H  H91  1  0.985900  0.916600  0.256600  1.0
  H  H92  1  0.014100  0.083400  0.743400  1.0
  H  H93  1  0.527700  0.061700  0.243200  1.0
  H  H94  1  0.472300  0.938300  0.756800  1.0
  H  H95  1  0.440800  0.977800  0.409100  1.0
  H  H96  1  0.559200  0.022200  0.590900  1.0
  H  H97  1  0.544300  0.927900  0.354200  1.0
  H  H98  1  0.455700  0.072100  0.645800  1.0
  H  H99  1  0.644200  0.023200  0.352800  1.0
  H  H100  1  0.355800  0.976800  0.647200  1.0
  H  H101  1  0.585100  0.992700  0.444800  1.0
  H  H102  1  0.414900  0.007300  0.555200  1.0
  H  H103  1  0.554300  0.173300  0.372000  1.0
  H  H104  1  0.445700  0.826700  0.628000  1.0
  H  H105  1  0.450800  0.139400  0.427300  1.0
  H  H106  1  0.549200  0.860600  0.572700  1.0
  H  H107  1  0.497900  0.204700  0.256000  1.0
  H  H108  1  0.502100  0.795300  0.744000  1.0
  H  H109  1  0.382100  0.203300  0.311500  1.0
  H  H110  1  0.617900  0.796700  0.688500  1.0
  H  H111  1  0.185300  0.331500  0.269700  1.0
  H  H112  1  0.814700  0.668500  0.730300  1.0
  H  H113  1  0.057800  0.404300  0.356100  1.0
  H  H114  1  0.942200  0.595700  0.643900  1.0
  H  H115  1  0.832100  0.353400  0.288600  1.0
  H  H116  1  0.167900  0.646600  0.711400  1.0
  H  H117  1  0.966700  0.278600  0.205600  1.0
  H  H118  1  0.033300  0.721400  0.794400  1.0
  H  H119  1  0.253500  0.729500  0.262900  1.0
  H  H120  1  0.746500  0.270500  0.737100  1.0
  H  H121  1  0.237700  0.603800  0.384100  1.0
  H  H122  1  0.762300  0.396200  0.615900  1.0
  H  H123  1  0.463500  0.658300  0.446600  1.0
  H  H124  1  0.536500  0.341700  0.553400  1.0
  H  H125  1  0.476800  0.777600  0.324200  1.0
  H  H126  1  0.523200  0.222400  0.675800  1.0
  H  H127  1  0.425800  0.511300  0.525000  1.0
  H  H128  1  0.574200  0.488700  0.475000  1.0
  H  H129  1  0.331300  0.483300  0.513300  1.0
  H  H130  1  0.668700  0.516700  0.486700  1.0
  H  H131  1  0.288200  0.527700  0.638600  1.0
  H  H132  1  0.711800  0.472300  0.361400  1.0
  H  H133  1  0.285600  0.634400  0.583400  1.0
  H  H134  1  0.714400  0.365600  0.416600  1.0
  H  H135  1  0.852900  0.459000  0.425200  1.0
  H  H136  1  0.147100  0.541000  0.574800  1.0
  H  H137  1  0.863100  0.347800  0.462500  1.0
  H  H138  1  0.136900  0.652200  0.537500  1.0
  C  C139  1  0.447800  0.430200  0.788000  1
  C  C140  1  0.552200  0.569800  0.212000  1
  C  C141  1  0.309000  0.550000  0.503600  1
  C  C142  1  0.691000  0.450000  0.496400  1
  C  C143  1  0.208000  0.603300  0.552000  1
  C  C144  1  0.792000  0.396700  0.448000  1
  C  C145  1  0.167500  0.534400  0.635000  1
  C  C146  1  0.832500  0.465600  0.365000  1
  C  C147  1  0.867800  0.107500  0.406400  1.0
  C  C148  1  0.132200  0.892500  0.593600  1.0
  C  C149  1  0.767200  0.109500  0.455700  1.0
  C  C150  1  0.232800  0.890500  0.544300  1.0
  C  C151  1  0.746900  0.118800  0.531600  1.0
  C  C152  1  0.253100  0.881200  0.468400  1.0
  C  C153  1  0.828200  0.131700  0.556500  1.0
  C  C154  1  0.171800  0.868300  0.443500  1.0
  C  C155  1  0.926200  0.133600  0.502800  1.0
  C  C156  1  0.073800  0.866400  0.497200  1.0
  C  C157  1  0.017100  0.154600  0.517200  1.0
  C  C158  1  0.982900  0.845400  0.482800  1.0
  C  C159  1  0.008700  0.188200  0.580800  1.0
  C  C160  1  0.991300  0.811800  0.419200  1.0
  C  C161  1  0.097500  0.207900  0.588500  1.0
  C  C162  1  0.902500  0.792100  0.411500  1.0
  C  C163  1  0.194000  0.191400  0.532600  1.0
  C  C164  1  0.806000  0.808600  0.467400  1.0
  C  C165  1  0.197500  0.156900  0.470600  1.0
  C  C166  1  0.802500  0.843100  0.529400  1.0
  C  C167  1  0.053100  0.304500  0.018100  1.0
  C  C168  1  0.946900  0.695500  0.981900  1.0
  C  C169  1  0.008500  0.364100  0.948500  1.0
  C  C170  1  0.991500  0.635900  0.051500  1.0
  C  C171  1  0.040500  0.446000  0.903100  1.0
  C  C172  1  0.959500  0.554000  0.096900  1.0
  C  C173  1  0.113500  0.468900  0.925600  1.0
  C  C174  1  0.886500  0.531100  0.074400  1.0
  C  C175  1  0.157600  0.406000  0.994500  1.0
  C  C176  1  0.842400  0.594000  0.005500  1.0
  C  C177  1  0.237500  0.421600  0.025400  1.0
  C  C178  1  0.762500  0.578400  0.974600  1.0
  C  C179  1  0.267500  0.507300  0.996300  1.0
  C  C180  1  0.732500  0.492700  0.003700  1.0
  C  C181  1  0.343400  0.513800  0.029900  1.0
  C  C182  1  0.656600  0.486200  0.970100  1.0
  C  C183  1  0.389900  0.435300  0.089200  1.0
  C  C184  1  0.610100  0.564700  0.910800  1.0
  C  C185  1  0.356300  0.352800  0.115900  1.0
  C  C186  1  0.643700  0.647200  0.884100  1.0
  C  C187  1  0.257300  0.853200  0.085500  1.0
  C  C188  1  0.742700  0.146800  0.914500  1.0
  C  C189  1  0.261200  0.823600  0.019600  1.0
  C  C190  1  0.738800  0.176400  0.980400  1.0
  C  C191  1  0.353200  0.818200  0.961900  1.0
  C  C192  1  0.646800  0.181800  0.038100  1.0
  C  C193  1  0.441900  0.839400  0.969600  1.0
  C  C194  1  0.558100  0.160600  0.030400  1.0
  C  C195  1  0.433900  0.865300  0.035700  1.0
  C  C196  1  0.566100  0.134700  0.964300  1.0
  C  C197  1  0.523000  0.882500  0.054000  1.0
  C  C198  1  0.477000  0.117500  0.946000  1.0
  C  C199  1  0.624900  0.878700  0.005000  1.0
  C  C200  1  0.375100  0.121300  0.995000  1.0
  C  C201  1  0.707400  0.888100  0.029500  1.0
  C  C202  1  0.292600  0.111900  0.970500  1.0
  C  C203  1  0.686000  0.901400  0.105900  1.0
  C  C204  1  0.314000  0.098600  0.894100  1.0
  C  C205  1  0.582900  0.908000  0.150200  1.0
  C  C206  1  0.417100  0.092000  0.849800  1.0
  C  C207  1  0.985300  0.058900  0.184100  1.0
  C  C208  1  0.014700  0.941100  0.815900  1.0
  C  C209  1  0.001100  0.051900  0.096500  1.0
  C  C210  1  0.998900  0.948100  0.903500  1.0
  C  C211  1  0.939400  0.980500  0.106100  1.0
  C  C212  1  0.060600  0.019500  0.893900  1.0
  C  C213  1  0.862700  0.974800  0.187100  1.0
  C  C214  1  0.137300  0.025200  0.812900  1.0
  C  C215  1  0.931500  0.978100  0.240500  1.0
  C  C216  1  0.068500  0.021900  0.759500  1.0
  C  C217  1  0.467500  0.069800  0.289000  1.0
  C  C218  1  0.532500  0.930200  0.711000  1.0
  C  C219  1  0.503100  0.988200  0.366100  1.0
  C  C220  1  0.496900  0.011800  0.633900  1.0
  C  C221  1  0.573900  0.027500  0.389100  1.0
  C  C222  1  0.426100  0.972500  0.610900  1.0
  C  C223  1  0.507600  0.134100  0.379800  1.0
  C  C224  1  0.492400  0.865900  0.620200  1.0
  C  C225  1  0.457900  0.165700  0.302800  1.0
  C  C226  1  0.542100  0.834300  0.697200  1.0
  C  C227  1  0.112900  0.335700  0.273800  1.0
  C  C228  1  0.887100  0.664300  0.726200  1.0
  C  C229  1  0.037000  0.379000  0.325900  1.0
  C  C230  1  0.963000  0.621000  0.674100  1.0
  C  C231  1  0.927900  0.386600  0.335200  1.0
  C  C232  1  0.072100  0.613400  0.664800  1.0
  C  C233  1  0.904100  0.348800  0.286500  1.0
  C  C234  1  0.095900  0.651200  0.713500  1.0
  C  C235  1  0.985200  0.305200  0.236100  1.0
  C  C236  1  0.014800  0.694800  0.763900  1.0
  C  C237  1  0.295800  0.715600  0.300800  1.0
  C  C238  1  0.704200  0.284400  0.699200  1.0
  C  C239  1  0.285900  0.639300  0.374000  1.0
  C  C240  1  0.714100  0.360700  0.626000  1.0
  C  C241  1  0.347900  0.618100  0.429900  1.0
  C  C242  1  0.652100  0.381900  0.570100  1.0
  C  C243  1  0.419300  0.671200  0.410400  1.0
  C  C244  1  0.580700  0.328800  0.589600  1.0
  C  C245  1  0.425800  0.743900  0.337000  1.0
  C  C246  1  0.574200  0.256100  0.663000  1.0
  C  C247  1  0.351800  0.536000  0.514900  1.0
  C  C248  1  0.648200  0.464000  0.485100  1.0
  C  C249  1  0.272700  0.575300  0.586900  1.0
  C  C250  1  0.727300  0.424700  0.413100  1.0
  C  C251  1  0.844300  0.404600  0.416300  1.0
  C  C252  1  0.155700  0.595400  0.583700  1.0
  N  N253  1  0.947400  0.118400  0.430600  1.0
  N  N254  1  0.052600  0.881600  0.569400  1.0
  N  N255  1  0.109800  0.140200  0.463200  1.0
  N  N256  1  0.890200  0.859800  0.536800  1.0
  N  N257  1  0.127700  0.324700  0.039300  1.0
  N  N258  1  0.872300  0.675300  0.960700  1.0
  N  N259  1  0.281300  0.344900  0.086000  1.0
  N  N260  1  0.718700  0.655100  0.914000  1.0
  N  N261  1  0.340900  0.872800  0.094200  1.0
  N  N262  1  0.659100  0.127200  0.905800  1.0
  N  N263  1  0.502100  0.898000  0.127300  1.0
  N  N264  1  0.497900  0.102000  0.872700  1.0
  N  N265  1  0.090400  0.298000  0.227200  1.0
  N  N266  1  0.909600  0.702000  0.772800  1.0
  N  N267  1  0.362700  0.767900  0.284100  1.0
  N  N268  1  0.637300  0.232100  0.715900  1.0
  Cl  Cl269  1  0.935500  0.345300  0.763600  1
  Cl  Cl270  1  0.064500  0.654700  0.236400  1
  Cl  Cl271  1  0.293370  0.715150  0.800110  1
  Cl  Cl272  1  0.706630  0.284850  0.199890  1
  Cl  Cl273  1  0.354000  0.360200  0.812500  1
  Cl  Cl274  1  0.646000  0.639800  0.187500  1
  Cl  Cl275  1  0.527200  0.385000  0.864800  1
  Cl  Cl276  1  0.472800  0.615000  0.135200  1
  O  O277  1  0.858000  0.371700  0.827300  1
  O  O278  1  0.142000  0.628300  0.172700  1
  O  O279  1  0.909000  0.411100  0.686900  1
  O  O280  1  0.091000  0.588900  0.313100  1
  O  O281  1  0.038700  0.343800  0.768600  1
  O  O282  1  0.961300  0.656200  0.231400  1
  O  O283  1  0.937600  0.253700  0.764600  1
  O  O284  1  0.062400  0.746300  0.235400  1
  O  O285  1  0.385500  0.680300  0.835500  1
  O  O286  1  0.614500  0.319700  0.164500  1
  O  O287  1  0.276200  0.810700  0.753000  1
  O  O288  1  0.723800  0.189300  0.247000  1
  O  O289  1  0.333000  0.676900  0.725300  1
  O  O290  1  0.667000  0.323100  0.274700  1
  O  O291  1  0.199700  0.697000  0.838100  1
  O  O292  1  0.800300  0.303000  0.161900  1
  O  O293  1  0.499400  0.382500  0.385300  1
  O  O294  1  0.500600  0.617500  0.614700  1
  O  O295  1  0.304000  0.380200  0.374100  1
  O  O296  1  0.696000  0.619800  0.625900  1
  O  O297  1  0.292900  0.282700  0.647000  1
  O  O298  1  0.707100  0.717300  0.353000  1
  O  O299  1  0.920900  0.311400  0.708900  1
  O  O300  1  0.079100  0.688600  0.291100  1
  O  O301  1  0.271700  0.629800  0.805400  1
  O  O302  1  0.728300  0.370200  0.194600  1
  O  O303  1  0.214100  0.733700  0.885600  1
  O  O304  1  0.785900  0.266300  0.114400  1
  O  O305  1  0.935000  0.272500  0.839600  1
  O  O306  1  0.065000  0.727500  0.160400  1
  O  O307  1  0.850300  0.426400  0.773300  1
  O  O308  1  0.149700  0.573600  0.226700  1
  O  O309  1  0.033000  0.370000  0.738000  1
  O  O310  1  0.967000  0.630000  0.262000  1
  O  O311  1  0.072200  0.064100  0.295100  1.0
  O  O312  1  0.927800  0.935900  0.704900  1.0
  O  O313  1  0.151800  0.133600  0.146200  1.0
  O  O314  1  0.848200  0.866400  0.853800  1.0
  O  O315  1  0.187500  0.951700  0.211900  1.0
  O  O316  1  0.812500  0.048300  0.788100  1.0
  O  O317  1  0.335000  0.151300  0.181800  1.0
  O  O318  1  0.665000  0.848700  0.818200  1.0
  O  O319  1  0.367500  0.970300  0.256800  1.0
  O  O320  1  0.632500  0.029700  0.743200  1.0
  O  O321  1  0.254100  0.091600  0.331700  1.0
  O  O322  1  0.745900  0.908400  0.668300  1.0
