# generated using pymatgen
data_Cu3P2H61C52N11(ClO9)2
_symmetry_space_group_name_H-M   'P 1'
_cell_length_a   13.65240000
_cell_length_b   13.71790000
_cell_length_c   18.61990000
_cell_angle_alpha   70.44800000
_cell_angle_beta   87.00100000
_cell_angle_gamma   65.74100000
_symmetry_Int_Tables_number   1
_chemical_formula_structural   Cu3P2H61C52N11(ClO9)2
_chemical_formula_sum   'Cu6 P4 H122 C104 N22 Cl4 O36'
_cell_volume   2981.16696256
_cell_formula_units_Z   2
loop_
 _symmetry_equiv_pos_site_id
 _symmetry_equiv_pos_as_xyz
  1  'x, y, z'
loop_
 _atom_site_type_symbol
 _atom_site_label
 _atom_site_symmetry_multiplicity
 _atom_site_fract_x
 _atom_site_fract_y
 _atom_site_fract_z
 _atom_site_occupancy
  Cu  Cu1  1  0.563810  0.153060  0.347230  1.0
  Cu  Cu2  1  0.436190  0.846940  0.652770  1.0
  Cu  Cu3  1  0.728500  0.991880  0.146800  1.0
  Cu  Cu4  1  0.271500  0.008120  0.853200  1.0
  Cu  Cu5  1  0.749410  0.783590  0.359540  1.0
  Cu  Cu6  1  0.250590  0.216410  0.640460  1.0
  P  P7  1  0.790730  0.011400  0.296650  1.0
  P  P8  1  0.209270  0.988600  0.703350  1.0
  P  P9  1  0.544370  0.998620  0.260470  1.0
  P  P10  1  0.455630  0.001380  0.739530  1.0
  H  H11  1  0.925600  0.480900  0.228300  1
  H  H12  1  0.074400  0.519100  0.771700  1
  H  H13  1  0.785600  0.421600  0.261000  1
  H  H14  1  0.214400  0.578400  0.739000  1
  H  H15  1  0.810400  0.460500  0.175500  1
  H  H16  1  0.189600  0.539500  0.824500  1
  H  H17  1  0.720000  0.547300  0.206600  1
  H  H18  1  0.280000  0.452700  0.793400  1
  H  H19  1  0.094600  0.442100  0.181400  1
  H  H20  1  0.905400  0.557900  0.818600  1
  H  H21  1  0.993600  0.443000  0.092200  1
  H  H22  1  0.006400  0.557000  0.907800  1
  H  H23  1  0.011500  0.322700  0.150400  1
  H  H24  1  0.988500  0.677300  0.849600  1
  H  H25  1  0.110400  0.345000  0.115300  1
  H  H26  1  0.889600  0.655000  0.884700  1
  H  H27  1  0.713800  0.225300  0.391900  1.0
  H  H28  1  0.286200  0.774700  0.608100  1.0
  H  H29  1  0.780600  0.240900  0.495400  1.0
  H  H30  1  0.219400  0.759100  0.504600  1.0
  H  H31  1  0.700400  0.210400  0.609700  1.0
  H  H32  1  0.299600  0.789600  0.390300  1.0
  H  H33  1  0.555700  0.162400  0.615000  1.0
  H  H34  1  0.444300  0.837600  0.385000  1.0
  H  H35  1  0.299500  0.090800  0.530200  1.0
  H  H36  1  0.700500  0.909200  0.469800  1.0
  H  H37  1  0.165000  0.142400  0.437500  1.0
  H  H38  1  0.835000  0.857600  0.562500  1.0
  H  H39  1  0.182600  0.229700  0.309200  1.0
  H  H40  1  0.817400  0.770300  0.690800  1.0
  H  H41  1  0.338100  0.251100  0.278200  1.0
  H  H42  1  0.661900  0.748900  0.721800  1.0
  H  H43  1  0.581400  0.933500  0.079800  1.0
  H  H44  1  0.418600  0.066500  0.920200  1.0
  H  H45  1  0.578700  0.798200  0.036400  1.0
  H  H46  1  0.421300  0.201800  0.963600  1.0
  H  H47  1  0.741500  0.658700  0.022900  1.0
  H  H48  1  0.258500  0.341300  0.977100  1.0
  H  H49  1  0.899700  0.662100  0.052800  1.0
  H  H50  1  0.100300  0.337900  0.947200  1.0
  H  H51  1  0.110800  0.824100  0.091200  1.0
  H  H52  1  0.889200  0.175900  0.908800  1.0
  H  H53  1  0.140600  0.980400  0.083000  1.0
  H  H54  1  0.859400  0.019600  0.917000  1.0
  H  H55  1  0.995800  0.148400  0.081800  1.0
  H  H56  1  0.004200  0.851600  0.918200  1.0
  H  H57  1  0.830900  0.147200  0.100800  1.0
  H  H58  1  0.169100  0.852800  0.899200  1.0
  H  H59  1  0.969700  0.744100  0.405400  1.0
  H  H60  1  0.030300  0.255900  0.594600  1.0
  H  H61  1  0.092000  0.663200  0.510500  1.0
  H  H62  1  0.908000  0.336800  0.489500  1.0
  H  H63  1  0.057800  0.549900  0.624700  1.0
  H  H64  1  0.942200  0.450100  0.375300  1.0
  H  H65  1  0.905500  0.516000  0.626500  1.0
  H  H66  1  0.094500  0.484000  0.373500  1.0
  H  H67  1  0.649100  0.473200  0.523800  1.0
  H  H68  1  0.350900  0.526800  0.476200  1.0
  H  H69  1  0.551000  0.477100  0.426200  1.0
  H  H70  1  0.449000  0.522900  0.573800  1.0
  H  H71  1  0.541100  0.601100  0.301800  1.0
  H  H72  1  0.458900  0.398900  0.698200  1.0
  H  H73  1  0.630800  0.715000  0.281100  1.0
  H  H74  1  0.369200  0.285000  0.718900  1.0
  H  H75  1  0.371400  0.018800  0.285600  1.0
  H  H76  1  0.628600  0.981200  0.714400  1.0
  H  H77  1  0.311700  0.180900  0.182200  1.0
  H  H78  1  0.688300  0.819100  0.817800  1.0
  H  H79  1  0.391800  0.123200  0.129300  1.0
  H  H80  1  0.608200  0.876800  0.870700  1.0
  H  H81  1  0.189000  0.128900  0.153500  1.0
  H  H82  1  0.811000  0.871100  0.846500  1.0
  H  H83  1  0.261900  0.087500  0.091900  1.0
  H  H84  1  0.738100  0.912500  0.908100  1.0
  H  H85  1  0.277400  0.918200  0.163000  1.0
  H  H86  1  0.722600  0.081800  0.837000  1.0
  H  H87  1  0.240500  0.955700  0.234900  1.0
  H  H88  1  0.759500  0.044300  0.765100  1.0
  H  H89  1  0.453000  0.886300  0.188400  1.0
  H  H90  1  0.547000  0.113700  0.811600  1.0
  H  H91  1  0.420600  0.843600  0.272200  1.0
  H  H92  1  0.579400  0.156400  0.727800  1.0
  H  H93  1  0.968800  0.977400  0.276600  1.0
  H  H94  1  0.031200  0.022600  0.723400  1.0
  H  H95  1  0.914000  0.167500  0.219000  1.0
  H  H96  1  0.086000  0.832500  0.781000  1.0
  H  H97  1  0.841400  0.196400  0.284400  1.0
  H  H98  1  0.158600  0.803600  0.715600  1.0
  H  H99  1  0.070700  0.108500  0.292900  1.0
  H  H100  1  0.929300  0.891500  0.707100  1.0
  H  H101  1  0.992900  0.211600  0.317600  1.0
  H  H102  1  0.007100  0.788400  0.682400  1.0
  H  H103  1  0.969500  0.098400  0.427800  1.0
  H  H104  1  0.030500  0.901600  0.572200  1.0
  H  H105  1  0.086800  0.016700  0.418200  1.0
  H  H106  1  0.913200  0.983300  0.581800  1.0
  H  H107  1  0.916100  0.967500  0.424500  1.0
  H  H108  1  0.083900  0.032500  0.575500  1.0
  H  H109  1  0.027900  0.897900  0.399400  1.0
  H  H110  1  0.972100  0.102100  0.600600  1.0
  H  H111  1  0.413100  0.414400  0.302400  1.0
  H  H112  1  0.586900  0.585600  0.697600  1.0
  H  H113  1  0.364800  0.585100  0.204400  1.0
  H  H114  1  0.635200  0.414900  0.795600  1.0
  H  H115  1  0.625400  0.437800  0.105700  1.0
  H  H116  1  0.374600  0.562200  0.894300  1.0
  H  H117  1  0.661900  0.269200  0.203700  1.0
  H  H118  1  0.338100  0.730800  0.796300  1.0
  H  H119  1  0.365000  0.743900  0.134300  1.0
  H  H120  1  0.635000  0.256100  0.865700  1.0
  H  H121  1  0.696600  0.090500  0.967600  1.0
  H  H122  1  0.303400  0.909500  0.032400  1.0
  H  H123  1  0.532400  0.244300  0.104300  1.0
  H  H124  1  0.467600  0.755700  0.895700  1.0
  H  H125  1  0.537500  0.582900  0.995600  1.0
  H  H126  1  0.462500  0.417100  0.004400  1.0
  H  H127  1  0.448000  0.116000  0.559000  1.0
  H  H128  1  0.552000  0.884000  0.441000  1.0
  H  H129  1  0.978000  0.753000  0.096000  1.0
  H  H130  1  0.022000  0.247000  0.904000  1.0
  H  H131  1  0.752000  0.553000  0.558000  1.0
  H  H132  1  0.248000  0.447000  0.442000  1.0
  C  C133  1  0.789400  0.483700  0.219300  1
  C  C134  1  0.210600  0.516300  0.780700  1
  C  C135  1  0.041400  0.378000  0.133200  1
  C  C136  1  0.958600  0.622000  0.866800  1
  C  C137  1  0.682300  0.211000  0.437600  1.0
  C  C138  1  0.317700  0.789000  0.562400  1.0
  C  C139  1  0.722300  0.221600  0.499200  1.0
  C  C140  1  0.277700  0.778400  0.500800  1.0
  C  C141  1  0.674900  0.203200  0.567200  1.0
  C  C142  1  0.325100  0.796800  0.432800  1.0
  C  C143  1  0.589700  0.174300  0.570300  1.0
  C  C144  1  0.410300  0.825700  0.429700  1.0
  C  C145  1  0.553900  0.162700  0.505700  1.0
  C  C146  1  0.446100  0.837300  0.494300  1.0
  C  C147  1  0.396300  0.147100  0.456300  1.0
  C  C148  1  0.603700  0.852900  0.543700  1.0
  C  C149  1  0.305400  0.125200  0.478800  1.0
  C  C150  1  0.694600  0.874800  0.521200  1.0
  C  C151  1  0.226300  0.155300  0.423900  1.0
  C  C152  1  0.773700  0.844700  0.576100  1.0
  C  C153  1  0.237300  0.205500  0.347300  1.0
  C  C154  1  0.762700  0.794500  0.652700  1.0
  C  C155  1  0.330400  0.218200  0.329500  1.0
  C  C156  1  0.669600  0.781800  0.670500  1.0
  C  C157  1  0.646700  0.878500  0.074200  1.0
  C  C158  1  0.353300  0.121500  0.925800  1.0
  C  C159  1  0.644100  0.797900  0.048400  1.0
  C  C160  1  0.355900  0.202100  0.951600  1.0
  C  C161  1  0.741000  0.715200  0.040100  1.0
  C  C162  1  0.259000  0.284800  0.959900  1.0
  C  C163  1  0.834200  0.717600  0.057500  1.0
  C  C164  1  0.165800  0.282400  0.942500  1.0
  C  C165  1  0.832500  0.804200  0.082800  1.0
  C  C166  1  0.167500  0.195800  0.917200  1.0
  C  C167  1  0.947900  0.897000  0.099400  1.0
  C  C168  1  0.052100  0.103000  0.900600  1.0
  C  C169  1  0.054000  0.890700  0.092300  1.0
  C  C170  1  0.946000  0.109300  0.907700  1.0
  C  C171  1  0.071200  0.983600  0.087100  1.0
  C  C172  1  0.928800  0.016400  0.912900  1.0
  C  C173  1  0.985800  0.083100  0.088000  1.0
  C  C174  1  0.014200  0.916900  0.912000  1.0
  C  C175  1  0.887900  0.081700  0.098200  1.0
  C  C176  1  0.112100  0.918300  0.901800  1.0
  C  C177  1  0.956200  0.697900  0.450500  1.0
  C  C178  1  0.043800  0.302100  0.549500  1.0
  C  C179  1  0.030000  0.650100  0.513200  1.0
  C  C180  1  0.970000  0.349900  0.486800  1.0
  C  C181  1  0.010300  0.581700  0.580800  1.0
  C  C182  1  0.989700  0.418300  0.419200  1.0
  C  C183  1  0.920100  0.561900  0.581700  1.0
  C  C184  1  0.079900  0.438100  0.418300  1.0
  C  C185  1  0.849500  0.611300  0.514700  1.0
  C  C186  1  0.150500  0.388700  0.485300  1.0
  C  C187  1  0.700800  0.591900  0.458000  1.0
  C  C188  1  0.299200  0.408100  0.542000  1.0
  C  C189  1  0.645400  0.521400  0.474000  1.0
  C  C190  1  0.354600  0.478600  0.526000  1.0
  C  C191  1  0.587000  0.524200  0.416400  1.0
  C  C192  1  0.413000  0.475800  0.583600  1.0
  C  C193  1  0.580800  0.598200  0.342100  1.0
  C  C194  1  0.419200  0.401800  0.657900  1.0
  C  C195  1  0.634500  0.666000  0.330500  1.0
  C  C196  1  0.365500  0.334000  0.669500  1.0
  C  C197  1  0.411200  0.009200  0.241300  1.0
  C  C198  1  0.588800  0.990800  0.758700  1.0
  C  C199  1  0.345800  0.111800  0.169800  1.0
  C  C200  1  0.654200  0.888200  0.830200  1.0
  C  C201  1  0.260500  0.079500  0.145700  1.0
  C  C202  1  0.739500  0.920500  0.854300  1.0
  C  C203  1  0.286800  0.959200  0.193700  1.0
  C  C204  1  0.713200  0.040800  0.806300  1.0
  C  C205  1  0.404400  0.908800  0.225600  1.0
  C  C206  1  0.595600  0.091200  0.774400  1.0
  C  C207  1  0.918000  0.020800  0.305500  1.0
  C  C208  1  0.082000  0.979200  0.694500  1.0
  C  C209  1  0.909000  0.143700  0.273900  1.0
  C  C210  1  0.091000  0.856300  0.726100  1.0
  C  C211  1  0.005100  0.137200  0.316700  1.0
  C  C212  1  0.994900  0.862800  0.683300  1.0
  C  C213  1  0.012400  0.057100  0.395600  1.0
  C  C214  1  0.987600  0.942900  0.604400  1.0
  C  C215  1  0.969500  0.973000  0.388700  1.0
  C  C216  1  0.030500  0.027000  0.611300  1.0
  C  C217  1  0.455500  0.418700  0.261800  1.0
  C  C218  1  0.544500  0.581300  0.738200  1.0
  C  C219  1  0.426100  0.522200  0.203000  1.0
  C  C220  1  0.573900  0.477800  0.797000  1.0
  C  C221  1  0.488400  0.531900  0.142200  1.0
  C  C222  1  0.511600  0.468100  0.857800  1.0
  C  C223  1  0.579700  0.434800  0.144400  1.0
  C  C224  1  0.420300  0.565200  0.855600  1.0
  C  C225  1  0.602000  0.333900  0.204300  1.0
  C  C226  1  0.398000  0.666100  0.795700  1.0
  C  C227  1  0.455400  0.641200  0.077400  1.0
  C  C228  1  0.544600  0.358800  0.922600  1.0
  C  C229  1  0.386400  0.743000  0.086200  1.0
  C  C230  1  0.613600  0.257000  0.913800  1.0
  C  C231  1  0.650800  0.157300  0.975600  1.0
  C  C232  1  0.349200  0.842700  0.024400  1.0
  C  C233  1  0.554400  0.247100  0.055800  1.0
  C  C234  1  0.445600  0.752900  0.944200  1.0
  C  C235  1  0.488000  0.647700  0.004300  1.0
  C  C236  1  0.512000  0.352300  0.995700  1.0
  N  N237  1  0.599000  0.180800  0.440300  1.0
  N  N238  1  0.401000  0.819200  0.559700  1.0
  N  N239  1  0.470100  0.128700  0.513100  1.0
  N  N240  1  0.529900  0.871300  0.486900  1.0
  N  N241  1  0.412400  0.185300  0.382500  1.0
  N  N242  1  0.587600  0.814700  0.617500  1.0
  N  N243  1  0.738800  0.883200  0.092300  1.0
  N  N244  1  0.261200  0.116800  0.907700  1.0
  N  N245  1  0.928300  0.807300  0.098200  1.0
  N  N246  1  0.071700  0.192700  0.901800  1.0
  N  N247  1  0.867700  0.990400  0.104800  1.0
  N  N248  1  0.132300  0.009600  0.895200  1.0
  N  N249  1  0.692900  0.665400  0.387200  1.0
  N  N250  1  0.307100  0.334600  0.612800  1.0
  N  N251  1  0.759800  0.587900  0.517400  1.0
  N  N252  1  0.240200  0.412100  0.482600  1.0
  N  N253  1  0.865000  0.682100  0.450400  1.0
  N  N254  1  0.135000  0.317900  0.549600  1.0
  N  N255  1  0.541900  0.324500  0.263200  1.0
  N  N256  1  0.458100  0.675500  0.736800  1.0
  N  N257  1  0.624500  0.151500  0.046800  1.0
  N  N258  1  0.375500  0.848500  0.953200  1.0
  Cl  Cl259  1  0.812890  0.320690  0.693360  1
  Cl  Cl260  1  0.187110  0.679310  0.306640  1
  Cl  Cl261  1  0.813400  0.415000  0.975900  1
  Cl  Cl262  1  0.186600  0.585000  0.024100  1
  O  O263  1  0.834600  0.284900  0.630300  1
  O  O264  1  0.165400  0.715100  0.369700  1
  O  O265  1  0.755800  0.440400  0.671100  1
  O  O266  1  0.244200  0.559600  0.328900  1
  O  O267  1  0.923100  0.295600  0.726600  1
  O  O268  1  0.076900  0.704400  0.273400  1
  O  O269  1  0.765700  0.262000  0.747900  1
  O  O270  1  0.234300  0.738000  0.252100  1
  O  O271  1  0.805300  0.375000  0.055700  1
  O  O272  1  0.194700  0.625000  0.944300  1
  O  O273  1  0.910800  0.385200  0.971100  1
  O  O274  1  0.089200  0.614800  0.028900  1
  O  O275  1  0.778300  0.360200  0.949500  1
  O  O276  1  0.221700  0.639800  0.050500  1
  O  O277  1  0.750200  0.529600  0.942700  1
  O  O278  1  0.249800  0.470400  0.057300  1
  O  O279  1  0.191200  0.472100  0.206200  1
  O  O280  1  0.808800  0.527900  0.793800  1
  O  O281  1  0.866500  0.515800  0.240900  1
  O  O282  1  0.133500  0.484200  0.759100  1
  O  O283  1  0.053400  0.410500  0.191700  1
  O  O284  1  0.946600  0.589500  0.808300  1
  O  O285  1  0.717800  0.073000  0.347000  1.0
  O  O286  1  0.282200  0.927000  0.653000  1.0
  O  O287  1  0.747400  0.068100  0.212100  1.0
  O  O288  1  0.252600  0.931900  0.787900  1.0
  O  O289  1  0.816800  0.884600  0.325300  1.0
  O  O290  1  0.183200  0.115400  0.674700  1.0
  O  O291  1  0.525800  0.112700  0.266400  1.0
  O  O292  1  0.474200  0.887300  0.733600  1.0
  O  O293  1  0.606100  0.970900  0.194400  1.0
  O  O294  1  0.393900  0.029100  0.805600  1.0
  O  O295  1  0.596700  0.899600  0.337000  1.0
  O  O296  1  0.403300  0.100400  0.663000  1.0
  O  O297  1  0.840400  0.710100  0.269000  1.0
  O  O298  1  0.159600  0.289900  0.731000  1.0
