# generated using pymatgen
data_Cu6P4H92C92N16Cl4O41
_symmetry_space_group_name_H-M   'P 1'
_cell_length_a   12.97900000
_cell_length_b   18.44100000
_cell_length_c   23.54800000
_cell_angle_alpha   93.13400000
_cell_angle_beta   97.00200000
_cell_angle_gamma   97.23500000
_symmetry_Int_Tables_number   1
_chemical_formula_structural   Cu6P4H92C92N16Cl4O41
_chemical_formula_sum   'Cu12 P8 H184 C184 N32 Cl8 O82'
_cell_volume   5535.48719734
_cell_formula_units_Z   2
loop_
 _symmetry_equiv_pos_site_id
 _symmetry_equiv_pos_as_xyz
  1  'x, y, z'
loop_
 _atom_site_type_symbol
 _atom_site_label
 _atom_site_symmetry_multiplicity
 _atom_site_fract_x
 _atom_site_fract_y
 _atom_site_fract_z
 _atom_site_occupancy
  Cu  Cu1  1  0.483920  0.362230  0.454460  1.0
  Cu  Cu2  1  0.516080  0.637770  0.545540  1.0
  Cu  Cu3  1  0.365260  0.198170  0.475490  1.0
  Cu  Cu4  1  0.634740  0.801830  0.524510  1.0
  Cu  Cu5  1  0.123650  0.362670  0.510660  1.0
  Cu  Cu6  1  0.876350  0.637330  0.489340  1.0
  Cu  Cu7  1  0.005040  0.856670  0.979830  1.0
  Cu  Cu8  1  0.994960  0.143330  0.020170  1.0
  Cu  Cu9  1  0.870780  0.701390  0.010780  1.0
  Cu  Cu10  1  0.129220  0.298610  0.989220  1.0
  Cu  Cu11  1  0.619330  0.861390  0.981800  1.0
  Cu  Cu12  1  0.380670  0.138610  0.018200  1.0
  P  P13  1  0.356780  0.335800  0.561000  1.0
  P  P14  1  0.643220  0.664200  0.439000  1.0
  P  P15  1  0.255290  0.321990  0.404840  1.0
  P  P16  1  0.744710  0.678010  0.595160  1.0
  P  P17  1  0.793350  0.804110  0.908730  1.0
  P  P18  1  0.206650  0.195890  0.091270  1.0
  P  P19  1  0.833250  0.853540  0.066860  1.0
  P  P20  1  0.166750  0.146460  0.933140  1.0
  H  H21  1  0.602300  0.321500  0.568400  1.0
  H  H22  1  0.397700  0.678500  0.431600  1.0
  H  H23  1  0.750300  0.266700  0.594100  1.0
  H  H24  1  0.249700  0.733300  0.405900  1.0
  H  H25  1  0.835900  0.217700  0.524500  1.0
  H  H26  1  0.164100  0.782300  0.475500  1.0
  H  H27  1  0.776100  0.224400  0.429000  1.0
  H  H28  1  0.223900  0.775600  0.571000  1.0
  H  H29  1  0.709400  0.242900  0.338400  1.0
  H  H30  1  0.290600  0.757100  0.661600  1.0
  H  H31  1  0.650500  0.284900  0.250500  1.0
  H  H32  1  0.349500  0.715100  0.749500  1.0
  H  H33  1  0.522500  0.361600  0.245600  1.0
  H  H34  1  0.477500  0.638400  0.754400  1.0
  H  H35  1  0.450200  0.390700  0.325300  1.0
  H  H36  1  0.549800  0.609300  0.674700  1.0
  H  H37  1  0.448400  0.182700  0.602000  1.0
  H  H38  1  0.551600  0.817300  0.398000  1.0
  H  H39  1  0.571600  0.123000  0.653300  1.0
  H  H40  1  0.428400  0.877000  0.346700  1.0
  H  H41  1  0.672000  0.054000  0.604700  1.0
  H  H42  1  0.328000  0.946000  0.395300  1.0
  H  H43  1  0.651900  0.046900  0.504800  1.0
  H  H44  1  0.348100  0.953100  0.495200  1.0
  H  H45  1  0.617000  0.046700  0.408400  1.0
  H  H46  1  0.383000  0.953300  0.591600  1.0
  H  H47  1  0.569100  0.050100  0.310100  1.0
  H  H48  1  0.430900  0.949900  0.689900  1.0
  H  H49  1  0.431700  0.115200  0.278000  1.0
  H  H50  1  0.568300  0.884800  0.722000  1.0
  H  H51  1  0.357000  0.179000  0.345600  1.0
  H  H52  1  0.643000  0.821000  0.654400  1.0
  H  H53  1  0.162600  0.385800  0.642600  1.0
  H  H54  1  0.837400  0.614200  0.357400  1.0
  H  H55  1  0.074600  0.416600  0.716300  1.0
  H  H56  1  0.925400  0.583400  0.283700  1.0
  H  H57  1  0.906200  0.449600  0.694400  1.0
  H  H58  1  0.093800  0.550400  0.305600  1.0
  H  H59  1  0.835900  0.451800  0.600200  1.0
  H  H60  1  0.164100  0.548200  0.399800  1.0
  H  H61  1  0.790300  0.463400  0.505100  1.0
  H  H62  1  0.209700  0.536600  0.494900  1.0
  H  H63  1  0.742400  0.456700  0.408300  1.0
  H  H64  1  0.257600  0.543300  0.591700  1.0
  H  H65  1  0.854700  0.411000  0.347800  1.0
  H  H66  1  0.145300  0.589000  0.652200  1.0
  H  H67  1  0.005300  0.369000  0.389200  1.0
  H  H68  1  0.994700  0.631000  0.610800  1.0
  H  H69  1  0.074400  0.244200  0.602500  1.0
  H  H70  1  0.925600  0.755800  0.397500  1.0
  H  H71  1  0.989300  0.127700  0.608800  1.0
  H  H72  1  0.010700  0.872300  0.391200  1.0
  H  H73  1  0.950100  0.105400  0.434100  1.0
  H  H74  1  0.049900  0.894600  0.565900  1.0
  H  H75  1  0.038900  0.221600  0.436400  1.0
  H  H76  1  0.961100  0.778400  0.563600  1.0
  H  H77  1  0.850800  0.009300  0.437400  1.0
  H  H78  1  0.149200  0.990700  0.562600  1.0
  H  H79  1  0.249600  0.099500  0.560300  1.0
  H  H80  1  0.750400  0.900500  0.439700  1.0
  H  H81  1  0.207200  0.083900  0.394700  1.0
  H  H82  1  0.792800  0.916100  0.605300  1.0
  H  H83  1  0.903300  0.020700  0.609600  1.0
  H  H84  1  0.096700  0.979300  0.390400  1.0
  H  H85  1  0.259500  0.295400  0.309400  1.0
  H  H86  1  0.740500  0.704600  0.690600  1.0
  H  H87  1  0.165600  0.378000  0.264300  1.0
  H  H88  1  0.834400  0.622000  0.735700  1.0
  H  H89  1  0.242500  0.420700  0.315100  1.0
  H  H90  1  0.757500  0.579300  0.684900  1.0
  H  H91  1  0.123400  0.401300  0.321200  1.0
  H  H92  1  0.876600  0.598700  0.678800  1.0
  H  H93  1  0.059000  0.262400  0.339200  1.0
  H  H94  1  0.941000  0.737600  0.660800  1.0
  H  H95  1  0.134100  0.206400  0.323300  1.0
  H  H96  1  0.865900  0.793600  0.676700  1.0
  H  H97  1  0.084500  0.252900  0.276100  1.0
  H  H98  1  0.915500  0.747100  0.723900  1.0
  H  H99  1  0.478000  0.324700  0.636900  1.0
  H  H100  1  0.522000  0.675300  0.363100  1.0
  H  H101  1  0.381300  0.264000  0.696700  1.0
  H  H102  1  0.618700  0.736000  0.303300  1.0
  H  H103  1  0.307800  0.243300  0.638600  1.0
  H  H104  1  0.692200  0.756700  0.361400  1.0
  H  H105  1  0.284300  0.305400  0.681500  1.0
  H  H106  1  0.715700  0.694600  0.318500  1.0
  H  H107  1  0.379500  0.428000  0.686500  1.0
  H  H108  1  0.620500  0.572000  0.313500  1.0
  H  H109  1  0.427300  0.453000  0.631600  1.0
  H  H110  1  0.572700  0.547000  0.368400  1.0
  H  H111  1  0.499400  0.428100  0.683200  1.0
  H  H112  1  0.500600  0.571900  0.316800  1.0
  H  H113  1  0.018000  0.837900  0.850900  1.0
  H  H114  1  0.982000  0.162100  0.149100  1.0
  H  H115  1  0.103400  0.771900  0.789500  1.0
  H  H116  1  0.896600  0.228100  0.210500  1.0
  H  H117  1  0.232100  0.704900  0.829400  1.0
  H  H118  1  0.767900  0.295100  0.170600  1.0
  H  H119  1  0.273700  0.709800  0.928000  1.0
  H  H120  1  0.726300  0.290200  0.072000  1.0
  H  H121  1  0.310900  0.727700  0.023100  1.0
  H  H122  1  0.689100  0.272300  0.976900  1.0
  H  H123  1  0.325200  0.741600  0.124200  1.0
  H  H124  1  0.674800  0.258400  0.875800  1.0
  H  H125  1  0.208900  0.807300  0.166500  1.0
  H  H126  1  0.791100  0.192700  0.833500  1.0
  H  H127  1  0.082200  0.854400  0.108200  1.0
  H  H128  1  0.917800  0.145600  0.891800  1.0
  H  H129  1  0.900000  0.650400  0.887200  1.0
  H  H130  1  0.100000  0.349600  0.112800  1.0
  H  H131  1  0.005500  0.580800  0.841700  1.0
  H  H132  1  0.994500  0.419200  0.158300  1.0
  H  H133  1  0.130900  0.526200  0.897200  1.0
  H  H134  1  0.869100  0.473800  0.102800  1.0
  H  H135  1  0.145100  0.543800  0.997400  1.0
  H  H136  1  0.854900  0.456200  0.002600  1.0
  H  H137  1  0.153900  0.568600  0.091700  1.0
  H  H138  1  0.846100  0.431400  0.908300  1.0
  H  H139  1  0.137400  0.593000  0.189400  1.0
  H  H140  1  0.862600  0.407000  0.810600  1.0
  H  H141  1  0.018400  0.668800  0.213200  1.0
  H  H142  1  0.981600  0.331200  0.786800  1.0
  H  H143  1  0.911000  0.712500  0.141800  1.0
  H  H144  1  0.089000  0.287500  0.858200  1.0
  H  H145  1  0.551500  0.855600  0.850300  1.0
  H  H146  1  0.448500  0.144400  0.149700  1.0
  H  H147  1  0.408700  0.875500  0.786700  1.0
  H  H148  1  0.591300  0.124500  0.213300  1.0
  H  H149  1  0.267000  0.918300  0.825700  1.0
  H  H150  1  0.733000  0.081700  0.174300  1.0
  H  H151  1  0.277700  0.943000  0.923400  1.0
  H  H152  1  0.722300  0.057000  0.076600  1.0
  H  H153  1  0.296800  0.960500  0.017800  1.0
  H  H154  1  0.703200  0.039500  0.982200  1.0
  H  H155  1  0.330300  0.973800  0.118300  1.0
  H  H156  1  0.669700  0.026200  0.881700  1.0
  H  H157  1  0.481400  0.933800  0.163100  1.0
  H  H158  1  0.518600  0.066200  0.836900  1.0
  H  H159  1  0.598500  0.891900  0.108200  1.0
  H  H160  1  0.401500  0.108100  0.891800  1.0
  H  H161  1  0.722900  0.586500  0.927600  1.0
  H  H162  1  0.277100  0.413500  0.072400  1.0
  H  H163  1  0.618900  0.475200  0.924200  1.0
  H  H164  1  0.381100  0.524800  0.075800  1.0
  H  H165  1  0.644200  0.494600  0.096100  1.0
  H  H166  1  0.355800  0.505400  0.903900  1.0
  H  H167  1  0.742000  0.607000  0.094200  1.0
  H  H168  1  0.258000  0.393000  0.905800  1.0
  H  H169  1  0.521100  0.375000  0.924800  1.0
  H  H170  1  0.478900  0.625000  0.075200  1.0
  H  H171  1  0.568300  0.739900  0.073200  1.0
  H  H172  1  0.431700  0.260100  0.926800  1.0
  H  H173  1  0.528000  0.725200  0.906800  1.0
  H  H174  1  0.472000  0.274800  0.093200  1.0
  H  H175  1  0.566800  0.390600  0.095300  1.0
  H  H176  1  0.433200  0.609400  0.904700  1.0
  H  H177  1  0.839100  0.755500  0.824700  1.0
  H  H178  1  0.160900  0.244500  0.175300  1.0
  H  H179  1  0.619000  0.739700  0.816200  1.0
  H  H180  1  0.381000  0.260300  0.183800  1.0
  H  H181  1  0.684000  0.680800  0.842800  1.0
  H  H182  1  0.316000  0.319200  0.157200  1.0
  H  H183  1  0.685300  0.696600  0.778200  1.0
  H  H184  1  0.314700  0.303400  0.221800  1.0
  H  H185  1  0.755900  0.824500  0.756900  1.0
  H  H186  1  0.244100  0.175500  0.243100  1.0
  H  H187  1  0.835200  0.873500  0.803400  1.0
  H  H188  1  0.164800  0.126500  0.196600  1.0
  H  H189  1  0.714600  0.867600  0.806800  1.0
  H  H190  1  0.285400  0.132400  0.193200  1.0
  H  H191  1  0.926400  0.863700  0.156200  1.0
  H  H192  1  0.073600  0.136300  0.843800  1.0
  H  H193  1  0.801300  0.863100  0.217800  1.0
  H  H194  1  0.198700  0.136900  0.782200  1.0
  H  H195  1  0.764000  0.799300  0.170200  1.0
  H  H196  1  0.236000  0.200700  0.829800  1.0
  H  H197  1  0.714100  0.872400  0.167500  1.0
  H  H198  1  0.285900  0.127600  0.832500  1.0
  H  H199  1  0.824400  0.989100  0.141700  1.0
  H  H200  1  0.175600  0.010900  0.858300  1.0
  H  H201  1  0.940100  0.985300  0.130200  1.0
  H  H202  1  0.059900  0.014700  0.869800  1.0
  H  H203  1  0.910600  0.979800  0.192600  1.0
  H  H204  1  0.089400  0.020200  0.807400  1.0
  C  C205  1  0.638900  0.303400  0.540300  1.0
  C  C206  1  0.361100  0.696600  0.459700  1.0
  C  C207  1  0.726200  0.269700  0.555600  1.0
  C  C208  1  0.273800  0.730300  0.444400  1.0
  C  C209  1  0.777300  0.240700  0.514100  1.0
  C  C210  1  0.222700  0.759300  0.485900  1.0
  C  C211  1  0.742700  0.245300  0.457300  1.0
  C  C212  1  0.257300  0.754700  0.542700  1.0
  C  C213  1  0.656100  0.282000  0.442500  1.0
  C  C214  1  0.343900  0.718000  0.557500  1.0
  C  C215  1  0.616800  0.296900  0.383300  1.0
  C  C216  1  0.383200  0.703100  0.616700  1.0
  C  C217  1  0.658400  0.274100  0.335600  1.0
  C  C218  1  0.341600  0.725900  0.664400  1.0
  C  C219  1  0.622700  0.298700  0.283400  1.0
  C  C220  1  0.377300  0.701300  0.716600  1.0
  C  C221  1  0.545600  0.343600  0.280300  1.0
  C  C222  1  0.454400  0.656400  0.719700  1.0
  C  C223  1  0.503800  0.361500  0.328000  1.0
  C  C224  1  0.496200  0.638500  0.672000  1.0
  C  C225  1  0.489300  0.154700  0.582400  1.0
  C  C226  1  0.510700  0.845300  0.417600  1.0
  C  C227  1  0.563200  0.119100  0.613400  1.0
  C  C228  1  0.436800  0.880900  0.386600  1.0
  C  C229  1  0.622800  0.078700  0.584600  1.0
  C  C230  1  0.377200  0.921300  0.415400  1.0
  C  C231  1  0.610400  0.074000  0.524800  1.0
  C  C232  1  0.389600  0.926000  0.475200  1.0
  C  C233  1  0.536100  0.110100  0.495700  1.0
  C  C234  1  0.463900  0.889900  0.504300  1.0
  C  C235  1  0.512700  0.109800  0.432300  1.0
  C  C236  1  0.487300  0.890200  0.567700  1.0
  C  C237  1  0.563600  0.072900  0.394700  1.0
  C  C238  1  0.436400  0.927100  0.605300  1.0
  C  C239  1  0.535000  0.074700  0.336100  1.0
  C  C240  1  0.465000  0.925300  0.663900  1.0
  C  C241  1  0.454500  0.114100  0.316900  1.0
  C  C242  1  0.545500  0.885900  0.683100  1.0
  C  C243  1  0.409700  0.151600  0.358100  1.0
  C  C244  1  0.590300  0.848400  0.641900  1.0
  C  C245  1  0.095900  0.398900  0.634000  1.0
  C  C246  1  0.904100  0.601100  0.366000  1.0
  C  C247  1  0.044400  0.417200  0.678400  1.0
  C  C248  1  0.955600  0.582800  0.321600  1.0
  C  C249  1  0.944100  0.437100  0.665100  1.0
  C  C250  1  0.055900  0.562900  0.334900  1.0
  C  C251  1  0.902100  0.438100  0.609400  1.0
  C  C252  1  0.097900  0.561900  0.390600  1.0
  C  C253  1  0.960100  0.418100  0.566300  1.0
  C  C254  1  0.039900  0.581900  0.433700  1.0
  C  C255  1  0.923600  0.417800  0.504400  1.0
  C  C256  1  0.076400  0.582200  0.495600  1.0
  C  C257  1  0.832600  0.443600  0.480800  1.0
  C  C258  1  0.167400  0.556400  0.519200  1.0
  C  C259  1  0.804400  0.440700  0.423500  1.0
  C  C260  1  0.195600  0.559300  0.576500  1.0
  C  C261  1  0.870800  0.412800  0.387500  1.0
  C  C262  1  0.129200  0.587200  0.612500  1.0
  C  C263  1  0.961000  0.388000  0.412600  1.0
  C  C264  1  0.039000  0.612000  0.587400  1.0
  C  C265  1  0.048500  0.215900  0.568700  1.0
  C  C266  1  0.951500  0.784100  0.431300  1.0
  C  C267  1  0.996200  0.145700  0.573100  1.0
  C  C268  1  0.003800  0.854300  0.426900  1.0
  C  C269  1  0.954000  0.102900  0.522100  1.0
  C  C270  1  0.046000  0.897100  0.477900  1.0
  C  C271  1  0.973000  0.132300  0.468900  1.0
  C  C272  1  0.027000  0.867700  0.531100  1.0
  C  C273  1  0.027300  0.202600  0.471200  1.0
  C  C274  1  0.972700  0.797400  0.528800  1.0
  C  C275  1  0.890300  0.031700  0.522600  1.0
  C  C276  1  0.109700  0.968300  0.477400  1.0
  C  C277  1  0.841100  0.991300  0.472800  1.0
  C  C278  1  0.158900  0.008700  0.527200  1.0
  C  C279  1  0.220700  0.073800  0.525700  1.0
  C  C280  1  0.779300  0.926200  0.474300  1.0
  C  C281  1  0.194000  0.064600  0.429100  1.0
  C  C282  1  0.806000  0.935400  0.570900  1.0
  C  C283  1  0.871300  0.998900  0.574200  1.0
  C  C284  1  0.128700  0.001100  0.425800  1.0
  C  C285  1  0.203700  0.311700  0.329500  1.0
  C  C286  1  0.796300  0.688300  0.670500  1.0
  C  C287  1  0.181700  0.384800  0.305200  1.0
  C  C288  1  0.818300  0.615200  0.694800  1.0
  C  C289  1  0.112200  0.253100  0.315800  1.0
  C  C290  1  0.887800  0.746900  0.684200  1.0
  C  C291  1  0.409400  0.342000  0.635600  1.0
  C  C292  1  0.590600  0.658000  0.364400  1.0
  C  C293  1  0.338700  0.282800  0.666100  1.0
  C  C294  1  0.661300  0.717200  0.333900  1.0
  C  C295  1  0.430900  0.419900  0.661600  1.0
  C  C296  1  0.569100  0.580100  0.338400  1.0
  C  C297  1  0.068700  0.810800  0.866700  1.0
  C  C298  1  0.931300  0.189200  0.133300  1.0
  C  C299  1  0.120000  0.771600  0.829000  1.0
  C  C300  1  0.880000  0.228400  0.171000  1.0
  C  C301  1  0.196800  0.732400  0.852900  1.0
  C  C302  1  0.803200  0.267600  0.147100  1.0
  C  C303  1  0.220300  0.734500  0.911800  1.0
  C  C304  1  0.779700  0.265500  0.088200  1.0
  C  C305  1  0.164400  0.773500  0.947300  1.0
  C  C306  1  0.835600  0.226500  0.052700  1.0
  C  C307  1  0.183300  0.781400  0.008600  1.0
  C  C308  1  0.816700  0.218600  0.991400  1.0
  C  C309  1  0.264100  0.752400  0.041000  1.0
  C  C310  1  0.735900  0.247600  0.959000  1.0
  C  C311  1  0.273300  0.761400  0.101600  1.0
  C  C312  1  0.726700  0.238600  0.898400  1.0
  C  C313  1  0.204100  0.799900  0.126800  1.0
  C  C314  1  0.795900  0.200100  0.873200  1.0
  C  C315  1  0.127500  0.827300  0.091300  1.0
  C  C316  1  0.872500  0.172700  0.908700  1.0
  C  C317  1  0.951200  0.629600  0.909500  1.0
  C  C318  1  0.048800  0.370400  0.090500  1.0
  C  C319  1  0.013600  0.587200  0.881500  1.0
  C  C320  1  0.986400  0.412800  0.118500  1.0
  C  C321  1  0.087700  0.554900  0.914400  1.0
  C  C322  1  0.912300  0.445100  0.085600  1.0
  C  C323  1  0.096800  0.566000  0.974300  1.0
  C  C324  1  0.903200  0.434000  0.025700  1.0
  C  C325  1  0.032900  0.610700  0.998800  1.0
  C  C326  1  0.967100  0.389300  0.001200  1.0
  C  C327  1  0.036900  0.624300  0.061000  1.0
  C  C328  1  0.963100  0.375700  0.939000  1.0
  C  C329  1  0.103900  0.596900  0.102300  1.0
  C  C330  1  0.896100  0.403100  0.897700  1.0
  C  C331  1  0.095200  0.612500  0.160900  1.0
  C  C332  1  0.904800  0.387500  0.839100  1.0
  C  C333  1  0.023800  0.656600  0.175000  1.0
  C  C334  1  0.976200  0.343400  0.825000  1.0
  C  C335  1  0.960100  0.683000  0.131900  1.0
  C  C336  1  0.039900  0.317000  0.868100  1.0
  C  C337  1  0.494400  0.871800  0.864900  1.0
  C  C338  1  0.505600  0.128200  0.135100  1.0
  C  C339  1  0.409800  0.884100  0.826000  1.0
  C  C340  1  0.590200  0.115900  0.174000  1.0
  C  C341  1  0.326300  0.910100  0.849600  1.0
  C  C342  1  0.673700  0.089900  0.150400  1.0
  C  C343  1  0.331700  0.923500  0.907900  1.0
  C  C344  1  0.668300  0.076500  0.092100  1.0
  C  C345  1  0.417500  0.908000  0.943200  1.0
  C  C346  1  0.582500  0.092000  0.056800  1.0
  C  C347  1  0.429700  0.919200  0.006800  1.0
  C  C348  1  0.570300  0.080800  0.993200  1.0
  C  C349  1  0.357600  0.946800  0.036900  1.0
  C  C350  1  0.642400  0.053200  0.963100  1.0
  C  C351  1  0.377000  0.954200  0.096800  1.0
  C  C352  1  0.623000  0.045800  0.903200  1.0
  C  C353  1  0.467600  0.931600  0.123300  1.0
  C  C354  1  0.532400  0.068400  0.876700  1.0
  C  C355  1  0.537100  0.905600  0.089900  1.0
  C  C356  1  0.462900  0.094400  0.910100  1.0
  C  C357  1  0.707200  0.567700  0.961900  1.0
  C  C358  1  0.292800  0.432300  0.038100  1.0
  C  C359  1  0.644300  0.500000  0.959500  1.0
  C  C360  1  0.355700  0.500000  0.040500  1.0
  C  C361  1  0.619600  0.469800  0.009500  1.0
  C  C362  1  0.380400  0.530200  0.990500  1.0
  C  C363  1  0.658800  0.511900  0.061200  1.0
  C  C364  1  0.341200  0.488100  0.938800  1.0
  C  C365  1  0.718900  0.579200  0.059800  1.0
  C  C366  1  0.281100  0.420800  0.940200  1.0
  C  C367  1  0.556400  0.397100  0.009500  1.0
  C  C368  1  0.443600  0.602900  0.990500  1.0
  C  C369  1  0.513600  0.355800  0.960000  1.0
  C  C370  1  0.486400  0.644200  0.040000  1.0
  C  C371  1  0.540600  0.713900  0.038600  1.0
  C  C372  1  0.459400  0.286100  0.961400  1.0
  C  C373  1  0.516500  0.705200  0.941300  1.0
  C  C374  1  0.483500  0.294800  0.058700  1.0
  C  C375  1  0.540200  0.365400  0.060300  1.0
  C  C376  1  0.459800  0.634600  0.939700  1.0
  C  C377  1  0.776600  0.777100  0.832600  1.0
  C  C378  1  0.223400  0.222900  0.167400  1.0
  C  C379  1  0.682500  0.718100  0.815900  1.0
  C  C380  1  0.317500  0.281900  0.184100  1.0
  C  C381  1  0.770000  0.841400  0.796700  1.0
  C  C382  1  0.230000  0.158600  0.203300  1.0
  C  C383  1  0.862200  0.883400  0.142000  1.0
  C  C384  1  0.137800  0.116600  0.858000  1.0
  C  C385  1  0.777400  0.851500  0.177700  1.0
  C  C386  1  0.222600  0.148500  0.822300  1.0
  C  C387  1  0.886600  0.967300  0.152600  1.0
  C  C388  1  0.113400  0.032700  0.847400  1.0
  N  N389  1  0.606600  0.309900  0.483800  1.0
  N  N390  1  0.393400  0.690100  0.516200  1.0
  N  N391  1  0.538400  0.337700  0.380500  1.0
  N  N392  1  0.461600  0.662300  0.619500  1.0
  N  N393  1  0.475200  0.149900  0.525500  1.0
  N  N394  1  0.524800  0.850100  0.474500  1.0
  N  N395  1  0.437200  0.150700  0.414400  1.0
  N  N396  1  0.562800  0.849300  0.585600  1.0
  N  N397  1  0.057500  0.398500  0.578600  1.0
  N  N398  1  0.942500  0.601500  0.421400  1.0
  N  N399  1  0.986200  0.390700  0.470000  1.0
  N  N400  1  0.013800  0.609300  0.530000  1.0
  N  N401  1  0.064100  0.245200  0.518700  1.0
  N  N402  1  0.935900  0.754800  0.481300  1.0
  N  N403  1  0.241500  0.102200  0.477100  1.0
  N  N404  1  0.758500  0.897800  0.522900  1.0
  N  N405  1  0.087400  0.812100  0.924300  1.0
  N  N406  1  0.912600  0.187900  0.075700  1.0
  N  N407  1  0.114900  0.817300  0.035300  1.0
  N  N408  1  0.885100  0.182700  0.964700  1.0
  N  N409  1  0.960100  0.642400  0.966500  1.0
  N  N410  1  0.039900  0.357600  0.033500  1.0
  N  N411  1  0.966300  0.667400  0.076100  1.0
  N  N412  1  0.033700  0.332600  0.923900  1.0
  N  N413  1  0.521200  0.899100  0.032500  1.0
  N  N414  1  0.478800  0.100900  0.967500  1.0
  N  N415  1  0.499100  0.881700  0.921600  1.0
  N  N416  1  0.500900  0.118300  0.078400  1.0
  N  N417  1  0.745300  0.605900  0.010500  1.0
  N  N418  1  0.254700  0.394100  0.989500  1.0
  N  N419  1  0.554300  0.744500  0.990400  1.0
  N  N420  1  0.445700  0.255500  0.009600  1.0
  Cl  Cl421  1  0.229270  0.543270  0.778860  1
  Cl  Cl422  1  0.770730  0.456730  0.221140  1
  Cl  Cl423  1  0.667420  0.484560  0.792290  1
  Cl  Cl424  1  0.332580  0.515440  0.207710  1
  Cl  Cl425  1  0.244060  0.954660  0.254480  1
  Cl  Cl426  1  0.755940  0.045340  0.745520  1
  Cl  Cl427  1  0.836400  0.086820  0.308220  1
  Cl  Cl428  1  0.163600  0.913180  0.691780  1
  O  O429  1  0.193700  0.479100  0.808100  1
  O  O430  1  0.806300  0.520900  0.191900  1
  O  O431  1  0.310700  0.588600  0.816800  1
  O  O432  1  0.689300  0.411400  0.183200  1
  O  O433  1  0.268500  0.520000  0.728700  1
  O  O434  1  0.731500  0.480000  0.271300  1
  O  O435  1  0.143700  0.583500  0.764800  1
  O  O436  1  0.856300  0.416500  0.235200  1
  O  O437  1  0.596900  0.532600  0.773100  1
  O  O438  1  0.403100  0.467400  0.226900  1
  O  O439  1  0.619300  0.426300  0.821800  1
  O  O440  1  0.380700  0.573700  0.178200  1
  O  O441  1  0.754300  0.524100  0.829500  1
  O  O442  1  0.245700  0.475900  0.170500  1
  O  O443  1  0.705700  0.451500  0.742600  1
  O  O444  1  0.294300  0.548500  0.257400  1
  O  O445  1  0.146100  0.945900  0.216800  1
  O  O446  1  0.853900  0.054100  0.783200  1
  O  O447  1  0.263700  0.884300  0.271900  1
  O  O448  1  0.736300  0.115700  0.728100  1
  O  O449  1  0.326300  0.985100  0.223800  1
  O  O450  1  0.673700  0.014900  0.776200  1
  O  O451  1  0.236000  0.001800  0.303400  1
  O  O452  1  0.764000  0.998200  0.696600  1
  O  O453  1  0.746200  0.050400  0.276600  1
  O  O454  1  0.253800  0.949600  0.723400  1
  O  O455  1  0.896800  0.106500  0.261400  1
  O  O456  1  0.103200  0.893500  0.738600  1
  O  O457  1  0.897800  0.037800  0.335400  1
  O  O458  1  0.102200  0.962200  0.664600  1
  O  O459  1  0.812200  0.132800  0.351500  1
  O  O460  1  0.187800  0.867200  0.648500  1
  O  O461  1  0.150300  0.000400  0.102100  1
  O  O462  1  0.849700  0.999600  0.897900  1
  O  O463  1  0.142000  0.759400  0.312900  1
  O  O464  1  0.858000  0.240600  0.687100  1
  O  O465  1  0.980000  0.914500  0.293400  1
  O  O466  1  0.020000  0.085500  0.706600  1
  O  O467  1  0.235000  0.331300  0.789000  1
  O  O468  1  0.765000  0.668700  0.211000  1
  O  O469  1  0.073700  0.239800  0.715300  1
  O  O470  1  0.926300  0.760200  0.284700  1
  O  O471  1  0.450500  0.307100  0.817300  1
  O  O472  1  0.549500  0.692900  0.182700  1
  O  O473  1  0.674700  0.304600  0.699500  1
  O  O474  1  0.325300  0.695400  0.300500  1
  O  O475  1  0.341300  0.525000  0.415900  1
  O  O476  1  0.658700  0.475000  0.584100  1
  O  O477  1  0.446800  0.795700  0.237200  1
  O  O478  1  0.553200  0.204300  0.762800  1
  O  O479  1  0.745100  0.035200  0.281900  1
  O  O480  1  0.254900  0.964800  0.718100  1
  O  O481  1  0.894600  0.128000  0.272200  1
  O  O482  1  0.105400  0.872000  0.727800  1
  O  O483  1  0.337400  0.254700  0.540900  1.0
  O  O484  1  0.662600  0.745300  0.459100  1.0
  O  O485  1  0.442600  0.378800  0.530200  1.0
  O  O486  1  0.557400  0.621200  0.469800  1.0
  O  O487  1  0.257900  0.372000  0.556700  1.0
  O  O488  1  0.742100  0.628000  0.443300  1.0
  O  O489  1  0.167400  0.344000  0.436300  1.0
  O  O490  1  0.832600  0.656000  0.563700  1.0
  O  O491  1  0.286800  0.247600  0.417700  1.0
  O  O492  1  0.713200  0.752400  0.582300  1.0
  O  O493  1  0.351100  0.381200  0.413600  1.0
  O  O494  1  0.648900  0.618800  0.586400  1.0
  O  O495  1  0.585200  0.470400  0.468600  1.0
  O  O496  1  0.414800  0.529600  0.531400  1.0
  O  O497  1  0.892000  0.862200  0.919200  1.0
  O  O498  1  0.108000  0.137800  0.080800  1.0
  O  O499  1  0.810300  0.736000  0.939800  1.0
  O  O500  1  0.189700  0.264000  0.060200  1.0
  O  O501  1  0.694700  0.836600  0.919900  1.0
  O  O502  1  0.305300  0.163400  0.080100  1.0
  O  O503  1  0.927900  0.888500  0.040100  1.0
  O  O504  1  0.072100  0.111500  0.959900  1.0
  O  O505  1  0.732500  0.883100  0.045000  1.0
  O  O506  1  0.267500  0.116900  0.955000  1.0
  O  O507  1  0.822800  0.769500  0.062800  1.0
  O  O508  1  0.177200  0.230500  0.937200  1.0
  O  O509  1  0.104800  0.965900  0.986400  1.0
  O  O510  1  0.895200  0.034100  0.013600  1.0
