# generated using pymatgen
data_AgH18C24N4O2F3
_symmetry_space_group_name_H-M   'P 1'
_cell_length_a   10.21830000
_cell_length_b   10.50330000
_cell_length_c   20.10380000
_cell_angle_alpha   90.00000000
_cell_angle_beta   90.00000000
_cell_angle_gamma   90.14700000
_symmetry_Int_Tables_number   1
_chemical_formula_structural   AgH18C24N4O2F3
_chemical_formula_sum   'Ag4 H72 C96 N16 O8 F12'
_cell_volume   2157.65073178
_cell_formula_units_Z   4
loop_
 _symmetry_equiv_pos_site_id
 _symmetry_equiv_pos_as_xyz
  1  'x, y, z'
loop_
 _atom_site_type_symbol
 _atom_site_label
 _atom_site_symmetry_multiplicity
 _atom_site_fract_x
 _atom_site_fract_y
 _atom_site_fract_z
 _atom_site_occupancy
  Ag  Ag1  1  0.051879  0.562990  0.930656  1.0
  Ag  Ag2  1  0.051879  0.062990  0.569344  1.0
  Ag  Ag3  1  0.948121  0.437010  0.069344  1.0
  Ag  Ag4  1  0.948121  0.937010  0.430656  1.0
  H  H5  1  0.319700  0.423500  0.971500  1.0
  H  H6  1  0.319700  0.923500  0.528500  1.0
  H  H7  1  0.680300  0.576500  0.028500  1.0
  H  H8  1  0.680300  0.076500  0.471500  1.0
  H  H9  1  0.020900  0.397600  0.790400  1.0
  H  H10  1  0.020900  0.897600  0.709600  1.0
  H  H11  1  0.979100  0.602400  0.209600  1.0
  H  H12  1  0.979100  0.102400  0.290400  1.0
  H  H13  1  0.048000  0.242500  0.708600  1.0
  H  H14  1  0.048000  0.742500  0.791400  1.0
  H  H15  1  0.952000  0.757500  0.291400  1.0
  H  H16  1  0.952000  0.257500  0.208600  1.0
  H  H17  1  0.223700  0.106800  0.711400  1.0
  H  H18  1  0.223700  0.606800  0.788600  1.0
  H  H19  1  0.776300  0.893200  0.288600  1.0
  H  H20  1  0.776300  0.393200  0.211400  1.0
  H  H21  1  0.378900  0.115800  0.794500  1.0
  H  H22  1  0.378900  0.615800  0.705500  1.0
  H  H23  1  0.621100  0.884200  0.205500  1.0
  H  H24  1  0.621100  0.384200  0.294500  1.0
  H  H25  1  0.551900  0.282200  0.910400  1.0
  H  H26  1  0.551900  0.782200  0.589600  1.0
  H  H27  1  0.448100  0.717800  0.089600  1.0
  H  H28  1  0.448100  0.217800  0.410400  1.0
  H  H29  1  0.487100  0.147900  0.901900  1.0
  H  H30  1  0.487100  0.647900  0.598100  1.0
  H  H31  1  0.512900  0.852100  0.098100  1.0
  H  H32  1  0.512900  0.352100  0.401900  1.0
  H  H33  1  0.633400  0.333900  0.010300  1.0
  H  H34  1  0.633400  0.833900  0.489700  1.0
  H  H35  1  0.366600  0.666100  0.989700  1.0
  H  H36  1  0.366600  0.166100  0.510300  1.0
  H  H37  1  0.662600  0.302600  0.122600  1.0
  H  H38  1  0.662600  0.802600  0.377400  1.0
  H  H39  1  0.337400  0.697400  0.877400  1.0
  H  H40  1  0.337400  0.197400  0.622600  1.0
  H  H41  1  0.531600  0.160300  0.179200  1.0
  H  H42  1  0.531600  0.660300  0.320800  1.0
  H  H43  1  0.468400  0.839700  0.820800  1.0
  H  H44  1  0.468400  0.339700  0.679200  1.0
  H  H45  1  0.369800  0.051500  0.123400  1.0
  H  H46  1  0.369800  0.551500  0.376600  1.0
  H  H47  1  0.630200  0.948500  0.876600  1.0
  H  H48  1  0.630200  0.448500  0.623400  1.0
  H  H49  1  0.321900  0.031000  0.953600  1.0
  H  H50  1  0.321900  0.531000  0.546400  1.0
  H  H51  1  0.678100  0.969000  0.046400  1.0
  H  H52  1  0.678100  0.469000  0.453600  1.0
  H  H53  1  0.281300  0.972000  0.022200  1.0
  H  H54  1  0.281300  0.472000  0.477800  1.0
  H  H55  1  0.718700  0.028000  0.977800  1.0
  H  H56  1  0.718700  0.528000  0.522200  1.0
  H  H57  1  0.811600  0.754300  0.925200  1.0
  H  H58  1  0.811600  0.254300  0.574800  1.0
  H  H59  1  0.188400  0.245700  0.074800  1.0
  H  H60  1  0.188400  0.745700  0.425200  1.0
  H  H61  1  0.119500  0.967600  0.886700  1.0
  H  H62  1  0.119500  0.467600  0.613300  1.0
  H  H63  1  0.880500  0.032400  0.113300  1.0
  H  H64  1  0.880500  0.532400  0.386700  1.0
  H  H65  1  0.935300  0.000400  0.820500  1.0
  H  H66  1  0.935300  0.500400  0.679500  1.0
  H  H67  1  0.064700  0.999600  0.179500  1.0
  H  H68  1  0.064700  0.499600  0.320500  1.0
  H  H69  1  0.789100  0.160300  0.843400  1.0
  H  H70  1  0.789100  0.660300  0.656600  1.0
  H  H71  1  0.210900  0.839700  0.156600  1.0
  H  H72  1  0.210900  0.339700  0.343400  1.0
  H  H73  1  0.815900  0.292400  0.934600  1.0
  H  H74  1  0.815900  0.792400  0.565400  1.0
  H  H75  1  0.184100  0.707600  0.065400  1.0
  H  H76  1  0.184100  0.207600  0.434600  1.0
  C  C77  1  0.292800  0.387000  0.931610  1.0
  C  C78  1  0.292800  0.887000  0.568390  1.0
  C  C79  1  0.707200  0.613000  0.068390  1.0
  C  C80  1  0.707200  0.113000  0.431610  1.0
  C  C81  1  0.182800  0.346700  0.842010  1.0
  C  C82  1  0.182800  0.846700  0.657990  1.0
  C  C83  1  0.817200  0.653300  0.157990  1.0
  C  C84  1  0.817200  0.153300  0.342010  1.0
  C  C85  1  0.091200  0.341600  0.791680  1.0
  C  C86  1  0.091200  0.841600  0.708320  1.0
  C  C87  1  0.908800  0.658400  0.208320  1.0
  C  C88  1  0.908800  0.158400  0.291680  1.0
  C  C89  1  0.108500  0.249400  0.743020  1.0
  C  C90  1  0.108500  0.749400  0.756980  1.0
  C  C91  1  0.891500  0.750600  0.256980  1.0
  C  C92  1  0.891500  0.250600  0.243020  1.0
  C  C93  1  0.215100  0.167100  0.744980  1.0
  C  C94  1  0.215100  0.667100  0.755020  1.0
  C  C95  1  0.784900  0.832900  0.255020  1.0
  C  C96  1  0.784900  0.332900  0.244980  1.0
  C  C97  1  0.307800  0.170800  0.794050  1.0
  C  C98  1  0.307800  0.670800  0.705950  1.0
  C  C99  1  0.692200  0.829200  0.205950  1.0
  C  C100  1  0.692200  0.329200  0.294050  1.0
  C  C101  1  0.288900  0.262700  0.843610  1.0
  C  C102  1  0.288900  0.762700  0.656390  1.0
  C  C103  1  0.711100  0.737300  0.156390  1.0
  C  C104  1  0.711100  0.237300  0.343610  1.0
  C  C105  1  0.478400  0.229600  0.923900  1.0
  C  C106  1  0.478400  0.729600  0.576100  1.0
  C  C107  1  0.521600  0.770400  0.076100  1.0
  C  C108  1  0.521600  0.270400  0.423900  1.0
  C  C109  1  0.484800  0.209400  0.997990  1.0
  C  C110  1  0.484800  0.709400  0.502010  1.0
  C  C111  1  0.515200  0.790600  0.002010  1.0
  C  C112  1  0.515200  0.290600  0.497990  1.0
  C  C113  1  0.580400  0.276000  0.032790  1.0
  C  C114  1  0.580400  0.776000  0.467210  1.0
  C  C115  1  0.419600  0.724000  0.967210  1.0
  C  C116  1  0.419600  0.224000  0.532790  1.0
  C  C117  1  0.597800  0.257700  0.100060  1.0
  C  C118  1  0.597800  0.757700  0.399940  1.0
  C  C119  1  0.402200  0.742300  0.899940  1.0
  C  C120  1  0.402200  0.242300  0.600060  1.0
  C  C121  1  0.519600  0.173300  0.133830  1.0
  C  C122  1  0.519600  0.673300  0.366170  1.0
  C  C123  1  0.480400  0.826700  0.866170  1.0
  C  C124  1  0.480400  0.326700  0.633830  1.0
  C  C125  1  0.423300  0.107800  0.100200  1.0
  C  C126  1  0.423300  0.607800  0.399800  1.0
  C  C127  1  0.576700  0.892200  0.899800  1.0
  C  C128  1  0.576700  0.392200  0.600200  1.0
  C  C129  1  0.404500  0.124300  0.032300  1.0
  C  C130  1  0.404500  0.624300  0.467700  1.0
  C  C131  1  0.595500  0.875700  0.967700  1.0
  C  C132  1  0.595500  0.375700  0.532300  1.0
  C  C133  1  0.296000  0.051400  0.998720  1.0
  C  C134  1  0.296000  0.551400  0.501280  1.0
  C  C135  1  0.704000  0.948600  0.001280  1.0
  C  C136  1  0.704000  0.448600  0.498720  1.0
  C  C137  1  0.861600  0.780300  0.961420  1.0
  C  C138  1  0.861600  0.280300  0.538580  1.0
  C  C139  1  0.138400  0.219700  0.038580  1.0
  C  C140  1  0.138400  0.719700  0.461420  1.0
  C  C141  1  0.075300  0.112600  0.950400  1.0
  C  C142  1  0.075300  0.612600  0.549600  1.0
  C  C143  1  0.924700  0.887400  0.049600  1.0
  C  C144  1  0.924700  0.387400  0.450400  1.0
  C  C145  1  0.059800  0.031800  0.896210  1.0
  C  C146  1  0.059800  0.531800  0.603790  1.0
  C  C147  1  0.940200  0.968200  0.103790  1.0
  C  C148  1  0.940200  0.468200  0.396210  1.0
  C  C149  1  0.949900  0.052400  0.857210  1.0
  C  C150  1  0.949900  0.552400  0.642790  1.0
  C  C151  1  0.050100  0.947600  0.142790  1.0
  C  C152  1  0.050100  0.447600  0.357210  1.0
  C  C153  1  0.860600  0.149000  0.871360  1.0
  C  C154  1  0.860600  0.649000  0.628640  1.0
  C  C155  1  0.139400  0.851000  0.128640  1.0
  C  C156  1  0.139400  0.351000  0.371360  1.0
  C  C157  1  0.875500  0.227900  0.925550  1.0
  C  C158  1  0.875500  0.727900  0.574450  1.0
  C  C159  1  0.124500  0.772100  0.074450  1.0
  C  C160  1  0.124500  0.272100  0.425550  1.0
  C  C161  1  0.016200  0.793300  0.033860  1.0
  C  C162  1  0.016200  0.293300  0.466140  1.0
  C  C163  1  0.983800  0.206700  0.966140  1.0
  C  C164  1  0.983800  0.706700  0.533860  1.0
  C  C165  1  0.749600  0.521900  0.863960  1.0
  C  C166  1  0.749600  0.021900  0.636040  1.0
  C  C167  1  0.250400  0.478100  0.136040  1.0
  C  C168  1  0.250400  0.978100  0.363960  1.0
  C  C169  1  0.661800  0.498600  0.803110  1.0
  C  C170  1  0.661800  0.998600  0.696890  1.0
  C  C171  1  0.338200  0.501400  0.196890  1.0
  C  C172  1  0.338200  0.001400  0.303110  1.0
  N  N173  1  0.188360  0.423890  0.898200  1.0
  N  N174  1  0.188360  0.923890  0.601800  1.0
  N  N175  1  0.811640  0.576110  0.101800  1.0
  N  N176  1  0.811640  0.076110  0.398200  1.0
  N  N177  1  0.356510  0.290240  0.901370  1.0
  N  N178  1  0.356510  0.790240  0.598630  1.0
  N  N179  1  0.643490  0.709760  0.098630  1.0
  N  N180  1  0.643490  0.209760  0.401370  1.0
  N  N181  1  0.974280  0.728040  0.977750  1.0
  N  N182  1  0.974280  0.228040  0.522250  1.0
  N  N183  1  0.025720  0.271960  0.022250  1.0
  N  N184  1  0.025720  0.771960  0.477750  1.0
  N  N185  1  0.173710  0.124760  0.997290  1.0
  N  N186  1  0.173710  0.624760  0.502710  1.0
  N  N187  1  0.826290  0.875240  0.002710  1.0
  N  N188  1  0.826290  0.375240  0.497290  1.0
  O  O189  1  0.859500  0.560400  0.848990  1.0
  O  O190  1  0.859500  0.060400  0.651010  1.0
  O  O191  1  0.140500  0.439600  0.151010  1.0
  O  O192  1  0.140500  0.939600  0.348990  1.0
  O  O193  1  0.699100  0.500200  0.917850  1.0
  O  O194  1  0.699100  0.000200  0.582150  1.0
  O  O195  1  0.300900  0.499800  0.082150  1.0
  O  O196  1  0.300900  0.999800  0.417850  1.0
  F  F197  1  0.651300  0.594800  0.763460  1.0
  F  F198  1  0.651300  0.094800  0.736540  1.0
  F  F199  1  0.348700  0.405200  0.236540  1.0
  F  F200  1  0.348700  0.905200  0.263460  1.0
  F  F201  1  0.708700  0.412500  0.765230  1.0
  F  F202  1  0.708700  0.912500  0.734770  1.0
  F  F203  1  0.291300  0.587500  0.234770  1.0
  F  F204  1  0.291300  0.087500  0.265230  1.0
  F  F205  1  0.541100  0.469700  0.816590  1.0
  F  F206  1  0.541100  0.969700  0.683410  1.0
  F  F207  1  0.458900  0.530300  0.183410  1.0
  F  F208  1  0.458900  0.030300  0.316590  1.0
