# generated using pymatgen
data_Ag2H60C70S2N12(O4F3)3
_symmetry_space_group_name_H-M   'P 1'
_cell_length_a   13.81800000
_cell_length_b   17.59400000
_cell_length_c   18.13900000
_cell_angle_alpha   102.55200000
_cell_angle_beta   109.42400000
_cell_angle_gamma   111.24200000
_symmetry_Int_Tables_number   1
_chemical_formula_structural   Ag2H60C70S2N12(O4F3)3
_chemical_formula_sum   'Ag4 H120 C140 S4 N24 O24 F18'
_cell_volume   3578.60533710
_cell_formula_units_Z   2
loop_
 _symmetry_equiv_pos_site_id
 _symmetry_equiv_pos_as_xyz
  1  'x, y, z'
loop_
 _atom_site_type_symbol
 _atom_site_label
 _atom_site_symmetry_multiplicity
 _atom_site_fract_x
 _atom_site_fract_y
 _atom_site_fract_z
 _atom_site_occupancy
  Ag  Ag1  1  0.757840  0.558680  0.747080  1
  Ag  Ag2  1  0.242160  0.441320  0.252920  1
  Ag  Ag3  1  0.956430  0.544980  0.905420  1
  Ag  Ag4  1  0.043570  0.455020  0.094580  1
  H  H5  1  0.647300  0.576700  0.868700  1
  H  H6  1  0.352700  0.423300  0.131300  1
  H  H7  1  0.526200  0.550800  0.931500  1
  H  H8  1  0.473800  0.449200  0.068500  1
  H  H9  1  0.404100  0.412000  0.909700  1
  H  H10  1  0.595900  0.588000  0.090300  1
  H  H11  1  0.388200  0.289400  0.819100  1
  H  H12  1  0.611800  0.710600  0.180900  1
  H  H13  1  0.639400  0.337800  0.681800  1
  H  H14  1  0.360600  0.662200  0.318200  1
  H  H15  1  0.437900  0.188100  0.737400  1
  H  H16  1  0.562100  0.811900  0.262600  1
  H  H17  1  0.413800  0.185000  0.645800  1
  H  H18  1  0.586200  0.815000  0.354200  1
  H  H19  1  0.499600  0.132400  0.578400  1
  H  H20  1  0.500400  0.867600  0.421600  1
  H  H21  1  0.626500  0.071700  0.575100  1
  H  H22  1  0.373500  0.928300  0.424900  1
  H  H23  1  0.748900  0.076800  0.698700  1
  H  H24  1  0.251100  0.923200  0.301300  1
  H  H25  1  0.751900  0.137800  0.822800  1
  H  H26  1  0.248100  0.862200  0.177200  1
  H  H27  1  0.560600  0.198800  0.853500  1
  H  H28  1  0.439400  0.801200  0.146500  1
  H  H29  1  0.667500  0.184100  0.896700  1
  H  H30  1  0.332500  0.815900  0.103300  1
  H  H31  1  0.806600  0.330800  0.833200  1
  H  H32  1  0.193400  0.669200  0.166800  1
  H  H33  1  0.604600  0.299800  0.007000  1
  H  H34  1  0.395400  0.700200  0.993000  1
  H  H35  1  0.650200  0.420500  0.114800  1
  H  H36  1  0.349800  0.579500  0.885200  1
  H  H37  1  0.794000  0.557200  0.144700  1
  H  H38  1  0.206000  0.442800  0.855300  1
  H  H39  1  0.892100  0.576500  0.062200  1
  H  H40  1  0.107900  0.423500  0.937800  1
  H  H41  1  0.746900  0.746300  0.806700  1
  H  H42  1  0.253100  0.253700  0.193300  1
  H  H43  1  0.776800  0.889700  0.830100  1
  H  H44  1  0.223200  0.110300  0.169900  1
  H  H45  1  0.913000  0.986100  0.806300  1
  H  H46  1  0.087000  0.013900  0.193700  1
  H  H47  1  0.030500  0.945500  0.759600  1
  H  H48  1  0.969500  0.054500  0.240400  1
  H  H49  1  0.969600  0.645600  0.703100  1
  H  H50  1  0.030400  0.354400  0.296900  1
  H  H51  1  0.157000  0.870900  0.744200  1
  H  H52  1  0.843000  0.129100  0.255800  1
  H  H53  1  0.074000  0.810600  0.648100  1
  H  H54  1  0.926000  0.189400  0.351900  1
  H  H55  1  0.102000  0.698900  0.581300  1
  H  H56  1  0.898000  0.301100  0.418700  1
  H  H57  1  0.199700  0.613700  0.585300  1
  H  H58  1  0.800300  0.386300  0.414700  1
  H  H59  1  0.333500  0.630400  0.708000  1
  H  H60  1  0.666500  0.369600  0.292000  1
  H  H61  1  0.362800  0.723100  0.833700  1
  H  H62  1  0.637200  0.276900  0.166300  1
  H  H63  1  0.348500  0.842500  0.910600  1
  H  H64  1  0.651500  0.157500  0.089400  1
  H  H65  1  0.266000  0.877100  0.864500  1
  H  H66  1  0.734000  0.122900  0.135500  1
  H  H67  1  0.150100  0.651700  0.851100  1
  H  H68  1  0.849900  0.348300  0.148900  1
  H  H69  1  0.208900  0.948300  0.963400  1
  H  H70  1  0.791100  0.051700  0.036600  1
  H  H71  1  0.106200  0.973100  0.034800  1
  H  H72  1  0.893800  0.026900  0.965200  1
  H  H73  1  0.981400  0.862000  0.054700  1
  H  H74  1  0.018600  0.138000  0.945300  1
  H  H75  1  0.955400  0.720100  0.007200  1
  H  H76  1  0.044600  0.279900  0.992800  1
  H  H77  1  0.394300  0.457900  0.703500  1
  H  H78  1  0.605700  0.542100  0.296500  1
  H  H79  1  0.198700  0.381900  0.615200  1
  H  H80  1  0.801300  0.618100  0.384800  1
  H  H81  1  0.121300  0.391400  0.487800  1
  H  H82  1  0.878700  0.608600  0.512200  1
  H  H83  1  0.235200  0.486600  0.445900  1
  H  H84  1  0.764800  0.513400  0.554100  1
  H  H85  1  0.648400  0.650200  0.625000  1
  H  H86  1  0.351600  0.349800  0.375000  1
  H  H87  1  0.394200  0.609900  0.445700  1
  H  H88  1  0.605800  0.390100  0.554300  1
  H  H89  1  0.491500  0.587400  0.438400  1
  H  H90  1  0.508500  0.412600  0.561600  1
  H  H91  1  0.669500  0.704300  0.468800  1
  H  H92  1  0.330500  0.295700  0.531200  1
  H  H93  1  0.800300  0.849900  0.522000  1
  H  H94  1  0.199700  0.150100  0.478000  1
  H  H95  1  0.771100  0.953200  0.600200  1
  H  H96  1  0.228900  0.046800  0.399800  1
  H  H97  1  0.604800  0.909300  0.621100  1
  H  H98  1  0.395200  0.090700  0.378900  1
  H  H99  1  0.364700  0.706700  0.517600  1
  H  H100  1  0.635300  0.293300  0.482400  1
  H  H101  1  0.440800  0.720400  0.610100  1
  H  H102  1  0.559200  0.279600  0.389900  1
  H  H103  1  0.288600  0.814100  0.499300  1
  H  H104  1  0.711400  0.185900  0.500700  1
  H  H105  1  0.563200  0.842300  0.762100  1
  H  H106  1  0.436800  0.157700  0.237900  1
  H  H107  1  0.596600  0.942200  0.887200  1
  H  H108  1  0.403400  0.057800  0.112800  1
  H  H109  1  0.502200  0.022700  0.885400  1
  H  H110  1  0.497800  0.977300  0.114600  1
  H  H111  1  0.371600  0.012900  0.761300  1
  H  H112  1  0.628400  0.987100  0.238700  1
  H  H113  1  0.948700  0.095600  0.578600  1
  H  H114  1  0.051300  0.904400  0.421400  1
  H  H115  1  0.902800  0.060600  0.639100  1
  H  H116  1  0.097200  0.939400  0.360900  1
  H  H117  1  0.029700  0.082500  0.653300  1
  H  H118  1  0.970300  0.917500  0.346700  1
  H  H119  1  0.077400  0.217600  0.682800  1
  H  H120  1  0.922600  0.782400  0.317200  1
  H  H121  1  0.950000  0.198500  0.661600  1
  H  H122  1  0.050000  0.801500  0.338400  1
  H  H123  1  0.046300  0.250000  0.780700  1
  H  H124  1  0.953700  0.750000  0.219300  1
  C  C125  1  0.589800  0.446800  0.804400  1
  C  C126  1  0.410200  0.553200  0.195600  1
  C  C127  1  0.596200  0.519400  0.858400  1
  C  C128  1  0.403800  0.480600  0.141600  1
  C  C129  1  0.524600  0.503300  0.895500  1
  C  C130  1  0.475400  0.496700  0.104500  1
  C  C131  1  0.450200  0.419300  0.881700  1
  C  C132  1  0.549800  0.580700  0.118300  1
  C  C133  1  0.440300  0.346300  0.829100  1
  C  C134  1  0.559700  0.653700  0.170900  1
  C  C135  1  0.514300  0.362800  0.790900  1
  C  C136  1  0.485700  0.637200  0.209100  1
  C  C137  1  0.613000  0.359300  0.718200  1
  C  C138  1  0.387000  0.640700  0.281800  1
  C  C139  1  0.474600  0.208000  0.703200  1
  C  C140  1  0.525400  0.792000  0.296800  1
  C  C141  1  0.554500  0.170800  0.702600  1
  C  C142  1  0.445500  0.829200  0.297400  1
  C  C143  1  0.551000  0.133900  0.628000  1
  C  C144  1  0.449000  0.866100  0.372000  1
  C  C145  1  0.626700  0.097300  0.625800  1
  C  C146  1  0.373300  0.902700  0.374200  1
  C  C147  1  0.699000  0.100600  0.699400  1
  C  C148  1  0.301000  0.899400  0.300600  1
  C  C149  1  0.701300  0.136900  0.773200  1
  C  C150  1  0.298700  0.863100  0.226800  1
  C  C151  1  0.630400  0.171800  0.775400  1
  C  C152  1  0.369600  0.828200  0.224600  1
  C  C153  1  0.638000  0.211400  0.860000  1
  C  C154  1  0.362000  0.788600  0.140000  1
  C  C155  1  0.793200  0.355100  0.877300  1
  C  C156  1  0.206800  0.644900  0.122700  1
  C  C157  1  0.719300  0.366600  0.968000  1
  C  C158  1  0.280700  0.633400  0.032000  1
  C  C159  1  0.661200  0.355300  0.017900  1
  C  C160  1  0.338800  0.644700  0.982100  1
  C  C161  1  0.689100  0.426400  0.081600  1
  C  C162  1  0.310900  0.573600  0.918400  1
  C  C163  1  0.775200  0.508800  0.099200  1
  C  C164  1  0.224800  0.491200  0.900800  1
  C  C165  1  0.834300  0.520900  0.050000  1
  C  C166  1  0.165700  0.479100  0.950000  1
  C  C167  1  0.805000  0.449200  0.984000  1
  C  C168  1  0.195000  0.550800  0.016000  1
  C  C169  1  0.869400  0.760200  0.766100  1
  C  C170  1  0.130600  0.239800  0.233900  1
  C  C171  1  0.802500  0.785100  0.796200  1
  C  C172  1  0.197500  0.214900  0.203800  1
  C  C173  1  0.821500  0.871000  0.810400  1
  C  C174  1  0.178500  0.129000  0.189600  1
  C  C175  1  0.903900  0.929200  0.796300  1
  C  C176  1  0.096100  0.070800  0.203700  1
  C  C177  1  0.973100  0.905700  0.767900  1
  C  C178  1  0.026900  0.094300  0.232100  1
  C  C179  1  0.952600  0.819100  0.752200  1
  C  C180  1  0.047400  0.180900  0.247800  1
  C  C181  1  0.951100  0.689900  0.720900  1
  C  C182  1  0.048900  0.310100  0.279100  1
  C  C183  1  0.104100  0.810300  0.704500  1
  C  C184  1  0.895900  0.189700  0.295500  1
  C  C185  1  0.169700  0.758200  0.708400  1
  C  C186  1  0.830300  0.241800  0.291600  1
  C  C187  1  0.152700  0.703200  0.632900  1
  C  C188  1  0.847300  0.296800  0.367100  1
  C  C189  1  0.214400  0.653400  0.635900  1
  C  C190  1  0.785600  0.346600  0.364100  1
  C  C191  1  0.291800  0.661700  0.707900  1
  C  C192  1  0.708200  0.338300  0.292100  1
  C  C193  1  0.309400  0.717600  0.782800  1
  C  C194  1  0.690600  0.282400  0.217200  1
  C  C195  1  0.249000  0.766500  0.784200  1
  C  C196  1  0.751000  0.233500  0.215800  1
  C  C197  1  0.270600  0.824400  0.868600  1
  C  C198  1  0.729400  0.175600  0.131400  1
  C  C199  1  0.135400  0.692300  0.881600  1
  C  C200  1  0.864600  0.307700  0.118400  1
  C  C201  1  0.141000  0.816400  0.942200  1
  C  C202  1  0.859000  0.183600  0.057800  1
  C  C203  1  0.158500  0.903000  0.971800  1
  C  C204  1  0.841500  0.097000  0.028200  1
  C  C205  1  0.097200  0.916600  0.013800  1
  C  C206  1  0.902800  0.083400  0.986200  1
  C  C207  1  0.021900  0.849400  0.026200  1
  C  C208  1  0.978100  0.150600  0.973800  1
  C  C209  1  0.005300  0.764700  0.997700  1
  C  C210  1  0.994700  0.235300  0.002300  1
  C  C211  1  0.065800  0.748400  0.954300  1
  C  C212  1  0.934200  0.251600  0.045700  1
  C  C213  1  0.434900  0.519700  0.626900  1
  C  C214  1  0.565100  0.480300  0.373100  1
  C  C215  1  0.363800  0.464000  0.652400  1
  C  C216  1  0.636200  0.536000  0.347600  1
  C  C217  1  0.248200  0.418900  0.599200  1
  C  C218  1  0.751800  0.581100  0.400800  1
  C  C219  1  0.200900  0.425500  0.522800  1
  C  C220  1  0.799100  0.574500  0.477200  1
  C  C221  1  0.267800  0.480700  0.496800  1
  C  C222  1  0.732200  0.519300  0.503200  1
  C  C223  1  0.387900  0.528300  0.550400  1
  C  C224  1  0.612100  0.471700  0.449600  1
  C  C225  1  0.574300  0.610900  0.614600  1
  C  C226  1  0.425700  0.389100  0.385400  1
  C  C227  1  0.472900  0.620100  0.477100  1
  C  C228  1  0.527100  0.379900  0.522900  1
  C  C229  1  0.556000  0.717000  0.510800  1
  C  C230  1  0.444000  0.283000  0.489200  1
  C  C231  1  0.656200  0.745900  0.499300  1
  C  C232  1  0.343800  0.254100  0.500700  1
  C  C233  1  0.734800  0.832400  0.531300  1
  C  C234  1  0.265200  0.167600  0.468700  1
  C  C235  1  0.716900  0.893700  0.577200  1
  C  C236  1  0.283100  0.106300  0.422800  1
  C  C237  1  0.617000  0.867300  0.590000  1
  C  C238  1  0.383000  0.132700  0.410000  1
  C  C239  1  0.537700  0.779900  0.556600  1
  C  C240  1  0.462300  0.220100  0.443400  1
  C  C241  1  0.431200  0.750000  0.570900  1
  C  C242  1  0.568800  0.250000  0.429100  1
  C  C243  1  0.328900  0.840300  0.558000  1
  C  C244  1  0.671100  0.159700  0.442000  1
  C  C245  1  0.447000  0.871000  0.686900  1
  C  C246  1  0.553000  0.129000  0.313100  1
  C  C247  1  0.525200  0.876400  0.761500  1
  C  C248  1  0.474800  0.123600  0.238500  1
  C  C249  1  0.543800  0.935800  0.835400  1
  C  C250  1  0.456200  0.064200  0.164600  1
  C  C251  1  0.487600  0.984300  0.834200  1
  C  C252  1  0.512400  0.015700  0.165800  1
  C  C253  1  0.410300  0.979200  0.760900  1
  C  C254  1  0.589700  0.020800  0.239100  1
  C  C255  1  0.391300  0.921800  0.685500  1
  C  C256  1  0.608700  0.078200  0.314500  1
  C  C257  1  0.303800  0.180600  0.974100  1
  C  C258  1  0.696200  0.819400  0.025900  1
  C  C259  1  0.986000  0.416900  0.648000  1
  C  C260  1  0.014000  0.583100  0.352000  1
  C  C261  1  0.969800  0.099500  0.635900  1
  C  C262  1  0.030200  0.900500  0.364100  1
  C  C263  1  0.008000  0.181000  0.686000  1
  C  C264  1  0.992000  0.819000  0.314000  1
  S  S265  1  0.353420  0.121360  0.919860  1
  S  S266  1  0.646580  0.878640  0.080140  1
  S  S267  1  0.886050  0.415980  0.689630  1
  S  S268  1  0.113950  0.584020  0.310370  1
  N  N269  1  0.649200  0.443100  0.757500  1
  N  N270  1  0.350800  0.556900  0.242500  1
  N  N271  1  0.532300  0.307400  0.736800  1
  N  N272  1  0.467700  0.692600  0.263200  1
  N  N273  1  0.714700  0.308300  0.900400  1
  N  N274  1  0.285300  0.691700  0.099600  1
  N  N275  1  0.848500  0.440400  0.926200  1
  N  N276  1  0.151500  0.559600  0.073800  1
  N  N277  1  0.869100  0.678700  0.744700  1
  N  N278  1  0.130900  0.321300  0.255300  1
  N  N279  1  0.006000  0.773100  0.725100  1
  N  N280  1  0.994000  0.226900  0.274900  1
  N  N281  1  0.185300  0.778100  0.896300  1
  N  N282  1  0.814700  0.221900  0.103700  1
  N  N283  1  0.062900  0.671200  0.915100  1
  N  N284  1  0.937100  0.328800  0.084900  1
  N  N285  1  0.556200  0.574100  0.666800  1
  N  N286  1  0.443800  0.425900  0.333200  1
  N  N287  1  0.478700  0.588200  0.544500  1
  N  N288  1  0.521300  0.411800  0.455500  1
  N  N289  1  0.405300  0.818900  0.603600  1
  N  N290  1  0.594700  0.181100  0.396400  1
  N  N291  1  0.315600  0.901300  0.602900  1
  N  N292  1  0.684400  0.098700  0.397100  1
  O  O293  1  0.462400  0.142600  0.982500  1
  O  O294  1  0.537600  0.857400  0.017500  1
  O  O295  1  0.272100  0.033200  0.887700  1
  O  O296  1  0.727900  0.966800  0.112300  1
  O  O297  1  0.365800  0.157400  0.860000  1
  O  O298  1  0.634200  0.842600  0.140000  1
  O  O299  1  0.777400  0.340600  0.623500  1
  O  O300  1  0.222600  0.659400  0.376500  1
  O  O301  1  0.923700  0.413300  0.769400  1
  O  O302  1  0.076300  0.586700  0.230600  1
  O  O303  1  0.873400  0.492400  0.685300  1
  O  O304  1  0.126600  0.507600  0.314700  1
  O  O305  1  0.158100  0.063600  0.693000  1
  O  O306  1  0.841900  0.936400  0.307000  1
  O  O307  1  0.828300  0.023200  0.442300  1
  O  O308  1  0.171700  0.976800  0.557700  1
  O  O309  1  0.031400  0.198600  0.758900  1
  O  O310  1  0.968600  0.801400  0.241100  1
  O  O311  1  0.781200  0.392600  0.623600  1
  O  O312  1  0.218800  0.607400  0.376400  1
  O  O313  1  0.898300  0.360900  0.736100  1
  O  O314  1  0.101700  0.639100  0.263900  1
  O  O315  1  0.943700  0.506600  0.744100  1
  O  O316  1  0.056300  0.493400  0.255900  1
  F  F317  1  0.205200  0.169900  0.924600  1
  F  F318  1  0.794800  0.830100  0.075400  1
  F  F319  1  0.374400  0.262000  0.014700  1
  F  F320  1  0.625600  0.738000  0.985300  1
  F  F321  1  0.278700  0.151900  0.031000  1
  F  F322  1  0.721300  0.848100  0.969000  1
  F  F323  1  0.953500  0.335100  0.596500  1
  F  F324  1  0.046500  0.664900  0.403500  1
  F  F325  1  0.087900  0.438500  0.696800  1
  F  F326  1  0.912100  0.561500  0.303200  1
  F  F327  1  0.977000  0.459600  0.592100  1
  F  F328  1  0.023000  0.540400  0.407900  1
  F  F329  1  0.954200  0.395800  0.575000  1
  F  F330  1  0.045800  0.604200  0.425000  1
  F  F331  1  0.030500  0.362300  0.671400  1
  F  F332  1  0.969500  0.637700  0.328600  1
  F  F333  1  0.087800  0.490200  0.701600  1
  F  F334  1  0.912200  0.509800  0.298400  1
