# generated using pymatgen
data_P5H110Pt4C118N22(O2F3)10
_symmetry_space_group_name_H-M   'P 1'
_cell_length_a   13.51370000
_cell_length_b   13.85630000
_cell_length_c   21.01000000
_cell_angle_alpha   97.38400000
_cell_angle_beta   100.26100000
_cell_angle_gamma   116.07600000
_symmetry_Int_Tables_number   1
_chemical_formula_structural   P5H110Pt4C118N22(O2F3)10
_chemical_formula_sum   'P5 H110 Pt4 C118 N22 O20 F30'
_cell_volume   3380.62034365
_cell_formula_units_Z   1
loop_
 _symmetry_equiv_pos_site_id
 _symmetry_equiv_pos_as_xyz
  1  'x, y, z'
loop_
 _atom_site_type_symbol
 _atom_site_label
 _atom_site_symmetry_multiplicity
 _atom_site_fract_x
 _atom_site_fract_y
 _atom_site_fract_z
 _atom_site_occupancy
  P  P1  1  0.711800  0.009300  0.900800  1
  P  P2  1  0.288200  0.990700  0.099200  1
  P  P3  1  0.000000  0.500000  0.500000  1
  P  P4  1  0.329490  0.532130  0.927110  1
  P  P5  1  0.670510  0.467870  0.072890  1
  H  H6  1  0.585800  0.199100  0.755400  1
  H  H7  1  0.414200  0.800900  0.244600  1
  H  H8  1  0.615500  0.198400  0.832500  1
  H  H9  1  0.384500  0.801600  0.167500  1
  H  H10  1  0.501700  0.202600  0.799400  1
  H  H11  1  0.498300  0.797400  0.200600  1
  H  H12  1  0.644200  0.179200  0.399600  1
  H  H13  1  0.355800  0.820800  0.600400  1
  H  H14  1  0.678800  0.154200  0.332800  1
  H  H15  1  0.321200  0.845800  0.667200  1
  H  H16  1  0.773600  0.246200  0.396200  1
  H  H17  1  0.226400  0.753800  0.603800  1
  H  H18  1  0.606800  0.385900  0.869500  1
  H  H19  1  0.393200  0.614100  0.130500  1
  H  H20  1  0.510500  0.297700  0.896800  1
  H  H21  1  0.489500  0.702300  0.103200  1
  H  H22  1  0.525800  0.420100  0.903100  1
  H  H23  1  0.474200  0.579900  0.096900  1
  H  H24  1  0.493400  0.731100  0.803200  1
  H  H25  1  0.506600  0.268900  0.196800  1
  H  H26  1  0.379300  0.719300  0.821600  1
  H  H27  1  0.620700  0.280700  0.178400  1
  H  H28  1  0.415400  0.772300  0.760700  1
  H  H29  1  0.584600  0.227700  0.239300  1
  H  H30  1  0.174300  0.526900  0.044500  1
  H  H31  1  0.825700  0.473100  0.955500  1
  H  H32  1  0.214700  0.634300  0.014500  1
  H  H33  1  0.785300  0.365700  0.985500  1
  H  H34  1  0.150000  0.513800  0.965700  1
  H  H35  1  0.850000  0.486200  0.034300  1
  H  H36  1  0.905500  0.324500  0.283800  1.0
  H  H37  1  0.094500  0.675500  0.716200  1.0
  H  H38  1  0.822800  0.335500  0.178800  1.0
  H  H39  1  0.177200  0.664500  0.821200  1.0
  H  H40  1  0.778800  0.199300  0.084400  1.0
  H  H41  1  0.221200  0.800700  0.915600  1.0
  H  H42  1  0.805600  0.047100  0.094600  1.0
  H  H43  1  0.194400  0.952900  0.905400  1.0
  H  H44  1  0.057200  0.095900  0.469800  1.0
  H  H45  1  0.942800  0.904100  0.530200  1.0
  H  H46  1  0.076000  0.271800  0.474800  1.0
  H  H47  1  0.924000  0.728200  0.525200  1.0
  H  H48  1  0.994600  0.308700  0.378000  1.0
  H  H49  1  0.005400  0.691300  0.622000  1.0
  H  H50  1  0.783700  0.857500  0.324200  1.0
  H  H51  1  0.216300  0.142500  0.675800  1.0
  H  H52  1  0.728500  0.673400  0.336600  1.0
  H  H53  1  0.271500  0.326600  0.663400  1.0
  H  H54  1  0.869000  0.628300  0.383700  1.0
  H  H55  1  0.131000  0.371700  0.616300  1.0
  H  H56  1  0.058100  0.764300  0.427200  1.0
  H  H57  1  0.941900  0.235700  0.572800  1.0
  H  H58  1  0.113900  0.946500  0.419200  1.0
  H  H59  1  0.886100  0.053500  0.580800  1.0
  H  H60  1  0.143500  0.981000  0.255100  1.0
  H  H61  1  0.856500  0.019000  0.744900  1.0
  H  H62  1  0.229100  0.870000  0.271100  1.0
  H  H63  1  0.770900  0.130000  0.728900  1.0
  H  H64  1  0.908800  0.608500  0.226700  1.0
  H  H65  1  0.091200  0.391500  0.773300  1.0
  H  H66  1  0.835400  0.728600  0.211300  1.0
  H  H67  1  0.164600  0.271400  0.788700  1.0
  H  H68  1  0.025400  0.570800  0.323500  1.0
  H  H69  1  0.974600  0.429200  0.676500  1.0
  H  H70  1  0.112600  0.466300  0.350000  1.0
  H  H71  1  0.887400  0.533700  0.650000  1.0
  H  H72  1  0.331200  0.597100  0.243700  1.0
  H  H73  1  0.668800  0.402900  0.756300  1.0
  H  H74  1  0.251100  0.705100  0.216400  1.0
  H  H75  1  0.748900  0.294900  0.783600  1.0
  H  H76  1  0.345100  0.189200  0.476300  1.0
  H  H77  1  0.654900  0.810800  0.523700  1.0
  H  H78  1  0.375400  0.065300  0.404700  1.0
  H  H79  1  0.624600  0.934700  0.595300  1.0
  H  H80  1  0.384400  0.086800  0.298900  1.0
  H  H81  1  0.615600  0.913200  0.701100  1.0
  H  H82  1  0.348400  0.217700  0.257000  1.0
  H  H83  1  0.651600  0.782300  0.743000  1.0
  H  H84  1  0.386600  0.638200  0.557500  1.0
  H  H85  1  0.613400  0.361800  0.442500  1.0
  H  H86  1  0.349600  0.485200  0.604100  1.0
  H  H87  1  0.650400  0.514800  0.395900  1.0
  H  H88  1  0.322500  0.320600  0.538800  1.0
  H  H89  1  0.677500  0.679400  0.461200  1.0
  H  H90  1  0.498000  0.633000  0.380200  1.0
  H  H91  1  0.502000  0.367000  0.619800  1.0
  H  H92  1  0.558900  0.803000  0.349800  1.0
  H  H93  1  0.441100  0.197000  0.650200  1.0
  H  H94  1  0.490200  0.921100  0.381900  1.0
  H  H95  1  0.509800  0.078900  0.618100  1.0
  H  H96  1  0.352200  0.872600  0.441100  1.0
  H  H97  1  0.647800  0.127400  0.558900  1.0
  H  H98  1  0.295800  0.708500  0.477500  1.0
  H  H99  1  0.704200  0.291500  0.522500  1.0
  H  H100  1  0.413900  0.435800  0.210500  1.0
  H  H101  1  0.586100  0.564200  0.789500  1.0
  H  H102  1  0.373000  0.354100  0.099700  1.0
  H  H103  1  0.627000  0.645900  0.900300  1.0
  H  H104  1  0.042200  0.177400  0.098500  1.0
  H  H105  1  0.957800  0.822600  0.901500  1.0
  H  H106  1  0.095600  0.253300  0.213600  1.0
  H  H107  1  0.904400  0.746700  0.786400  1.0
  H  H108  1  0.338900  0.261800  0.005300  1.0
  H  H109  1  0.661100  0.738200  0.994700  1.0
  H  H110  1  0.289300  0.174200  0.894700  1.0
  H  H111  1  0.710700  0.825800  0.105300  1.0
  H  H112  1  0.038900  0.961500  0.113300  1.0
  H  H113  1  0.961100  0.038500  0.886700  1.0
  H  H114  1  0.001400  0.125900  0.996700  1.0
  H  H115  1  0.998600  0.874100  0.003300  1.0
  Pt  Pt116  1  0.915363  0.976333  0.216616  1.0
  Pt  Pt117  1  0.084637  0.023667  0.783384  1.0
  Pt  Pt118  1  0.298615  0.410962  0.321979  1.0
  Pt  Pt119  1  0.701385  0.589038  0.678021  1.0
  C  C120  1  0.553600  0.173100  0.792000  1
  C  C121  1  0.446400  0.826900  0.208000  1
  C  C122  1  0.704300  0.174400  0.381500  1
  C  C123  1  0.295700  0.825600  0.618500  1
  C  C124  1  0.529500  0.359900  0.875200  1
  C  C125  1  0.470500  0.640100  0.124800  1
  C  C126  1  0.414800  0.716400  0.785100  1
  C  C127  1  0.585200  0.283600  0.214900  1
  C  C128  1  0.155200  0.558000  0.007700  1
  C  C129  1  0.844800  0.442000  0.992300  1
  C  C130  1  0.868700  0.091200  0.195100  1.0
  C  C131  1  0.131300  0.908800  0.804900  1.0
  C  C132  1  0.900800  0.177000  0.251500  1.0
  C  C133  1  0.099200  0.823000  0.748500  1.0
  C  C134  1  0.884400  0.267700  0.245600  1.0
  C  C135  1  0.115600  0.732300  0.754400  1.0
  C  C136  1  0.836600  0.274800  0.183200  1.0
  C  C137  1  0.163400  0.725200  0.816800  1.0
  C  C138  1  0.808900  0.192800  0.127200  1.0
  C  C139  1  0.191100  0.807200  0.872800  1.0
  C  C140  1  0.824900  0.102300  0.133300  1.0
  C  C141  1  0.175100  0.897700  0.866700  1.0
  C  C142  1  0.952000  0.162000  0.316200  1.0
  C  C143  1  0.048000  0.838000  0.683800  1.0
  C  C144  1  0.983800  0.036700  0.370300  1.0
  C  C145  1  0.016200  0.963300  0.629700  1.0
  C  C146  1  0.031000  0.114500  0.430600  1.0
  C  C147  1  0.969000  0.885500  0.569400  1.0
  C  C148  1  0.040100  0.217300  0.434100  1.0
  C  C149  1  0.959900  0.782700  0.565900  1.0
  C  C150  1  0.995400  0.240200  0.376300  1.0
  C  C151  1  0.004600  0.759800  0.623700  1.0
  C  C152  1  0.953300  0.919400  0.370600  1.0
  C  C153  1  0.046700  0.080600  0.629400  1.0
  C  C154  1  0.838900  0.838900  0.345400  1.0
  C  C155  1  0.161100  0.161100  0.654600  1.0
  C  C156  1  0.806200  0.728600  0.351900  1.0
  C  C157  1  0.193800  0.271400  0.648100  1.0
  C  C158  1  0.889900  0.702500  0.381100  1.0
  C  C159  1  0.110100  0.297500  0.618900  1.0
  C  C160  1  0.002900  0.783300  0.406400  1.0
  C  C161  1  0.997100  0.216700  0.593600  1.0
  C  C162  1  0.036300  0.891600  0.401700  1.0
  C  C163  1  0.963700  0.108400  0.598300  1.0
  C  C164  1  0.096100  0.904300  0.250400  1.0
  C  C165  1  0.903900  0.095700  0.749600  1.0
  C  C166  1  0.148200  0.838800  0.260100  1.0
  C  C167  1  0.851800  0.161200  0.739900  1.0
  C  C168  1  0.078700  0.725200  0.253200  1.0
  C  C169  1  0.921300  0.274800  0.746800  1.0
  C  C170  1  0.959200  0.685200  0.233700  1.0
  C  C171  1  0.040800  0.314800  0.766300  1.0
  C  C172  1  0.915900  0.756900  0.224900  1.0
  C  C173  1  0.084100  0.243100  0.775100  1.0
  C  C174  1  0.129300  0.652600  0.267200  1.0
  C  C175  1  0.870700  0.347400  0.732800  1.0
  C  C176  1  0.088700  0.577900  0.307000  1.0
  C  C177  1  0.911300  0.422100  0.693000  1.0
  C  C178  1  0.140200  0.515300  0.322100  1.0
  C  C179  1  0.859800  0.484700  0.677900  1.0
  C  C180  1  0.268400  0.591800  0.260100  1.0
  C  C181  1  0.731600  0.408200  0.739900  1.0
  C  C182  1  0.221200  0.656300  0.244100  1.0
  C  C183  1  0.778800  0.343700  0.755900  1.0
  C  C184  1  0.336400  0.293000  0.344400  1.0
  C  C185  1  0.663600  0.707000  0.655600  1.0
  C  C186  1  0.334700  0.281700  0.409600  1.0
  C  C187  1  0.665300  0.718300  0.590400  1.0
  C  C188  1  0.348000  0.196900  0.432300  1.0
  C  C189  1  0.652000  0.803100  0.567700  1.0
  C  C190  1  0.365700  0.123300  0.389800  1.0
  C  C191  1  0.634300  0.876700  0.610200  1.0
  C  C192  1  0.369100  0.135300  0.326800  1.0
  C  C193  1  0.630900  0.864700  0.673200  1.0
  C  C194  1  0.351100  0.214900  0.302200  1.0
  C  C195  1  0.648900  0.785100  0.697800  1.0
  C  C196  1  0.332700  0.374400  0.453600  1.0
  C  C197  1  0.667300  0.625600  0.546400  1.0
  C  C198  1  0.363800  0.556300  0.461700  1.0
  C  C199  1  0.636200  0.443700  0.538300  1.0
  C  C200  1  0.369800  0.569200  0.531000  1.0
  C  C201  1  0.630200  0.430800  0.469000  1.0
  C  C202  1  0.350900  0.479900  0.558800  1.0
  C  C203  1  0.649100  0.520100  0.441200  1.0
  C  C204  1  0.333600  0.382100  0.519800  1.0
  C  C205  1  0.666400  0.617900  0.480200  1.0
  C  C206  1  0.392700  0.655600  0.434300  1.0
  C  C207  1  0.607300  0.344400  0.565700  1.0
  C  C208  1  0.470400  0.682300  0.394100  1.0
  C  C209  1  0.529600  0.317700  0.605900  1.0
  C  C210  1  0.505200  0.782600  0.375700  1.0
  C  C211  1  0.494800  0.217400  0.624300  1.0
  C  C212  1  0.463500  0.852200  0.394300  1.0
  C  C213  1  0.536500  0.147800  0.605700  1.0
  C  C214  1  0.383400  0.825000  0.430600  1.0
  C  C215  1  0.616600  0.175000  0.569400  1.0
  C  C216  1  0.349200  0.727100  0.451400  1.0
  C  C217  1  0.650800  0.272900  0.548600  1.0
  C  C218  1  0.338400  0.380200  0.188000  1.0
  C  C219  1  0.661600  0.619800  0.812000  1.0
  C  C220  1  0.313500  0.333500  0.121600  1.0
  C  C221  1  0.686500  0.666500  0.878400  1.0
  C  C222  1  0.203200  0.256900  0.086100  1.0
  C  C223  1  0.796800  0.743100  0.913900  1.0
  C  C224  1  0.119600  0.228000  0.120700  1.0
  C  C225  1  0.880400  0.772000  0.879300  1.0
  C  C226  1  0.152200  0.275400  0.189700  1.0
  C  C227  1  0.847800  0.724600  0.810300  1.0
  C  C228  1  0.176000  0.203700  0.013900  1.0
  C  C229  1  0.824000  0.796300  0.986100  1.0
  C  C230  1  0.260700  0.216700  0.982000  1.0
  C  C231  1  0.739300  0.783300  0.018000  1.0
  C  C232  1  0.230300  0.163700  0.916200  1.0
  C  C233  1  0.769700  0.836300  0.083800  1.0
  C  C234  1  0.961600  0.915300  0.088600  1.0
  C  C235  1  0.038400  0.084700  0.911400  1.0
  C  C236  1  0.061900  0.136000  0.976700  1.0
  C  C237  1  0.938100  0.864000  0.023300  1.0
  N  N238  1  0.499500  0.069100  0.777200  1
  N  N239  1  0.500500  0.930900  0.222800  1
  N  N240  1  0.729400  0.087700  0.406000  1
  N  N241  1  0.270600  0.912300  0.594000  1
  N  N242  1  0.450200  0.325200  0.812100  1
  N  N243  1  0.549800  0.674800  0.187900  1
  N  N244  1  0.352800  0.611800  0.742000  1
  N  N245  1  0.647200  0.388200  0.258000  1
  N  N246  1  0.032600  0.555700  0.005300  1
  N  N247  1  0.967400  0.444300  0.994700  1
  N  N248  1  0.951800  0.061900  0.312900  1.0
  N  N249  1  0.048200  0.938100  0.687100  1.0
  N  N250  1  0.984100  0.866000  0.235000  1.0
  N  N251  1  0.015900  0.134000  0.765000  1.0
  N  N252  1  0.229500  0.520100  0.298700  1.0
  N  N253  1  0.770500  0.479900  0.701300  1.0
  N  N254  1  0.339900  0.459100  0.423500  1.0
  N  N255  1  0.660100  0.540900  0.576500  1.0
  N  N256  1  0.257400  0.348700  0.222100  1.0
  N  N257  1  0.742600  0.651300  0.777900  1.0
  N  N258  1  0.877000  0.901400  0.118900  1.0
  N  N259  1  0.123000  0.098600  0.881100  1.0
  O  O260  1  0.518600  0.027800  0.732300  1
  O  O261  1  0.481400  0.972200  0.267700  1
  O  O262  1  0.411000  0.022400  0.804900  1
  O  O263  1  0.589000  0.977600  0.195100  1
  O  O264  1  0.727100  0.020000  0.360800  1
  O  O265  1  0.272900  0.980000  0.639200  1
  O  O266  1  0.747000  0.089400  0.462200  1
  O  O267  1  0.253000  0.910600  0.537800  1
  O  O268  1  0.473600  0.367400  0.765600  1
  O  O269  1  0.526400  0.632600  0.234400  1
  O  O270  1  0.354300  0.242400  0.799500  1
  O  O271  1  0.645700  0.757600  0.200500  1
  O  O272  1  0.394100  0.555800  0.727900  1
  O  O273  1  0.605900  0.444200  0.272100  1
  O  O274  1  0.255400  0.583500  0.713400  1
  O  O275  1  0.744600  0.416500  0.286600  1
  O  O276  1  0.041000  0.640100  0.062900  1
  O  O277  1  0.959000  0.359900  0.937100  1
  O  O278  1  0.985000  0.595000  0.953500  1
  O  O279  1  0.015000  0.405000  0.046500  1
  F  F280  1  0.763100  0.945400  0.861200  1
  F  F281  1  0.236900  0.054600  0.138800  1
  F  F282  1  0.667000  0.085100  0.933900  1
  F  F283  1  0.333000  0.914900  0.066100  1
  F  F284  1  0.791600  0.033700  0.963500  1
  F  F285  1  0.208400  0.966300  0.036500  1
  F  F286  1  0.617600  0.909200  0.917900  1
  F  F287  1  0.382400  0.090800  0.082100  1
  F  F288  1  0.826700  0.123900  0.887600  1
  F  F289  1  0.173300  0.876100  0.112400  1
  F  F290  1  0.607400  0.970100  0.840700  1
  F  F291  1  0.392600  0.029900  0.159300  1
  F  F292  1  0.234810  0.546870  0.882730  1
  F  F293  1  0.765190  0.453130  0.117270  1
  F  F294  1  0.424170  0.517370  0.971500  1
  F  F295  1  0.575830  0.482630  0.028500  1
  F  F296  1  0.358880  0.492340  0.864170  1
  F  F297  1  0.641120  0.507660  0.135830  1
  F  F298  1  0.417210  0.652990  0.930940  1
  F  F299  1  0.582790  0.347010  0.069060  1
  F  F300  1  0.300110  0.571910  0.990060  1
  F  F301  1  0.699890  0.428090  0.009940  1
  F  F302  1  0.241780  0.411260  0.923290  1
  F  F303  1  0.758220  0.588740  0.076710  1
  F  F304  1  0.927200  0.376500  0.505000  1.0
  F  F305  1  0.072800  0.623500  0.495000  1.0
  F  F306  1  0.941800  0.462800  0.421420  1.0
  F  F307  1  0.058200  0.537200  0.578580  1.0
  F  F308  1  0.900800  0.526600  0.512800  1.0
  F  F309  1  0.099200  0.473400  0.487200  1.0
