# generated using pymatgen
data_P8H162Pt4C109O11
_symmetry_space_group_name_H-M   'P 1'
_cell_length_a   14.51310000
_cell_length_b   15.57150000
_cell_length_c   25.43370000
_cell_angle_alpha   99.93000000
_cell_angle_beta   90.00000000
_cell_angle_gamma   90.00000000
_symmetry_Int_Tables_number   1
_chemical_formula_structural   P8H162Pt4C109O11
_chemical_formula_sum   'P16 H324 Pt8 C218 O22'
_cell_volume   5661.67407043
_cell_formula_units_Z   2
loop_
 _symmetry_equiv_pos_site_id
 _symmetry_equiv_pos_as_xyz
  1  'x, y, z'
loop_
 _atom_site_type_symbol
 _atom_site_label
 _atom_site_symmetry_multiplicity
 _atom_site_fract_x
 _atom_site_fract_y
 _atom_site_fract_z
 _atom_site_occupancy
  P  P1  1  0.198500  0.482200  0.682300  1
  P  P2  1  0.698500  0.517800  0.317700  1
  P  P3  1  0.271900  0.375800  0.508100  1
  P  P4  1  0.771900  0.624200  0.491900  1
  P  P5  1  0.063200  0.105600  0.776410  1
  P  P6  1  0.563200  0.894400  0.223590  1
  P  P7  1  0.179500  0.910100  0.636540  1
  P  P8  1  0.679500  0.089900  0.363460  1
  P  P9  1  0.535400  0.121000  0.998810  1
  P  P10  1  0.035400  0.879000  0.001190  1
  P  P11  1  0.592000  0.036800  0.820410  1
  P  P12  1  0.092000  0.963200  0.179590  1
  P  P13  1  0.619300  0.602380  0.863030  1
  P  P14  1  0.119300  0.397620  0.136970  1
  P  P15  1  0.738800  0.407500  0.724070  1
  P  P16  1  0.238800  0.592500  0.275930  1
  H  H17  1  0.045500  0.470900  0.550900  1
  H  H18  1  0.545500  0.529100  0.449100  1
  H  H19  1  0.909700  0.398500  0.529300  1
  H  H20  1  0.409700  0.601500  0.470700  1
  H  H21  1  0.806000  0.268600  0.528300  1
  H  H22  1  0.306000  0.731400  0.471700  1
  H  H23  1  0.781000  0.134700  0.548400  1
  H  H24  1  0.281000  0.865300  0.451600  1
  H  H25  1  0.829500  0.017600  0.600000  1
  H  H26  1  0.329500  0.982400  0.400000  1
  H  H27  1  0.931600  0.959400  0.653000  1
  H  H28  1  0.431600  0.040600  0.347000  1
  H  H29  1  0.110700  0.156000  0.643400  1
  H  H30  1  0.610700  0.844000  0.356600  1
  H  H31  1  0.143000  0.266100  0.611400  1
  H  H32  1  0.643000  0.733900  0.388600  1
  H  H33  1  0.311000  0.958600  0.833900  1
  H  H34  1  0.811000  0.041400  0.166100  1
  H  H35  1  0.359800  0.784500  0.932400  1
  H  H36  1  0.859800  0.215500  0.067600  1
  H  H37  1  0.157000  0.736400  0.821100  1
  H  H38  1  0.657000  0.263600  0.178900  1
  H  H39  1  0.265200  0.670900  0.968300  1
  H  H40  1  0.765200  0.329100  0.031700  1
  H  H41  1  0.349500  0.647000  0.927600  1
  H  H42  1  0.849500  0.353000  0.072400  1
  H  H43  1  0.302000  0.538500  0.005200  1
  H  H44  1  0.802000  0.461500  0.994800  1
  H  H45  1  0.278000  0.388700  0.000200  1
  H  H46  1  0.778000  0.611300  0.999800  1
  H  H47  1  0.230900  0.302000  0.922300  1
  H  H48  1  0.730900  0.698000  0.077700  1
  H  H49  1  0.221300  0.363200  0.846800  1
  H  H50  1  0.721300  0.636800  0.153200  1
  H  H51  1  0.231600  0.517200  0.852000  1
  H  H52  1  0.731600  0.482800  0.148000  1
  H  H53  1  0.753700  0.044300  0.953700  1
  H  H54  1  0.253700  0.955700  0.046300  1
  H  H55  1  0.895500  0.113700  0.971000  1
  H  H56  1  0.395500  0.886300  0.029000  1
  H  H57  1  0.992200  0.242900  0.970900  1
  H  H58  1  0.492200  0.757100  0.029100  1
  H  H59  1  0.017000  0.377400  0.949600  1
  H  H60  1  0.517000  0.622600  0.050400  1
  H  H61  1  0.973000  0.493800  0.900100  1
  H  H62  1  0.473000  0.506200  0.099900  1
  H  H63  1  0.864700  0.553800  0.848600  1
  H  H64  1  0.364700  0.446200  0.151400  1
  H  H65  1  0.687000  0.360100  0.859200  1
  H  H66  1  0.187000  0.639900  0.140800  1
  H  H67  1  0.655400  0.244400  0.888900  1
  H  H68  1  0.155400  0.755600  0.111100  1
  H  H69  1  0.645200  0.771400  0.675200  1
  H  H70  1  0.145200  0.228600  0.324800  1
  H  H71  1  0.437100  0.722600  0.566400  1
  H  H72  1  0.937100  0.277400  0.433600  1
  H  H73  1  0.491600  0.553400  0.667100  1
  H  H74  1  0.991600  0.446600  0.332900  1
  H  H75  1  0.453200  0.859400  0.567400  1
  H  H76  1  0.953200  0.140600  0.432600  1
  H  H77  1  0.538900  0.836100  0.527600  1
  H  H78  1  0.038900  0.163900  0.472400  1
  H  H79  1  0.468800  0.975600  0.498100  1
  H  H80  1  0.968800  0.024400  0.501900  1
  H  H81  1  0.483400  0.124700  0.503900  1
  H  H82  1  0.983400  0.875300  0.496100  1
  H  H83  1  0.561400  0.204600  0.574000  1
  H  H84  1  0.061400  0.795400  0.426000  1
  H  H85  1  0.640400  0.131900  0.635000  1
  H  H86  1  0.140400  0.868100  0.365000  1
  H  H87  1  0.612300  0.985400  0.632900  1
  H  H88  1  0.112300  0.014600  0.367100  1
  H  H89  1  0.060000  0.551100  0.679900  1
  H  H90  1  0.560000  0.448900  0.320100  1
  H  H91  1  0.044800  0.451600  0.685300  1
  H  H92  1  0.544800  0.548400  0.314700  1
  H  H93  1  0.992100  0.539200  0.763700  1
  H  H94  1  0.492100  0.460800  0.236300  1
  H  H95  1  0.089200  0.588300  0.772500  1
  H  H96  1  0.589200  0.411700  0.227500  1
  H  H97  1  0.081200  0.488100  0.778900  1
  H  H98  1  0.581200  0.511900  0.221100  1
  H  H99  1  0.260600  0.567200  0.759400  1
  H  H100  1  0.760600  0.432800  0.240600  1
  H  H101  1  0.338400  0.547200  0.714000  1
  H  H102  1  0.838400  0.452800  0.286000  1
  H  H103  1  0.292000  0.694100  0.723400  1
  H  H104  1  0.792000  0.305900  0.276600  1
  H  H105  1  0.187800  0.663900  0.710800  1
  H  H106  1  0.687800  0.336100  0.289200  1
  H  H107  1  0.264700  0.643700  0.665200  1
  H  H108  1  0.764700  0.356300  0.334800  1
  H  H109  1  0.199900  0.408900  0.756900  1
  H  H110  1  0.699900  0.591100  0.243100  1
  H  H111  1  0.166700  0.343300  0.704900  1
  H  H112  1  0.666700  0.656700  0.295100  1
  H  H113  1  0.307400  0.300800  0.732500  1
  H  H114  1  0.807400  0.699200  0.267500  1
  H  H115  1  0.350600  0.393700  0.727600  1
  H  H116  1  0.850600  0.606300  0.272400  1
  H  H117  1  0.317800  0.328900  0.675100  1
  H  H118  1  0.817800  0.671100  0.324900  1
  H  H119  1  0.296900  0.235400  0.525200  1
  H  H120  1  0.796900  0.764600  0.474800  1
  H  H121  1  0.196500  0.242100  0.500800  1
  H  H122  1  0.696500  0.757900  0.499200  1
  H  H123  1  0.288400  0.144500  0.442200  1
  H  H124  1  0.788400  0.855500  0.557800  1
  H  H125  1  0.360700  0.220600  0.438100  1
  H  H126  1  0.860700  0.779400  0.561900  1
  H  H127  1  0.259200  0.224800  0.414100  1
  H  H128  1  0.759200  0.775200  0.585900  1
  H  H129  1  0.229800  0.384800  0.420800  1
  H  H130  1  0.729800  0.615200  0.579200  1
  H  H131  1  0.139900  0.383000  0.456900  1
  H  H132  1  0.639900  0.617000  0.543100  1
  H  H133  1  0.153500  0.520400  0.431100  1
  H  H134  1  0.653500  0.479600  0.568900  1
  H  H135  1  0.253500  0.533400  0.457800  1
  H  H136  1  0.753500  0.466600  0.542200  1
  H  H137  1  0.164200  0.531800  0.494600  1
  H  H138  1  0.664200  0.468200  0.505400  1
  H  H139  1  0.400700  0.370400  0.451800  1
  H  H140  1  0.900700  0.629600  0.548200  1
  H  H141  1  0.400100  0.460300  0.493300  1
  H  H142  1  0.900100  0.539700  0.506700  1
  H  H143  1  0.523400  0.371100  0.512800  1
  H  H144  1  0.023400  0.628900  0.487200  1
  H  H145  1  0.452000  0.296100  0.520900  1
  H  H146  1  0.952000  0.703900  0.479100  1
  H  H147  1  0.452700  0.386600  0.561800  1
  H  H148  1  0.952700  0.613400  0.438200  1
  H  H149  1  0.936200  0.132300  0.832800  1
  H  H150  1  0.436200  0.867700  0.167200  1
  H  H151  1  0.905900  0.076300  0.776700  1
  H  H152  1  0.405900  0.923700  0.223300  1
  H  H153  1  0.894700  0.989500  0.843400  1
  H  H154  1  0.394700  0.010500  0.156600  1
  H  H155  1  0.001100  0.006400  0.858300  1
  H  H156  1  0.501100  0.993600  0.141700  1
  H  H157  1  0.973000  0.950100  0.801900  1
  H  H158  1  0.473000  0.049900  0.198100  1
  H  H159  1  0.115300  0.231500  0.749100  1
  H  H160  1  0.615300  0.768500  0.250900  1
  H  H161  1  0.011800  0.211600  0.729800  1
  H  H162  1  0.511800  0.788400  0.270200  1
  H  H163  1  0.015900  0.341800  0.792500  1
  H  H164  1  0.515900  0.658200  0.207500  1
  H  H165  1  0.062000  0.292200  0.836000  1
  H  H166  1  0.562000  0.707800  0.164000  1
  H  H167  1  0.958000  0.271000  0.817300  1
  H  H168  1  0.458000  0.729000  0.182700  1
  H  H169  1  0.120000  0.167000  0.861700  1
  H  H170  1  0.620000  0.833000  0.138300  1
  H  H171  1  0.149800  0.066800  0.847500  1
  H  H172  1  0.649800  0.933200  0.152500  1
  H  H173  1  0.280000  0.157200  0.849700  1
  H  H174  1  0.780000  0.842800  0.150300  1
  H  H175  1  0.236200  0.203700  0.804100  1
  H  H176  1  0.736200  0.796300  0.195900  1
  H  H177  1  0.266400  0.103500  0.790700  1
  H  H178  1  0.766400  0.896500  0.209300  1
  H  H179  1  0.265600  0.815000  0.676500  1
  H  H180  1  0.765600  0.185000  0.323500  1
  H  H181  1  0.306400  0.821000  0.619000  1
  H  H182  1  0.806400  0.179000  0.381000  1
  H  H183  1  0.412100  0.878400  0.686100  1
  H  H184  1  0.912100  0.121600  0.313900  1
  H  H185  1  0.338000  0.949400  0.711900  1
  H  H186  1  0.838000  0.050600  0.288100  1
  H  H187  1  0.380300  0.953500  0.654300  1
  H  H188  1  0.880300  0.046500  0.345700  1
  H  H189  1  0.085600  0.796700  0.644800  1
  H  H190  1  0.585600  0.203300  0.355200  1
  H  H191  1  0.048500  0.846700  0.599700  1
  H  H192  1  0.548500  0.153300  0.400300  1
  H  H193  1  0.083900  0.700900  0.563900  1
  H  H194  1  0.583900  0.299100  0.436100  1
  H  H195  1  0.189200  0.716400  0.581800  1
  H  H196  1  0.689200  0.283600  0.418200  1
  H  H197  1  0.147400  0.764800  0.536500  1
  H  H198  1  0.647400  0.235200  0.463500  1
  H  H199  1  0.216700  0.904500  0.545900  1
  H  H200  1  0.716700  0.095500  0.454100  1
  H  H201  1  0.131200  0.968800  0.561700  1
  H  H202  1  0.631200  0.031200  0.438300  1
  H  H203  1  0.256100  0.044000  0.545100  1
  H  H204  1  0.756100  0.956000  0.454900  1
  H  H205  1  0.313000  0.005500  0.589700  1
  H  H206  1  0.813000  0.994500  0.410300  1
  H  H207  1  0.227900  0.069600  0.606600  1
  H  H208  1  0.727900  0.930400  0.393400  1
  H  H209  1  0.673400  0.102300  0.043000  1
  H  H210  1  0.173400  0.897700  0.957000  1
  H  H211  1  0.588200  0.096100  0.081800  1
  H  H212  1  0.088200  0.903900  0.918200  1
  H  H213  1  0.662000  0.962700  0.062400  1
  H  H214  1  0.162000  0.037300  0.937600  1
  H  H215  1  0.645300  0.959700  0.999900  1
  H  H216  1  0.145300  0.040300  0.000100  1
  H  H217  1  0.559700  0.953500  0.038700  1
  H  H218  1  0.059700  0.046500  0.961300  1
  H  H219  1  0.374500  0.116700  0.990600  1
  H  H220  1  0.874500  0.883300  0.009400  1
  H  H221  1  0.410200  0.032200  0.012300  1
  H  H222  1  0.910200  0.967800  0.987700  1
  H  H223  1  0.323500  0.122600  0.081400  1
  H  H224  1  0.823500  0.877400  0.918600  1
  H  H225  1  0.391800  0.202600  0.079200  1
  H  H226  1  0.891800  0.797400  0.920800  1
  H  H227  1  0.428000  0.118200  0.100900  1
  H  H228  1  0.928000  0.881800  0.899100  1
  H  H229  1  0.535100  0.252500  0.060400  1
  H  H230  1  0.035100  0.747500  0.939600  1
  H  H231  1  0.613300  0.255400  0.016300  1
  H  H232  1  0.113300  0.744600  0.983700  1
  H  H233  1  0.498600  0.352300  0.006600  1
  H  H234  1  0.998600  0.647700  0.993400  1
  H  H235  1  0.423700  0.275700  0.000000  1
  H  H236  1  0.923700  0.724300  0.000000  1
  H  H237  1  0.500900  0.276800  0.955200  1
  H  H238  1  0.000900  0.723200  0.044800  1
  H  H239  1  0.526800  0.895800  0.806300  1
  H  H240  1  0.026800  0.104200  0.193700  1
  H  H241  1  0.600400  0.903400  0.760300  1
  H  H242  1  0.100400  0.096600  0.239700  1
  H  H243  1  0.662200  0.810700  0.820700  1
  H  H244  1  0.162200  0.189300  0.179300  1
  H  H245  1  0.653800  0.890300  0.869600  1
  H  H246  1  0.153800  0.109700  0.130400  1
  H  H247  1  0.726300  0.894800  0.822700  1
  H  H248  1  0.226300  0.105200  0.177300  1
  H  H249  1  0.505700  0.054300  0.744700  1
  H  H250  1  0.005700  0.945700  0.255300  1
  H  H251  1  0.438100  0.050600  0.794000  1
  H  H252  1  0.938100  0.949400  0.206000  1
  H  H253  1  0.438900  0.194000  0.773100  1
  H  H254  1  0.938900  0.806000  0.226900  1
  H  H255  1  0.547800  0.200400  0.782900  1
  H  H256  1  0.047800  0.799600  0.217100  1
  H  H257  1  0.479500  0.196600  0.831900  1
  H  H258  1  0.979500  0.803400  0.168100  1
  H  H259  1  0.701400  0.134500  0.799900  1
  H  H260  1  0.201400  0.865500  0.200100  1
  H  H261  1  0.750600  0.049000  0.813100  1
  H  H262  1  0.250600  0.951000  0.186900  1
  H  H263  1  0.773200  0.057300  0.721400  1
  H  H264  1  0.273200  0.942700  0.278600  1
  H  H265  1  0.664200  0.058500  0.712100  1
  H  H266  1  0.164200  0.941500  0.287900  1
  H  H267  1  0.713000  0.972600  0.725300  1
  H  H268  1  0.213000  0.027400  0.274700  1
  H  H269  1  0.619800  0.526500  0.935000  1
  H  H270  1  0.119800  0.473500  0.065000  1
  H  H271  1  0.530300  0.586800  0.937700  1
  H  H272  1  0.030300  0.413200  0.062300  1
  H  H273  1  0.485500  0.438100  0.920300  1
  H  H274  1  0.985500  0.561900  0.079700  1
  H  H275  1  0.548300  0.421300  0.867800  1
  H  H276  1  0.048300  0.578700  0.132200  1
  H  H277  1  0.458900  0.481900  0.869900  1
  H  H278  1  0.958900  0.518100  0.130100  1
  H  H279  1  0.503100  0.706700  0.877800  1
  H  H280  1  0.003100  0.293300  0.122200  1
  H  H281  1  0.552900  0.710000  0.822200  1
  H  H282  1  0.052900  0.290000  0.177800  1
  H  H283  1  0.399000  0.663300  0.807400  1
  H  H284  1  0.899000  0.336700  0.192600  1
  H  H285  1  0.417600  0.582500  0.837200  1
  H  H286  1  0.917600  0.417500  0.162800  1
  H  H287  1  0.466900  0.586600  0.781400  1
  H  H288  1  0.966900  0.413400  0.218600  1
  H  H289  1  0.753000  0.648900  0.911800  1
  H  H290  1  0.253000  0.351100  0.088200  1
  H  H291  1  0.724600  0.718700  0.875400  1
  H  H292  1  0.224600  0.281300  0.124600  1
  H  H293  1  0.704900  0.778500  0.966200  1
  H  H294  1  0.204900  0.221500  0.033800  1
  H  H295  1  0.634600  0.702000  0.973000  1
  H  H296  1  0.134600  0.298000  0.027000  1
  H  H297  1  0.607100  0.772300  0.936600  1
  H  H298  1  0.107100  0.227700  0.063400  1
  H  H299  1  0.820400  0.312500  0.769600  1
  H  H300  1  0.320400  0.687500  0.230400  1
  H  H301  1  0.718600  0.276200  0.756400  1
  H  H302  1  0.218600  0.723800  0.243600  1
  H  H303  1  0.825500  0.182400  0.708200  1
  H  H304  1  0.325500  0.817600  0.291800  1
  H  H305  1  0.865200  0.260300  0.681200  1
  H  H306  1  0.365200  0.739700  0.318800  1
  H  H307  1  0.763100  0.224600  0.667500  1
  H  H308  1  0.263100  0.775400  0.332500  1
  H  H309  1  0.644300  0.437600  0.655500  1
  H  H310  1  0.144300  0.562400  0.344500  1
  H  H311  1  0.682200  0.339700  0.641600  1
  H  H312  1  0.182200  0.660300  0.358400  1
  H  H313  1  0.521500  0.337800  0.660200  1
  H  H314  1  0.021500  0.662200  0.339800  1
  H  H315  1  0.538700  0.394400  0.718100  1
  H  H316  1  0.038700  0.605600  0.281900  1
  H  H317  1  0.576600  0.296600  0.704400  1
  H  H318  1  0.076600  0.703400  0.295600  1
  H  H319  1  0.894700  0.439600  0.716000  1
  H  H320  1  0.394700  0.560400  0.284000  1
  H  H321  1  0.855600  0.390100  0.660000  1
  H  H322  1  0.355600  0.609900  0.340000  1
  H  H323  1  0.886500  0.539800  0.653700  1
  H  H324  1  0.386500  0.460200  0.346300  1
  H  H325  1  0.818000  0.571800  0.702500  1
  H  H326  1  0.318000  0.428200  0.297500  1
  H  H327  1  0.778100  0.522400  0.646700  1
  H  H328  1  0.278100  0.477600  0.353300  1
  H  H329  1  0.916800  0.746300  0.650200  1
  H  H330  1  0.416800  0.253700  0.349800  1
  H  H331  1  0.891100  0.668900  0.681600  1
  H  H332  1  0.391100  0.331100  0.318400  1
  H  H333  1  0.987900  0.718100  0.692200  1
  H  H334  1  0.487900  0.281900  0.307800  1
  H  H335  1  0.869100  0.792200  0.813800  1
  H  H336  1  0.369100  0.207800  0.186200  1
  H  H337  1  0.958800  0.740600  0.789100  1
  H  H338  1  0.458800  0.259400  0.210900  1
  H  H339  1  0.859600  0.695300  0.780800  1
  H  H340  1  0.359600  0.304700  0.219200  1
  Pt  Pt341  1  0.233260  0.437200  0.594066  1
  Pt  Pt342  1  0.733260  0.562800  0.405934  1
  Pt  Pt343  1  0.116290  0.003320  0.706678  1
  Pt  Pt344  1  0.616290  0.996680  0.293322  1
  Pt  Pt345  1  0.566970  0.075700  0.910256  1
  Pt  Pt346  1  0.066970  0.924300  0.089744  1
  Pt  Pt347  1  0.685450  0.509530  0.793559  1
  Pt  Pt348  1  0.185450  0.490470  0.206441  1
  C  C349  1  0.113900  0.376400  0.583200  1
  C  C350  1  0.613900  0.623600  0.416800  1
  C  C351  1  0.038600  0.413800  0.558900  1
  C  C352  1  0.538600  0.586200  0.441100  1
  C  C353  1  0.956500  0.371000  0.546600  1
  C  C354  1  0.456500  0.629000  0.453400  1
  C  C355  1  0.939900  0.287900  0.558700  1
  C  C356  1  0.439900  0.712100  0.441300  1
  C  C357  1  0.852700  0.242000  0.546200  1
  C  C358  1  0.352700  0.758000  0.453800  1
  C  C359  1  0.836900  0.164400  0.559100  1
  C  C360  1  0.336900  0.835600  0.440900  1
  C  C361  1  0.905500  0.123800  0.590000  1
  C  C362  1  0.405500  0.876200  0.410000  1
  C  C363  1  0.886400  0.046400  0.609000  1
  C  C364  1  0.386400  0.953600  0.391000  1
  C  C365  1  0.947300  0.011400  0.640300  1
  C  C366  1  0.447300  0.988600  0.359700  1
  C  C367  1  0.034500  0.051900  0.654200  1
  C  C368  1  0.534500  0.948100  0.345800  1
  C  C369  1  0.052900  0.128200  0.635100  1
  C  C370  1  0.552900  0.871800  0.364900  1
  C  C371  1  0.989700  0.166700  0.604000  1
  C  C372  1  0.489700  0.833300  0.396000  1
  C  C373  1  0.009300  0.248800  0.587100  1
  C  C374  1  0.509300  0.751200  0.412900  1
  C  C375  1  0.094700  0.294200  0.595700  1
  C  C376  1  0.594700  0.705800  0.404300  1
  C  C377  1  0.170000  0.879700  0.775900  1
  C  C378  1  0.670000  0.120300  0.224100  1
  C  C379  1  0.225100  0.852500  0.820600  1
  C  C380  1  0.725100  0.147500  0.179400  1
  C  C381  1  0.297100  0.904900  0.845100  1
  C  C382  1  0.797100  0.095100  0.154900  1
  C  C383  1  0.347900  0.878200  0.885500  1
  C  C384  1  0.847900  0.121800  0.114500  1
  C  C385  1  0.326200  0.800600  0.903500  1
  C  C386  1  0.826200  0.199400  0.096500  1
  C  C387  1  0.257400  0.747800  0.880000  1
  C  C388  1  0.757400  0.252200  0.120000  1
  C  C389  1  0.204900  0.772900  0.837700  1
  C  C390  1  0.704900  0.227100  0.162300  1
  C  C391  1  0.282800  0.638200  0.932800  1
  C  C392  1  0.782800  0.361800  0.067200  1
  C  C393  1  0.263100  0.542100  0.930400  1
  C  C394  1  0.763100  0.457900  0.069600  1
  C  C395  1  0.280800  0.504400  0.972800  1
  C  C396  1  0.780800  0.495600  0.027200  1
  C  C397  1  0.268100  0.414100  0.969300  1
  C  C398  1  0.768100  0.585900  0.030700  1
  C  C399  1  0.242300  0.362400  0.923600  1
  C  C400  1  0.742300  0.637600  0.076400  1
  C  C401  1  0.233300  0.399100  0.880200  1
  C  C402  1  0.733300  0.600900  0.119800  1
  C  C403  1  0.241300  0.491600  0.882900  1
  C  C404  1  0.741300  0.508400  0.117100  1
  C  C405  1  0.431300  0.932200  0.909900  1
  C  C406  1  0.931300  0.067800  0.090100  1
  C  C407  1  0.690500  0.141100  0.921800  1
  C  C408  1  0.190500  0.858900  0.078200  1
  C  C409  1  0.762900  0.100500  0.944900  1
  C  C410  1  0.262900  0.899500  0.055100  1
  C  C411  1  0.847200  0.141200  0.954900  1
  C  C412  1  0.347200  0.858800  0.045100  1
  C  C413  1  0.860800  0.225500  0.940700  1
  C  C414  1  0.360800  0.774500  0.059300  1
  C  C415  1  0.945500  0.269300  0.952900  1
  C  C416  1  0.445500  0.730700  0.047100  1
  C  C417  1  0.960800  0.348000  0.939200  1
  C  C418  1  0.460800  0.652000  0.060800  1
  C  C419  1  0.894900  0.388600  0.909600  1
  C  C420  1  0.394900  0.611400  0.090400  1
  C  C421  1  0.915700  0.465300  0.891400  1
  C  C422  1  0.415700  0.534700  0.108600  1
  C  C423  1  0.850900  0.500300  0.860100  1
  C  C424  1  0.350900  0.499700  0.139900  1
  C  C425  1  0.765600  0.458900  0.844700  1
  C  C426  1  0.265600  0.541100  0.155300  1
  C  C427  1  0.746000  0.386000  0.866100  1
  C  C428  1  0.246000  0.614000  0.133900  1
  C  C429  1  0.807600  0.346900  0.897500  1
  C  C430  1  0.307600  0.653100  0.102500  1
  C  C431  1  0.789100  0.264200  0.914700  1
  C  C432  1  0.289100  0.735800  0.085300  1
  C  C433  1  0.704000  0.219300  0.906100  1
  C  C434  1  0.204000  0.780700  0.093900  1
  C  C435  1  0.630900  0.635500  0.723400  1
  C  C436  1  0.130900  0.364500  0.276600  1
  C  C437  1  0.573700  0.659500  0.677300  1
  C  C438  1  0.073700  0.340500  0.322700  1
  C  C439  1  0.595800  0.736000  0.659600  1
  C  C440  1  0.095800  0.264000  0.340400  1
  C  C441  1  0.544500  0.760000  0.618600  1
  C  C442  1  0.044500  0.240000  0.381400  1
  C  C443  1  0.472100  0.706200  0.594700  1
  C  C444  1  0.972100  0.293800  0.405300  1
  C  C445  1  0.452900  0.629200  0.613100  1
  C  C446  1  0.952900  0.370800  0.386900  1
  C  C447  1  0.504500  0.606100  0.654600  1
  C  C448  1  0.004500  0.393900  0.345400  1
  C  C449  1  0.520000  0.868900  0.562900  1
  C  C450  1  0.020000  0.131100  0.437100  1
  C  C451  1  0.538600  0.964500  0.565200  1
  C  C452  1  0.038600  0.035500  0.434800  1
  C  C453  1  0.501600  0.007900  0.527300  1
  C  C454  1  0.001600  0.992100  0.472700  1
  C  C455  1  0.510500  0.096600  0.530300  1
  C  C456  1  0.010500  0.903400  0.469700  1
  C  C457  1  0.557600  0.143000  0.570700  1
  C  C458  1  0.057600  0.857000  0.429300  1
  C  C459  1  0.601600  0.100500  0.608300  1
  C  C460  1  0.101600  0.899500  0.391700  1
  C  C461  1  0.587400  0.013300  0.605600  1
  C  C462  1  0.087400  0.986700  0.394400  1
  C  C463  1  0.371900  0.577700  0.591200  1
  C  C464  1  0.871900  0.422300  0.408800  1
  C  C465  1  0.081200  0.504500  0.699000  1
  C  C466  1  0.581200  0.495500  0.301000  1
  C  C467  1  0.058900  0.532600  0.759000  1
  C  C468  1  0.558900  0.467400  0.241000  1
  C  C469  1  0.272900  0.563200  0.720800  1
  C  C470  1  0.772900  0.436800  0.279200  1
  C  C471  1  0.252600  0.648600  0.703500  1
  C  C472  1  0.752600  0.351400  0.296500  1
  C  C473  1  0.212700  0.388700  0.718500  1
  C  C474  1  0.712700  0.611300  0.281500  1
  C  C475  1  0.305000  0.350000  0.713000  1
  C  C476  1  0.805000  0.650000  0.287000  1
  C  C477  1  0.262100  0.257100  0.496600  1
  C  C478  1  0.762100  0.742900  0.503400  1
  C  C479  1  0.295600  0.207300  0.442900  1
  C  C480  1  0.795600  0.792700  0.557100  1
  C  C481  1  0.202100  0.408800  0.455800  1
  C  C482  1  0.702100  0.591200  0.544200  1
  C  C483  1  0.192500  0.507400  0.460200  1
  C  C484  1  0.692500  0.492600  0.539800  1
  C  C485  1  0.390500  0.396600  0.489700  1
  C  C486  1  0.890500  0.603400  0.510300  1
  C  C487  1  0.461000  0.359300  0.524400  1
  C  C488  1  0.961000  0.640700  0.475600  1
  C  C489  1  0.953700  0.082400  0.804900  1
  C  C490  1  0.453700  0.917600  0.195100  1
  C  C491  1  0.955800  0.999800  0.829300  1
  C  C492  1  0.455800  0.000200  0.170700  1
  C  C493  1  0.053900  0.214100  0.760600  1
  C  C494  1  0.553900  0.785900  0.239400  1
  C  C495  1  0.019300  0.286400  0.805700  1
  C  C496  1  0.519300  0.713600  0.194300  1
  C  C497  1  0.144900  0.121800  0.833100  1
  C  C498  1  0.644900  0.878200  0.166900  1
  C  C499  1  0.240300  0.148900  0.818100  1
  C  C500  1  0.740300  0.851100  0.181900  1
  C  C501  1  0.282400  0.856000  0.652300  1
  C  C502  1  0.782400  0.144000  0.347700  1
  C  C503  1  0.360200  0.914600  0.678500  1
  C  C504  1  0.860200  0.085400  0.321500  1
  C  C505  1  0.104600  0.821500  0.613200  1
  C  C506  1  0.604600  0.178500  0.386800  1
  C  C507  1  0.134000  0.743800  0.569900  1
  C  C508  1  0.634000  0.256200  0.430100  1
  C  C509  1  0.192000  0.951500  0.573700  1
  C  C510  1  0.692000  0.048500  0.426300  1
  C  C511  1  0.252000  0.023000  0.579200  1
  C  C512  1  0.752000  0.977000  0.420800  1
  C  C513  1  0.611300  0.076800  0.045100  1
  C  C514  1  0.111300  0.923200  0.954900  1
  C  C515  1  0.620400  0.979900  0.035700  1
  C  C516  1  0.120400  0.020100  0.964300  1
  C  C517  1  0.417100  0.096300  0.016300  1
  C  C518  1  0.917100  0.903700  0.983700  1
  C  C519  1  0.387200  0.139000  0.075100  1
  C  C520  1  0.887200  0.861000  0.924900  1
  C  C521  1  0.548500  0.238700  0.021600  1
  C  C522  1  0.048500  0.761300  0.978400  1
  C  C523  1  0.488000  0.290100  0.993600  1
  C  C524  1  0.988000  0.709900  0.006400  1
  C  C525  1  0.588500  0.918200  0.799100  1
  C  C526  1  0.088500  0.081800  0.200900  1
  C  C527  1  0.665100  0.874200  0.831100  1
  C  C528  1  0.165100  0.125800  0.168900  1
  C  C529  1  0.496700  0.075300  0.783300  1
  C  C530  1  0.996700  0.924700  0.216700  1
  C  C531  1  0.490100  0.175800  0.793800  1
  C  C532  1  0.990100  0.824200  0.206200  1
  C  C533  1  0.698800  0.070000  0.793400  1
  C  C534  1  0.198800  0.930000  0.206600  1
  C  C535  1  0.713700  0.036500  0.732400  1
  C  C536  1  0.213700  0.963500  0.267600  1
  C  C537  1  0.569200  0.545200  0.913500  1
  C  C538  1  0.069200  0.454800  0.086500  1
  C  C539  1  0.510000  0.464100  0.890800  1
  C  C540  1  0.010000  0.535900  0.109200  1
  C  C541  1  0.526800  0.670200  0.844900  1
  C  C542  1  0.026800  0.329800  0.155100  1
  C  C543  1  0.445200  0.621200  0.815000  1
  C  C544  1  0.945200  0.378800  0.185000  1
  C  C545  1  0.700400  0.681100  0.899800  1
  C  C546  1  0.200400  0.318900  0.100200  1
  C  C547  1  0.658000  0.738600  0.948200  1
  C  C548  1  0.158000  0.261400  0.051800  1
  C  C549  1  0.772900  0.302000  0.741300  1
  C  C550  1  0.272900  0.698000  0.258700  1
  C  C551  1  0.809900  0.236600  0.695500  1
  C  C552  1  0.309900  0.763400  0.304500  1
  C  C553  1  0.656300  0.384000  0.670400  1
  C  C554  1  0.156300  0.616000  0.329600  1
  C  C555  1  0.564900  0.350100  0.690100  1
  C  C556  1  0.064900  0.649900  0.309900  1
  C  C557  1  0.842000  0.436100  0.691100  1
  C  C558  1  0.342000  0.563900  0.308900  1
  C  C559  1  0.830000  0.526000  0.671700  1
  C  C560  1  0.330000  0.474000  0.328300  1
  C  C561  1  0.923000  0.725000  0.684200  1
  C  C562  1  0.423000  0.275000  0.315800  1
  C  C563  1  0.879000  0.790300  0.728200  1
  C  C564  1  0.379000  0.209700  0.271800  1
  C  C565  1  0.893100  0.750600  0.783600  1
  C  C566  1  0.393100  0.249400  0.216400  1
  O  O567  1  0.195900  0.950300  0.762800  1
  O  O568  1  0.695900  0.049700  0.237200  1
  O  O569  1  0.105000  0.832100  0.756900  1
  O  O570  1  0.605000  0.167900  0.243100  1
  O  O571  1  0.232100  0.669900  0.892600  1
  O  O572  1  0.732100  0.330100  0.107400  1
  O  O573  1  0.441500  0.006500  0.894200  1
  O  O574  1  0.941500  0.993500  0.105800  1
  O  O575  1  0.483200  0.901200  0.940000  1
  O  O576  1  0.983200  0.098800  0.060000  1
  O  O577  1  0.609500  0.560500  0.735200  1
  O  O578  1  0.109500  0.439500  0.264800  1
  O  O579  1  0.689500  0.685800  0.746700  1
  O  O580  1  0.189500  0.314200  0.253300  1
  O  O581  1  0.569900  0.838500  0.603800  1
  O  O582  1  0.069900  0.161500  0.396200  1
  O  O583  1  0.359600  0.507000  0.609500  1
  O  O584  1  0.859600  0.493000  0.390500  1
  O  O585  1  0.320700  0.605000  0.558000  1
  O  O586  1  0.820700  0.395000  0.442000  1
  O  O587  1  0.837800  0.860300  0.721700  1
  O  O588  1  0.337800  0.139700  0.278300  1
