# generated using pymatgen
data_P8H198Pt8C143O17
_symmetry_space_group_name_H-M   'P 1'
_cell_length_a   15.61850000
_cell_length_b   16.19230000
_cell_length_c   29.93770000
_cell_angle_alpha   81.59750000
_cell_angle_beta   81.99720000
_cell_angle_gamma   72.56290000
_symmetry_Int_Tables_number   1
_chemical_formula_structural   P8H198Pt8C143O17
_chemical_formula_sum   'P16 H396 Pt16 C286 O34'
_cell_volume   7109.14345439
_cell_formula_units_Z   2
loop_
 _symmetry_equiv_pos_site_id
 _symmetry_equiv_pos_as_xyz
  1  'x, y, z'
loop_
 _atom_site_type_symbol
 _atom_site_label
 _atom_site_symmetry_multiplicity
 _atom_site_fract_x
 _atom_site_fract_y
 _atom_site_fract_z
 _atom_site_occupancy
  P  P1  1  0.788900  0.272800  0.382300  1
  P  P2  1  0.211100  0.727200  0.617700  1
  P  P3  1  0.020000  0.311300  0.446860  1
  P  P4  1  0.980000  0.688700  0.553140  1
  P  P5  1  0.094400  0.147800  0.160190  1
  P  P6  1  0.905600  0.852200  0.839810  1
  P  P7  1  0.334400  0.196400  0.213100  1
  P  P8  1  0.665600  0.803600  0.786900  1
  P  P9  1  0.936600  0.669900  0.063310  1
  P  P10  1  0.063400  0.330100  0.936690  1
  P  P11  1  0.192600  0.728000  0.089600  1
  P  P12  1  0.807400  0.272000  0.910400  1
  P  P13  1  0.665600  0.792000  0.274860  1
  P  P14  1  0.334400  0.208000  0.725140  1
  P  P15  1  0.898300  0.837800  0.334830  1
  P  P16  1  0.101700  0.162200  0.665170  1
  H  H17  1  0.935700  0.115400  0.467800  1
  H  H18  1  0.064300  0.884600  0.532200  1
  H  H19  1  0.031200  0.977300  0.462200  1
  H  H20  1  0.968800  0.022700  0.537800  1
  H  H21  1  0.151500  0.872600  0.419500  1
  H  H22  1  0.848500  0.127400  0.580500  1
  H  H23  1  0.253300  0.841200  0.358000  1
  H  H24  1  0.746700  0.158800  0.642000  1
  H  H25  1  0.309600  0.885000  0.279800  1
  H  H26  1  0.690400  0.115000  0.720200  1
  H  H27  1  0.312800  0.985100  0.217300  1
  H  H28  1  0.687200  0.014900  0.782700  1
  H  H29  1  0.109000  0.161800  0.280700  1
  H  H30  1  0.891000  0.838200  0.719300  1
  H  H31  1  0.033600  0.197500  0.342900  1
  H  H32  1  0.966400  0.802500  0.657100  1
  H  H33  1  0.387400  0.230900  0.019700  1
  H  H34  1  0.612600  0.769100  0.980300  1
  H  H35  1  0.320500  0.483000  0.964100  1
  H  H36  1  0.679500  0.517000  0.035900  1
  H  H37  1  0.194100  0.413900  0.085200  1
  H  H38  1  0.805900  0.586100  0.914800  1
  H  H39  1  0.464800  0.423200  0.916000  1
  H  H40  1  0.535200  0.576800  0.084000  1
  H  H41  1  0.375700  0.408700  0.901200  1
  H  H42  1  0.624300  0.591300  0.098800  1
  H  H43  1  0.488000  0.206100  0.910400  1
  H  H44  1  0.512000  0.793900  0.089600  1
  H  H45  1  0.638700  0.189500  0.786900  1
  H  H46  1  0.361300  0.810500  0.213100  1
  H  H47  1  0.516800  0.424300  0.831800  1
  H  H48  1  0.483200  0.575700  0.168200  1
  H  H49  1  0.596300  0.073600  0.918200  1
  H  H50  1  0.403700  0.926400  0.081800  1
  H  H51  1  0.606900  0.987200  0.895500  1
  H  H52  1  0.393100  0.012800  0.104500  1
  H  H53  1  0.480600  0.077100  0.976400  1
  H  H54  1  0.519400  0.922900  0.023600  1
  H  H55  1  0.332400  0.079700  0.005800  1
  H  H56  1  0.667600  0.920300  0.994200  1
  H  H57  1  0.236500  0.052500  0.957400  1
  H  H58  1  0.763500  0.947500  0.042600  1
  H  H59  1  0.290700  0.036000  0.880600  1
  H  H60  1  0.709300  0.964000  0.119400  1
  H  H61  1  0.435000  0.041000  0.854500  1
  H  H62  1  0.565000  0.959000  0.145500  1
  H  H63  1  0.651800  0.274900  0.720500  1
  H  H64  1  0.348200  0.725100  0.279500  1
  H  H65  1  0.731500  0.276900  0.748700  1
  H  H66  1  0.268500  0.723100  0.251300  1
  H  H67  1  0.714300  0.465000  0.736800  1
  H  H68  1  0.285700  0.535000  0.263200  1
  H  H69  1  0.785200  0.540300  0.675800  1
  H  H70  1  0.214800  0.459700  0.324200  1
  H  H71  1  0.806600  0.503100  0.604300  1
  H  H72  1  0.193400  0.496900  0.395700  1
  H  H73  1  0.769100  0.386200  0.590000  1
  H  H74  1  0.230900  0.613800  0.410000  1
  H  H75  1  0.709200  0.308300  0.644200  1
  H  H76  1  0.290800  0.691700  0.355800  1
  H  H77  1  0.015600  0.875200  0.019500  1
  H  H78  1  0.984400  0.124800  0.980500  1
  H  H79  1  0.933900  0.016300  0.028700  1
  H  H80  1  0.066100  0.983700  0.971300  1
  H  H81  1  0.836400  0.128200  0.076500  1
  H  H82  1  0.163600  0.871800  0.923500  1
  H  H83  1  0.766300  0.166300  0.146200  1
  H  H84  1  0.233700  0.833700  0.853800  1
  H  H85  1  0.711600  0.121200  0.225900  1
  H  H86  1  0.288400  0.878800  0.774100  1
  H  H87  1  0.704800  0.015400  0.284700  1
  H  H88  1  0.295200  0.984600  0.715300  1
  H  H89  1  0.873900  0.833400  0.211700  1
  H  H90  1  0.126100  0.166600  0.788300  1
  H  H91  1  0.955700  0.801800  0.151700  1
  H  H92  1  0.044300  0.198200  0.848300  1
  H  H93  1  0.615200  0.770100  0.477800  1
  H  H94  1  0.384800  0.229900  0.522200  1
  H  H95  1  0.668200  0.518200  0.531200  1
  H  H96  1  0.331800  0.481800  0.468800  1
  H  H97  1  0.781800  0.582000  0.405600  1
  H  H98  1  0.218200  0.418000  0.594400  1
  H  H99  1  0.639500  0.593400  0.594500  1
  H  H100  1  0.360500  0.406600  0.405500  1
  H  H101  1  0.544100  0.581200  0.587500  1
  H  H102  1  0.455900  0.418800  0.412500  1
  H  H103  1  0.524200  0.796400  0.585700  1
  H  H104  1  0.475800  0.203600  0.414300  1
  H  H105  1  0.415200  0.827900  0.714200  1
  H  H106  1  0.584800  0.172100  0.285800  1
  H  H107  1  0.525600  0.584900  0.675800  1
  H  H108  1  0.474400  0.415100  0.324200  1
  H  H109  1  0.420900  0.018100  0.595200  1
  H  H110  1  0.579100  0.981900  0.404800  1
  H  H111  1  0.427400  0.928800  0.576500  1
  H  H112  1  0.572600  0.071200  0.423500  1
  H  H113  1  0.537300  0.922600  0.515300  1
  H  H114  1  0.462700  0.077400  0.484700  1
  H  H115  1  0.681600  0.915600  0.484500  1
  H  H116  1  0.318400  0.084400  0.515500  1
  H  H117  1  0.782300  0.943900  0.528800  1
  H  H118  1  0.217700  0.056100  0.471200  1
  H  H119  1  0.740600  0.960400  0.604100  1
  H  H120  1  0.259400  0.039600  0.395900  1
  H  H121  1  0.592800  0.966900  0.636700  1
  H  H122  1  0.407200  0.033100  0.363300  1
  H  H123  1  0.498800  0.553600  0.763700  1
  H  H124  1  0.501200  0.446400  0.236300  1
  H  H125  1  0.423000  0.569700  0.729700  1
  H  H126  1  0.577000  0.430300  0.270300  1
  H  H127  1  0.299000  0.520100  0.770900  1
  H  H128  1  0.701000  0.479900  0.229100  1
  H  H129  1  0.199100  0.506400  0.834400  1
  H  H130  1  0.800900  0.493600  0.165600  1
  H  H131  1  0.200100  0.579400  0.899300  1
  H  H132  1  0.799900  0.420600  0.100700  1
  H  H133  1  0.301000  0.659400  0.893400  1
  H  H134  1  0.699000  0.340600  0.106600  1
  H  H135  1  0.422000  0.645300  0.836700  1
  H  H136  1  0.578000  0.354700  0.163300  1
  H  H137  1  0.853100  0.292300  0.306300  1
  H  H138  1  0.146900  0.707700  0.693700  1
  H  H139  1  0.881400  0.191700  0.324600  1
  H  H140  1  0.118600  0.808300  0.675400  1
  H  H141  1  0.802600  0.215200  0.264300  1
  H  H142  1  0.197400  0.784800  0.735700  1
  H  H143  1  0.718900  0.282100  0.289400  1
  H  H144  1  0.281100  0.717900  0.710600  1
  H  H145  1  0.746500  0.180900  0.308200  1
  H  H146  1  0.253500  0.819100  0.691800  1
  H  H147  1  0.704900  0.176100  0.390700  1
  H  H148  1  0.295100  0.823900  0.609300  1
  H  H149  1  0.802900  0.128700  0.406800  1
  H  H150  1  0.197100  0.871300  0.593200  1
  H  H151  1  0.691000  0.139700  0.471100  1
  H  H152  1  0.309000  0.860300  0.528900  1
  H  H153  1  0.660900  0.243600  0.460400  1
  H  H154  1  0.339100  0.756400  0.539600  1
  H  H155  1  0.758500  0.194000  0.476600  1
  H  H156  1  0.241500  0.806000  0.523400  1
  H  H157  1  0.639500  0.339700  0.372500  1
  H  H158  1  0.360500  0.660300  0.627500  1
  H  H159  1  0.668300  0.376900  0.412800  1
  H  H160  1  0.331700  0.623100  0.587200  1
  H  H161  1  0.636100  0.484300  0.351500  1
  H  H162  1  0.363900  0.515700  0.648500  1
  H  H163  1  0.713100  0.424500  0.319400  1
  H  H164  1  0.286900  0.575500  0.680600  1
  H  H165  1  0.739800  0.462800  0.360100  1
  H  H166  1  0.260200  0.537200  0.639900  1
  H  H167  1  0.140500  0.222800  0.408000  1
  H  H168  1  0.859500  0.777200  0.592000  1
  H  H169  1  0.120400  0.320400  0.384500  1
  H  H170  1  0.879600  0.679600  0.615500  1
  H  H171  1  0.263700  0.275600  0.411600  1
  H  H172  1  0.736300  0.724400  0.588400  1
  H  H173  1  0.219700  0.256700  0.462200  1
  H  H174  1  0.780300  0.743300  0.537800  1
  H  H175  1  0.200200  0.354500  0.438100  1
  H  H176  1  0.799800  0.645500  0.561900  1
  H  H177  1  0.060400  0.184400  0.497800  1
  H  H178  1  0.939600  0.815600  0.502200  1
  H  H179  1  0.085400  0.262000  0.515500  1
  H  H180  1  0.914600  0.738000  0.484500  1
  H  H181  1  0.965700  0.226800  0.563700  1
  H  H182  1  0.034300  0.773200  0.436300  1
  H  H183  1  0.906300  0.247300  0.521800  1
  H  H184  1  0.093700  0.752700  0.478200  1
  H  H185  1  0.931700  0.324400  0.539800  1
  H  H186  1  0.068300  0.675600  0.460200  1
  H  H187  1  0.948900  0.438700  0.481700  1
  H  H188  1  0.051100  0.561300  0.518300  1
  H  H189  1  0.056200  0.419300  0.478700  1
  H  H190  1  0.943800  0.580700  0.521300  1
  H  H191  1  0.995200  0.544400  0.428900  1
  H  H192  1  0.004800  0.455600  0.571100  1
  H  H193  1  0.952300  0.489000  0.403100  1
  H  H194  1  0.047700  0.511000  0.596900  1
  H  H195  1  0.059500  0.469600  0.400000  1
  H  H196  1  0.940500  0.530400  0.600000  1
  H  H197  1  0.055200  0.112900  0.093800  1
  H  H198  1  0.944800  0.887100  0.906200  1
  H  H199  1  0.117200  0.177200  0.080900  1
  H  H200  1  0.882800  0.822800  0.919100  1
  H  H201  1  0.180700  0.056300  0.059300  1
  H  H202  1  0.819300  0.943700  0.940700  1
  H  H203  1  0.167500  0.009400  0.109600  1
  H  H204  1  0.832500  0.990600  0.890400  1
  H  H205  1  0.230500  0.073100  0.098900  1
  H  H206  1  0.769500  0.926900  0.901100  1
  H  H207  1  0.026500  0.082400  0.225100  1
  H  H208  1  0.973500  0.917600  0.774900  1
  H  H209  1  0.977200  0.082400  0.181200  1
  H  H210  1  0.022800  0.917600  0.818800  1
  H  H211  1  0.075000  0.936800  0.200700  1
  H  H212  1  0.925000  0.063200  0.799300  1
  H  H213  1  0.159600  0.975100  0.195700  1
  H  H214  1  0.840400  0.024900  0.804300  1
  H  H215  1  0.111100  0.975400  0.151900  1
  H  H216  1  0.888900  0.024600  0.848100  1
  H  H217  1  0.026000  0.296900  0.138300  1
  H  H218  1  0.974000  0.703100  0.861700  1
  H  H219  1  0.954800  0.242400  0.139300  1
  H  H220  1  0.045200  0.757600  0.860700  1
  H  H221  1  0.916500  0.326900  0.203800  1
  H  H222  1  0.083500  0.673100  0.796200  1
  H  H223  1  0.013400  0.277600  0.220800  1
  H  H224  1  0.986600  0.722400  0.779200  1
  H  H225  1  0.941000  0.225200  0.221400  1
  H  H226  1  0.059000  0.774800  0.778600  1
  H  H227  1  0.438700  0.056900  0.199600  1
  H  H228  1  0.561300  0.943100  0.800400  1
  H  H229  1  0.439300  0.123300  0.154600  1
  H  H230  1  0.560700  0.876700  0.845400  1
  H  H231  1  0.576300  0.082700  0.182600  1
  H  H232  1  0.423700  0.917300  0.817400  1
  H  H233  1  0.530100  0.117900  0.230000  1
  H  H234  1  0.469900  0.882100  0.770000  1
  H  H235  1  0.530400  0.184800  0.185000  1
  H  H236  1  0.469600  0.815200  0.815000  1
  H  H237  1  0.344400  0.111800  0.281300  1
  H  H238  1  0.655600  0.888200  0.718700  1
  H  H239  1  0.412500  0.170300  0.275200  1
  H  H240  1  0.587500  0.829700  0.724800  1
  H  H241  1  0.292900  0.220100  0.332800  1
  H  H242  1  0.707100  0.779900  0.667200  1
  H  H243  1  0.220200  0.237200  0.297300  1
  H  H244  1  0.779800  0.762800  0.702700  1
  H  H245  1  0.288500  0.295500  0.291400  1
  H  H246  1  0.711500  0.704500  0.708600  1
  H  H247  1  0.401400  0.307500  0.210300  1
  H  H248  1  0.598600  0.692500  0.789700  1
  H  H249  1  0.374700  0.303000  0.161100  1
  H  H250  1  0.625300  0.697000  0.838900  1
  H  H251  1  0.277700  0.428300  0.192000  1
  H  H252  1  0.722300  0.571700  0.808000  1
  H  H253  1  0.247100  0.368400  0.234900  1
  H  H254  1  0.752900  0.631600  0.765100  1
  H  H255  1  0.220700  0.364200  0.185700  1
  H  H256  1  0.779300  0.635800  0.814300  1
  H  H257  1  0.850500  0.672700  0.002400  1
  H  H258  1  0.149500  0.327300  0.997600  1
  H  H259  1  0.870900  0.765100  0.000100  1
  H  H260  1  0.129100  0.234900  0.999900  1
  H  H261  1  0.966800  0.684000  0.940600  1
  H  H262  1  0.033200  0.316000  0.059400  1
  H  H263  1  0.007800  0.605800  0.977900  1
  H  H264  1  0.992200  0.394200  0.022100  1
  H  H265  1  0.028500  0.697400  0.975900  1
  H  H266  1  0.971500  0.302600  0.024100  1
  H  H267  1  0.892200  0.542800  0.068600  1
  H  H268  1  0.107800  0.457200  0.931400  1
  H  H269  1  0.997500  0.523100  0.051500  1
  H  H270  1  0.002500  0.476900  0.948500  1
  H  H271  1  0.978300  0.456900  0.125500  1
  H  H272  1  0.021700  0.543100  0.874500  1
  H  H273  1  0.923200  0.549400  0.142200  1
  H  H274  1  0.076800  0.450600  0.857800  1
  H  H275  1  0.028400  0.530000  0.125200  1
  H  H276  1  0.971600  0.470000  0.874800  1
  H  H277  1  0.850800  0.711300  0.129300  1
  H  H278  1  0.149200  0.288700  0.870700  1
  H  H279  1  0.825700  0.786900  0.088700  1
  H  H280  1  0.174300  0.213100  0.911300  1
  H  H281  1  0.700000  0.734400  0.115000  1
  H  H282  1  0.300000  0.265600  0.885000  1
  H  H283  1  0.757200  0.638100  0.104400  1
  H  H284  1  0.242800  0.361900  0.895600  1
  H  H285  1  0.732100  0.713900  0.063600  1
  H  H286  1  0.267900  0.286100  0.936400  1
  H  H287  1  0.314600  0.623800  0.057200  1
  H  H288  1  0.685400  0.376200  0.942800  1
  H  H289  1  0.347900  0.669100  0.092800  1
  H  H290  1  0.652100  0.330900  0.907200  1
  H  H291  1  0.360800  0.520100  0.120600  1
  H  H292  1  0.639200  0.479900  0.879400  1
  H  H293  1  0.254800  0.537400  0.119000  1
  H  H294  1  0.745200  0.462600  0.881000  1
  H  H295  1  0.290000  0.581900  0.154300  1
  H  H296  1  0.710000  0.418100  0.845700  1
  H  H297  1  0.252100  0.768300  0.138200  1
  H  H298  1  0.747900  0.231700  0.861800  1
  H  H299  1  0.151900  0.828000  0.132400  1
  H  H300  1  0.848100  0.172000  0.867600  1
  H  H301  1  0.162600  0.759100  0.199400  1
  H  H302  1  0.837400  0.240900  0.800600  1
  H  H303  1  0.199900  0.667500  0.179000  1
  H  H304  1  0.800100  0.332500  0.821000  1
  H  H305  1  0.099000  0.726600  0.172700  1
  H  H306  1  0.901000  0.273400  0.827300  1
  H  H307  1  0.235600  0.788600  0.008500  1
  H  H308  1  0.764400  0.211400  0.991500  1
  H  H309  1  0.172700  0.868200  0.034900  1
  H  H310  1  0.827300  0.131800  0.965100  1
  H  H311  1  0.306700  0.874600  0.020100  1
  H  H312  1  0.693300  0.125400  0.979900  1
  H  H313  1  0.342500  0.779800  0.046800  1
  H  H314  1  0.657500  0.220200  0.953200  1
  H  H315  1  0.279800  0.858700  0.073600  1
  H  H316  1  0.720200  0.141300  0.926400  1
  H  H317  1  0.661400  0.737400  0.203400  1
  H  H318  1  0.338600  0.262600  0.796600  1
  H  H319  1  0.737000  0.788400  0.196700  1
  H  H320  1  0.263000  0.211600  0.803300  1
  H  H321  1  0.810000  0.632900  0.199700  1
  H  H322  1  0.190000  0.367100  0.800300  1
  H  H323  1  0.757700  0.618400  0.248700  1
  H  H324  1  0.242300  0.381600  0.751300  1
  H  H325  1  0.832800  0.669200  0.242200  1
  H  H326  1  0.167200  0.330800  0.757800  1
  H  H327  1  0.674100  0.658000  0.316200  1
  H  H328  1  0.325900  0.342000  0.683800  1
  H  H329  1  0.590900  0.731000  0.337000  1
  H  H330  1  0.409100  0.269000  0.663000  1
  H  H331  1  0.537500  0.630900  0.307700  1
  H  H332  1  0.462500  0.369100  0.692300  1
  H  H333  1  0.587600  0.650200  0.258600  1
  H  H334  1  0.412400  0.349800  0.741400  1
  H  H335  1  0.504200  0.724100  0.279100  1
  H  H336  1  0.495800  0.275900  0.720900  1
  H  H337  1  0.595600  0.923500  0.235600  1
  H  H338  1  0.404400  0.076500  0.764400  1
  H  H339  1  0.533800  0.858400  0.241200  1
  H  H340  1  0.466200  0.141600  0.758800  1
  H  H341  1  0.469600  0.969100  0.291200  1
  H  H342  1  0.530400  0.030900  0.708800  1
  H  H343  1  0.561500  0.941500  0.314800  1
  H  H344  1  0.438500  0.058500  0.685200  1
  H  H345  1  0.500400  0.876300  0.320600  1
  H  H346  1  0.499600  0.123700  0.679400  1
  H  H347  1  0.029300  0.742400  0.362100  1
  H  H348  1  0.970700  0.257600  0.637900  1
  H  H349  1  0.945000  0.705100  0.379700  1
  H  H350  1  0.055000  0.294900  0.620300  1
  H  H351  1  0.042200  0.618300  0.324400  1
  H  H352  1  0.957800  0.381700  0.675600  1
  H  H353  1  0.030400  0.702600  0.287800  1
  H  H354  1  0.969600  0.297400  0.712200  1
  H  H355  1  0.946400  0.665100  0.305500  1
  H  H356  1  0.053600  0.334900  0.694500  1
  H  H357  1  0.856600  0.835400  0.413100  1
  H  H358  1  0.143400  0.164600  0.586900  1
  H  H359  1  0.926300  0.891200  0.398300  1
  H  H360  1  0.073700  0.108800  0.601700  1
  H  H361  1  0.794600  0.970700  0.425200  1
  H  H362  1  0.205400  0.029300  0.574800  1
  H  H363  1  0.747100  0.946900  0.386800  1
  H  H364  1  0.252900  0.053100  0.613200  1
  H  H365  1  0.817500  0.002900  0.373000  1
  H  H366  1  0.182500  0.997100  0.627000  1
  H  H367  1  0.942500  0.923900  0.269800  1
  H  H368  1  0.057500  0.076100  0.730200  1
  H  H369  1  0.961800  0.955700  0.315100  1
  H  H370  1  0.038200  0.044300  0.684900  1
  H  H371  1  0.085300  0.878800  0.277100  1
  H  H372  1  0.914700  0.121200  0.722900  1
  H  H373  1  0.043700  0.798000  0.285800  1
  H  H374  1  0.956300  0.202000  0.714200  1
  H  H375  1  0.066100  0.836100  0.327800  1
  H  H376  1  0.933900  0.163900  0.672200  1
  H  H377  1  0.467600  0.315900  0.127500  1
  H  H378  1  0.532400  0.684100  0.872500  1
  H  H379  1  0.427300  0.383700  0.085900  1
  H  H380  1  0.572700  0.616300  0.914100  1
  H  H381  1  0.511300  0.393100  0.107800  1
  H  H382  1  0.488700  0.606900  0.892200  1
  H  H383  1  0.592000  0.344600  0.005600  1
  H  H384  1  0.408000  0.655400  0.994400  1
  H  H385  1  0.575900  0.411400  0.042500  1
  H  H386  1  0.424100  0.588600  0.957500  1
  H  H387  1  0.491900  0.401200  0.020900  1
  H  H388  1  0.508100  0.598800  0.979100  1
  H  H389  1  0.097500  0.490300  0.231000  1
  H  H390  1  0.902500  0.509700  0.769000  1
  H  H391  1  0.010900  0.566200  0.246900  1
  H  H392  1  0.989100  0.433800  0.753100  1
  H  H393  1  0.001900  0.500900  0.213700  1
  H  H394  1  0.998100  0.499100  0.786300  1
  H  H395  1  0.896900  0.421500  0.306500  1
  H  H396  1  0.103100  0.578500  0.693500  1
  H  H397  1  0.895200  0.449200  0.253000  1
  H  H398  1  0.104800  0.550800  0.747000  1
  H  H399  1  0.879300  0.521800  0.286700  1
  H  H400  1  0.120700  0.478200  0.713300  1
  H  H401  1  0.402900  0.793500  0.358700  1
  H  H402  1  0.597100  0.206500  0.641300  1
  H  H403  1  0.374800  0.704800  0.369400  1
  H  H404  1  0.625200  0.295200  0.630600  1
  H  H405  1  0.478400  0.701800  0.355700  1
  H  H406  1  0.521600  0.298200  0.644300  1
  H  H407  1  0.465500  0.624900  0.466300  1
  H  H408  1  0.534500  0.375100  0.533700  1
  H  H409  1  0.516300  0.602600  0.417500  1
  H  H410  1  0.483700  0.397400  0.582500  1
  H  H411  1  0.411800  0.607200  0.428700  1
  H  H412  1  0.588200  0.392800  0.571300  1
  Pt  Pt413  1  0.902280  0.294860  0.415893  1
  Pt  Pt414  1  0.097720  0.705140  0.584107  1
  Pt  Pt415  1  0.212310  0.171640  0.186300  1
  Pt  Pt416  1  0.787690  0.828360  0.813700  1
  Pt  Pt417  1  0.066280  0.699280  0.073670  1
  Pt  Pt418  1  0.933720  0.300720  0.926330  1
  Pt  Pt419  1  0.775040  0.822010  0.306490  1
  Pt  Pt420  1  0.224960  0.177990  0.693510  1
  Pt  Pt421  1  0.945000  0.303400  0.430080  1
  Pt  Pt422  1  0.055000  0.696600  0.569920  1
  Pt  Pt423  1  0.228500  0.181100  0.193600  1
  Pt  Pt424  1  0.771500  0.818900  0.806400  1
  Pt  Pt425  1  0.106400  0.704000  0.084910  1
  Pt  Pt426  1  0.893600  0.296000  0.915090  1
  Pt  Pt427  1  0.802300  0.823200  0.317800  1
  Pt  Pt428  1  0.197700  0.176800  0.682200  1
  C  C429  1  0.978800  0.173300  0.405600  1
  C  C430  1  0.021200  0.826700  0.594400  1
  C  C431  1  0.976600  0.103800  0.441300  1
  C  C432  1  0.023400  0.896200  0.558700  1
  C  C433  1  0.032300  0.021600  0.437700  1
  C  C434  1  0.967700  0.978400  0.562300  1
  C  C435  1  0.090900  0.001500  0.398500  1
  C  C436  1  0.909100  0.998500  0.601500  1
  C  C437  1  0.152400  0.916900  0.395000  1
  C  C438  1  0.847600  0.083100  0.605000  1
  C  C439  1  0.211300  0.897500  0.358500  1
  C  C440  1  0.788700  0.102500  0.641500  1
  C  C441  1  0.211100  0.961400  0.320000  1
  C  C442  1  0.788900  0.038600  0.680000  1
  C  C443  1  0.269200  0.942000  0.280500  1
  C  C444  1  0.730800  0.058000  0.719500  1
  C  C445  1  0.270700  0.000900  0.242900  1
  C  C446  1  0.729300  0.999100  0.757100  1
  C  C447  1  0.208300  0.086600  0.242300  1
  C  C448  1  0.791700  0.913400  0.757700  1
  C  C449  1  0.151100  0.105600  0.280600  1
  C  C450  1  0.848900  0.894400  0.719400  1
  C  C451  1  0.151200  0.046000  0.320200  1
  C  C452  1  0.848800  0.954000  0.679800  1
  C  C453  1  0.092100  0.066700  0.361600  1
  C  C454  1  0.907900  0.933300  0.638400  1
  C  C455  1  0.033700  0.152800  0.367200  1
  C  C456  1  0.966300  0.847200  0.632800  1
  C  C457  1  0.279800  0.240800  0.096300  1
  C  C458  1  0.720200  0.759200  0.903700  1
  C  C459  1  0.289100  0.311600  0.057900  1
  C  C460  1  0.710900  0.688400  0.942100  1
  C  C461  1  0.352100  0.289700  0.021100  1
  C  C462  1  0.647900  0.710300  0.978900  1
  C  C463  1  0.364100  0.352900  0.986300  1
  C  C464  1  0.635900  0.647100  0.013700  1
  C  C465  1  0.312500  0.439400  0.987900  1
  C  C466  1  0.687500  0.560600  0.012100  1
  C  C467  1  0.249200  0.460400  0.024900  1
  C  C468  1  0.750800  0.539600  0.975100  1
  C  C469  1  0.237200  0.398200  0.059900  1
  C  C470  1  0.762800  0.601800  0.940100  1
  C  C471  1  0.197200  0.555800  0.025800  1
  C  C472  1  0.802800  0.444200  0.974200  1
  C  C473  1  0.436300  0.378700  0.911100  1
  C  C474  1  0.563700  0.621300  0.088900  1
  C  C475  1  0.493900  0.322100  0.875600  1
  C  C476  1  0.506100  0.677900  0.124400  1
  C  C477  1  0.511200  0.232900  0.882900  1
  C  C478  1  0.488800  0.767100  0.117100  1
  C  C479  1  0.563300  0.182100  0.849400  1
  C  C480  1  0.436700  0.817900  0.150600  1
  C  C481  1  0.600400  0.223500  0.809100  1
  C  C482  1  0.399600  0.776500  0.190900  1
  C  C483  1  0.580400  0.312900  0.802500  1
  C  C484  1  0.419600  0.687100  0.197500  1
  C  C485  1  0.528500  0.362800  0.835900  1
  C  C486  1  0.471500  0.637200  0.164100  1
  C  C487  1  0.571400  0.049000  0.896300  1
  C  C488  1  0.428600  0.951000  0.103700  1
  C  C489  1  0.474200  0.052700  0.913400  1
  C  C490  1  0.525800  0.947300  0.086600  1
  C  C491  1  0.441600  0.067500  0.957200  1
  C  C492  1  0.558400  0.932500  0.042800  1
  C  C493  1  0.353100  0.069200  0.975200  1
  C  C494  1  0.646900  0.930800  0.024800  1
  C  C495  1  0.295900  0.054800  0.946300  1
  C  C496  1  0.704100  0.945200  0.053700  1
  C  C497  1  0.328400  0.044100  0.900800  1
  C  C498  1  0.671600  0.955900  0.099200  1
  C  C499  1  0.415200  0.045400  0.885800  1
  C  C500  1  0.584800  0.954600  0.114200  1
  C  C501  1  0.678200  0.313300  0.733600  1
  C  C502  1  0.321800  0.686700  0.266400  1
  C  C503  1  0.704300  0.378400  0.697000  1
  C  C504  1  0.295700  0.621600  0.303000  1
  C  C505  1  0.725800  0.447500  0.707100  1
  C  C506  1  0.274200  0.552500  0.292900  1
  C  C507  1  0.766700  0.492200  0.670200  1
  C  C508  1  0.233300  0.507800  0.329800  1
  C  C509  1  0.780700  0.470000  0.628200  1
  C  C510  1  0.219300  0.530000  0.371800  1
  C  C511  1  0.758600  0.402200  0.620000  1
  C  C512  1  0.241400  0.597800  0.380000  1
  C  C513  1  0.723400  0.357600  0.651400  1
  C  C514  1  0.276600  0.642400  0.348600  1
  C  C515  1  0.994400  0.821700  0.086000  1
  C  C516  1  0.005600  0.178300  0.914000  1
  C  C517  1  0.986400  0.889200  0.048500  1
  C  C518  1  0.013600  0.110800  0.951500  1
  C  C519  1  0.937800  0.973000  0.054000  1
  C  C520  1  0.062200  0.027000  0.946000  1
  C  C521  1  0.893000  0.996900  0.096500  1
  C  C522  1  0.107000  0.003100  0.903500  1
  C  C523  1  0.840400  0.084900  0.101900  1
  C  C524  1  0.159600  0.915100  0.898100  1
  C  C525  1  0.796500  0.106900  0.142500  1
  C  C526  1  0.203500  0.893100  0.857500  1
  C  C527  1  0.795200  0.041000  0.180300  1
  C  C528  1  0.204800  0.959000  0.819700  1
  C  C529  1  0.743800  0.062200  0.222200  1
  C  C530  1  0.256200  0.937800  0.777800  1
  C  C531  1  0.740200  0.999000  0.257200  1
  C  C532  1  0.259800  0.001000  0.742800  1
  C  C533  1  0.786200  0.911500  0.254600  1
  C  C534  1  0.213800  0.088500  0.745400  1
  C  C535  1  0.839500  0.892200  0.214000  1
  C  C536  1  0.160500  0.107800  0.786000  1
  C  C537  1  0.846100  0.952800  0.176600  1
  C  C538  1  0.153900  0.047200  0.823400  1
  C  C539  1  0.898100  0.930900  0.133600  1
  C  C540  1  0.101900  0.069100  0.866400  1
  C  C541  1  0.950700  0.845400  0.126500  1
  C  C542  1  0.049300  0.154600  0.873500  1
  C  C543  1  0.707200  0.757000  0.396900  1
  C  C544  1  0.292800  0.243000  0.603100  1
  C  C545  1  0.699000  0.684900  0.435700  1
  C  C546  1  0.301000  0.315100  0.564300  1
  C  C547  1  0.644600  0.710300  0.474900  1
  C  C548  1  0.355400  0.289700  0.525100  1
  C  C549  1  0.633900  0.645700  0.510400  1
  C  C550  1  0.366100  0.354300  0.489600  1
  C  C551  1  0.676300  0.560900  0.506900  1
  C  C552  1  0.323700  0.439100  0.493100  1
  C  C553  1  0.732400  0.535400  0.467600  1
  C  C554  1  0.267600  0.464600  0.532400  1
  C  C555  1  0.743400  0.598600  0.432200  1
  C  C556  1  0.256600  0.401400  0.567800  1
  C  C557  1  0.777100  0.439600  0.464000  1
  C  C558  1  0.222900  0.560400  0.536000  1
  C  C559  1  0.576500  0.624800  0.588500  1
  C  C560  1  0.423500  0.375200  0.411500  1
  C  C561  1  0.530700  0.682400  0.625800  1
  C  C562  1  0.469300  0.317600  0.374200  1
  C  C563  1  0.509100  0.772600  0.615600  1
  C  C564  1  0.490900  0.227400  0.384400  1
  C  C565  1  0.467000  0.827700  0.647700  1
  C  C566  1  0.533000  0.172300  0.352300  1
  C  C567  1  0.444800  0.791100  0.691300  1
  C  C568  1  0.555200  0.208900  0.308700  1
  C  C569  1  0.466000  0.700400  0.701600  1
  C  C570  1  0.534000  0.299600  0.298400  1
  C  C571  1  0.509900  0.646400  0.668700  1
  C  C572  1  0.490100  0.353600  0.331300  1
  C  C573  1  0.454600  0.955500  0.596400  1
  C  C574  1  0.545400  0.044500  0.403600  1
  C  C575  1  0.550800  0.947700  0.577600  1
  C  C576  1  0.449200  0.052300  0.422400  1
  C  C577  1  0.578700  0.931400  0.533300  1
  C  C578  1  0.421300  0.068600  0.466700  1
  C  C579  1  0.662900  0.927800  0.515000  1
  C  C580  1  0.337100  0.072200  0.485000  1
  C  C581  1  0.723700  0.942500  0.541800  1
  C  C582  1  0.276300  0.057500  0.458200  1
  C  C583  1  0.698000  0.954300  0.585900  1
  C  C584  1  0.302000  0.045700  0.414100  1
  C  C585  1  0.610700  0.957900  0.605700  1
  C  C586  1  0.389300  0.042100  0.394300  1
  C  C587  1  0.438800  0.591000  0.755900  1
  C  C588  1  0.561200  0.409000  0.244100  1
  C  C589  1  0.367100  0.586500  0.797200  1
  C  C590  1  0.632900  0.413500  0.202800  1
  C  C591  1  0.301800  0.545000  0.797300  1
  C  C592  1  0.698200  0.455000  0.202700  1
  C  C593  1  0.241000  0.538600  0.834300  1
  C  C594  1  0.759000  0.461400  0.165700  1
  C  C595  1  0.241500  0.581400  0.873000  1
  C  C596  1  0.758500  0.418600  0.127000  1
  C  C597  1  0.304300  0.624800  0.869800  1
  C  C598  1  0.695700  0.375200  0.130200  1
  C  C599  1  0.373300  0.622700  0.834700  1
  C  C600  1  0.626700  0.377300  0.165300  1
  C  C601  1  0.829400  0.244700  0.322600  1
  C  C602  1  0.170600  0.755300  0.677400  1
  C  C603  1  0.769500  0.229500  0.293800  1
  C  C604  1  0.230500  0.770500  0.706200  1
  C  C605  1  0.751600  0.182300  0.408100  1
  C  C606  1  0.248400  0.817700  0.591900  1
  C  C607  1  0.711800  0.190700  0.458800  1
  C  C608  1  0.288200  0.809300  0.541200  1
  C  C609  1  0.687300  0.360400  0.381600  1
  C  C610  1  0.312700  0.639600  0.618400  1
  C  C611  1  0.694700  0.439900  0.350500  1
  C  C612  1  0.305300  0.560100  0.649500  1
  C  C613  1  0.126900  0.284100  0.414100  1
  C  C614  1  0.873100  0.715900  0.585900  1
  C  C615  1  0.210300  0.293600  0.433300  1
  C  C616  1  0.789700  0.706400  0.566700  1
  C  C617  1  0.038300  0.247000  0.502100  1
  C  C618  1  0.961700  0.753000  0.497900  1
  C  C619  1  0.953000  0.262800  0.534800  1
  C  C620  1  0.047000  0.737200  0.465200  1
  C  C621  1  0.005700  0.420500  0.461700  1
  C  C622  1  0.994300  0.579500  0.538300  1
  C  C623  1  0.002900  0.486800  0.419600  1
  C  C624  1  0.997100  0.513200  0.580400  1
  C  C625  1  0.110000  0.125000  0.100800  1
  C  C626  1  0.890000  0.875000  0.899200  1
  C  C627  1  0.176000  0.063000  0.091700  1
  C  C628  1  0.824000  0.937000  0.908300  1
  C  C629  1  0.036000  0.074000  0.192400  1
  C  C630  1  0.964000  0.926000  0.807600  1
  C  C631  1  0.102000  0.982000  0.184400  1
  C  C632  1  0.898000  0.018000  0.815600  1
  C  C633  1  0.002900  0.249500  0.155400  1
  C  C634  1  0.997100  0.750500  0.844600  1
  C  C635  1  0.965000  0.272000  0.205000  1
  C  C636  1  0.035000  0.728000  0.795000  1
  C  C637  1  0.440700  0.116900  0.187900  1
  C  C638  1  0.559300  0.883100  0.812100  1
  C  C639  1  0.526400  0.126400  0.197100  1
  C  C640  1  0.473600  0.873600  0.802900  1
  C  C641  1  0.350500  0.170900  0.271000  1
  C  C642  1  0.649500  0.829100  0.729000  1
  C  C643  1  0.281600  0.237100  0.300900  1
  C  C644  1  0.718400  0.762900  0.699100  1
  C  C645  1  0.353900  0.300000  0.193900  1
  C  C646  1  0.646100  0.700000  0.806100  1
  C  C647  1  0.267200  0.371600  0.202400  1
  C  C648  1  0.732800  0.628400  0.797600  1
  C  C649  1  0.896900  0.701200  0.005700  1
  C  C650  1  0.103100  0.298800  0.994300  1
  C  C651  1  0.983000  0.669000  0.971800  1
  C  C652  1  0.017000  0.331000  0.028200  1
  C  C653  1  0.949100  0.553900  0.073300  1
  C  C654  1  0.050900  0.446100  0.926700  1
  C  C655  1  0.971700  0.519600  0.120600  1
  C  C656  1  0.028300  0.480400  0.879400  1
  C  C657  1  0.837300  0.723400  0.097200  1
  C  C658  1  0.162700  0.276600  0.902800  1
  C  C659  1  0.748400  0.700300  0.094800  1
  C  C660  1  0.251600  0.299700  0.905200  1
  C  C661  1  0.300200  0.643700  0.087800  1
  C  C662  1  0.699800  0.356300  0.912200  1
  C  C663  1  0.301600  0.563300  0.123800  1
  C  C664  1  0.698400  0.436700  0.876200  1
  C  C665  1  0.190000  0.767000  0.135400  1
  C  C666  1  0.810000  0.233000  0.864600  1
  C  C667  1  0.161000  0.727400  0.174200  1
  C  C668  1  0.839000  0.272600  0.825800  1
  C  C669  1  0.223900  0.814600  0.037400  1
  C  C670  1  0.776100  0.185400  0.962600  1
  C  C671  1  0.292000  0.833000  0.044900  1
  C  C672  1  0.708000  0.167000  0.955100  1
  C  C673  1  0.710600  0.747000  0.217600  1
  C  C674  1  0.289400  0.253000  0.782400  1
  C  C675  1  0.784800  0.658600  0.228000  1
  C  C676  1  0.215200  0.341400  0.772000  1
  C  C677  1  0.622200  0.708400  0.308300  1
  C  C678  1  0.377800  0.291600  0.691700  1
  C  C679  1  0.557000  0.675400  0.286400  1
  C  C680  1  0.443000  0.324600  0.713600  1
  C  C681  1  0.573500  0.879800  0.256800  1
  C  C682  1  0.426500  0.120200  0.743200  1
  C  C683  1  0.521500  0.920400  0.299800  1
  C  C684  1  0.478500  0.079600  0.700200  1
  C  C685  1  0.974400  0.733700  0.353000  1
  C  C686  1  0.025600  0.266300  0.647000  1
  C  C687  1  0.001000  0.674000  0.314100  1
  C  C688  1  0.999000  0.326000  0.685900  1
  C  C689  1  0.871200  0.881100  0.390200  1
  C  C690  1  0.128800  0.118900  0.609800  1
  C  C691  1  0.802800  0.955600  0.394100  1
  C  C692  1  0.197200  0.044400  0.605900  1
  C  C693  1  0.964000  0.904000  0.300200  1
  C  C694  1  0.036000  0.096000  0.699800  1
  C  C695  1  0.045000  0.851000  0.298000  1
  C  C696  1  0.955000  0.149000  0.702000  1
  C  C697  1  0.482600  0.351700  0.100000  1
  C  C698  1  0.517400  0.648300  0.900000  1
  C  C699  1  0.542200  0.297700  0.069300  1
  C  C700  1  0.457800  0.702300  0.930700  1
  C  C701  1  0.551300  0.370300  0.031100  1
  C  C702  1  0.448700  0.629700  0.968900  1
  C  C703  1  0.032000  0.506000  0.239300  1
  C  C704  1  0.968000  0.494000  0.760700  1
  C  C705  1  0.013000  0.450900  0.276300  1
  C  C706  1  0.987000  0.549100  0.723700  1
  C  C707  1  0.912000  0.462000  0.281000  1
  C  C708  1  0.088000  0.538000  0.719000  1
  C  C709  1  0.421500  0.732600  0.371900  1
  C  C710  1  0.578500  0.267400  0.628100  1
  C  C711  1  0.433000  0.729200  0.416600  1
  C  C712  1  0.567000  0.270800  0.583400  1
  C  C713  1  0.459000  0.632300  0.433800  1
  C  C714  1  0.541000  0.367700  0.566200  1
  O  O715  1  0.219600  0.264300  0.128700  1
  O  O716  1  0.780400  0.735700  0.871300  1
  O  O717  1  0.332600  0.167200  0.094100  1
  O  O718  1  0.667400  0.832800  0.905900  1
  O  O719  1  0.142000  0.570900  0.062200  1
  O  O720  1  0.858000  0.429100  0.937800  1
  O  O721  1  0.212400  0.613100  0.995600  1
  O  O722  1  0.787600  0.386900  0.004400  1
  O  O723  1  0.429400  0.322900  0.951600  1
  O  O724  1  0.570600  0.677100  0.048400  1
  O  O725  1  0.583100  0.094600  0.852300  1
  O  O726  1  0.416900  0.905400  0.147700  1
  O  O727  1  0.614600  0.362000  0.764500  1
  O  O728  1  0.385400  0.638000  0.235500  1
  O  O729  1  0.768300  0.728800  0.364500  1
  O  O730  1  0.231700  0.271200  0.635500  1
  O  O731  1  0.657600  0.830000  0.399200  1
  O  O732  1  0.342400  0.170000  0.600800  1
  O  O733  1  0.827300  0.423400  0.427200  1
  O  O734  1  0.172700  0.576600  0.572800  1
  O  O735  1  0.763400  0.385100  0.495100  1
  O  O736  1  0.236600  0.614900  0.504900  1
  O  O737  1  0.575500  0.678100  0.546700  1
  O  O738  1  0.424500  0.321900  0.453300  1
  O  O739  1  0.443000  0.915900  0.642000  1
  O  O740  1  0.557000  0.084100  0.358000  1
  O  O741  1  0.441000  0.675100  0.745000  1
  O  O742  1  0.559000  0.324900  0.255000  1
  O  O743  1  0.563300  0.216500  0.071600  1
  O  O744  1  0.436700  0.783500  0.928400  1
  O  O745  1  0.066000  0.400600  0.301700  1
  O  O746  1  0.934000  0.599400  0.698300  1
  O  O747  1  0.427600  0.797000  0.433900  1
  O  O748  1  0.572400  0.203000  0.566100  1
