# generated using pymatgen
data_Zn3H48C43(N2O9)2
_symmetry_space_group_name_H-M   'P 1'
_cell_length_a   9.59500000
_cell_length_b   12.41800000
_cell_length_c   18.67800000
_cell_angle_alpha   92.15500000
_cell_angle_beta   96.39300000
_cell_angle_gamma   90.15100000
_symmetry_Int_Tables_number   1
_chemical_formula_structural   Zn3H48C43(N2O9)2
_chemical_formula_sum   'Zn6 H96 C86 N8 O36'
_cell_volume   2210.04144312
_cell_formula_units_Z   2
loop_
 _symmetry_equiv_pos_site_id
 _symmetry_equiv_pos_as_xyz
  1  'x, y, z'
loop_
 _atom_site_type_symbol
 _atom_site_label
 _atom_site_symmetry_multiplicity
 _atom_site_fract_x
 _atom_site_fract_y
 _atom_site_fract_z
 _atom_site_occupancy
  Zn  Zn1  1  0.372300  0.492450  0.177960  1.0
  Zn  Zn2  1  0.627700  0.507550  0.822040  1.0
  Zn  Zn3  1  0.367800  0.313820  0.292730  1.0
  Zn  Zn4  1  0.632200  0.686180  0.707270  1.0
  Zn  Zn5  1  0.330100  0.065640  0.313560  1.0
  Zn  Zn6  1  0.669900  0.934360  0.686440  1.0
  H  H7  1  0.065300  0.112400  0.772100  1
  H  H8  1  0.934700  0.887600  0.227900  1
  H  H9  1  0.193000  0.115600  0.903700  1
  H  H10  1  0.807000  0.884400  0.096300  1
  H  H11  1  0.058000  0.043600  0.875400  1
  H  H12  1  0.942000  0.956400  0.124600  1
  H  H13  1  0.045500  0.172000  0.881600  1
  H  H14  1  0.954500  0.828000  0.118400  1
  H  H15  1  0.717300  0.073200  0.144900  1.0
  H  H16  1  0.282700  0.926800  0.855100  1.0
  H  H17  1  0.617900  0.067700  0.024000  1.0
  H  H18  1  0.382100  0.932300  0.976000  1.0
  H  H19  1  0.436400  0.182300  0.986700  1.0
  H  H20  1  0.563600  0.817700  0.013300  1.0
  H  H21  1  0.723200  0.070100  0.276200  1.0
  H  H22  1  0.276800  0.929900  0.723800  1.0
  H  H23  1  0.804100  0.167000  0.322400  1.0
  H  H24  1  0.195900  0.833000  0.677600  1.0
  H  H25  1  0.838800  0.138800  0.242000  1.0
  H  H26  1  0.161200  0.861200  0.758000  1.0
  H  H27  1  0.273700  0.312000  0.007800  1.0
  H  H28  1  0.726300  0.688000  0.992200  1.0
  H  H29  1  0.099800  0.585000  0.990200  1.0
  H  H30  1  0.900200  0.415000  0.009800  1.0
  H  H31  1  0.240600  0.529900  0.969900  1.0
  H  H32  1  0.759400  0.470100  0.030100  1.0
  H  H33  1  0.366500  0.615000  0.069200  1.0
  H  H34  1  0.633500  0.385000  0.930800  1.0
  H  H35  1  0.287900  0.700600  0.017200  1.0
  H  H36  1  0.712100  0.299400  0.982800  1.0
  H  H37  1  0.092100  0.717500  0.206900  1.0
  H  H38  1  0.907900  0.282500  0.793100  1.0
  H  H39  1  0.037100  0.463100  0.449400  1.0
  H  H40  1  0.962900  0.536900  0.550600  1.0
  H  H41  1  0.923300  0.622000  0.411700  1.0
  H  H42  1  0.076700  0.378000  0.588300  1.0
  H  H43  1  0.975800  0.707400  0.311700  1.0
  H  H44  1  0.024200  0.292600  0.688300  1.0
  H  H45  1  0.193300  0.222300  0.419700  1.0
  H  H46  1  0.806700  0.777700  0.580300  1.0
  H  H47  1  0.101600  0.317700  0.450700  1.0
  H  H48  1  0.898400  0.682300  0.549300  1.0
  H  H49  1  0.287000  0.254300  0.538600  1.0
  H  H50  1  0.713000  0.745700  0.461400  1.0
  H  H51  1  0.398600  0.301100  0.490100  1.0
  H  H52  1  0.601400  0.698900  0.509900  1.0
  H  H53  1  0.482900  0.422100  0.596600  1.0
  H  H54  1  0.517100  0.577900  0.403400  1.0
  H  H55  1  0.366600  0.362800  0.636400  1.0
  H  H56  1  0.633400  0.637200  0.363600  1.0
  H  H57  1  0.260100  0.551200  0.638800  1.0
  H  H58  1  0.739900  0.448800  0.361200  1.0
  H  H59  1  0.379400  0.518300  0.701200  1.0
  H  H60  1  0.620600  0.481700  0.298800  1.0
  H  H61  1  0.236600  0.918500  0.481400  1.0
  H  H62  1  0.763400  0.081500  0.518600  1.0
  H  H63  1  0.151000  0.744200  0.451800  1.0
  H  H64  1  0.849000  0.255800  0.548200  1.0
  H  H65  1  0.251900  0.601300  0.520400  1.0
  H  H66  1  0.748100  0.398700  0.479600  1.0
  H  H67  1  0.363600  0.042200  0.552900  1.0
  H  H68  1  0.636400  0.957800  0.447100  1.0
  H  H69  1  0.394500  0.741200  0.311200  1.0
  H  H70  1  0.605500  0.258800  0.688800  1.0
  H  H71  1  0.320000  0.855600  0.302300  1.0
  H  H72  1  0.680000  0.144400  0.697700  1.0
  H  H73  1  0.406300  0.796800  0.193800  1.0
  H  H74  1  0.593700  0.203200  0.806200  1.0
  H  H75  1  0.561400  0.790700  0.234400  1.0
  H  H76  1  0.438600  0.209300  0.765600  1.0
  H  H77  1  0.356100  0.987800  0.113800  1.0
  H  H78  1  0.643900  0.012200  0.886200  1.0
  H  H79  1  0.912500  0.283300  0.087500  1.0
  H  H80  1  0.087500  0.716700  0.912500  1.0
  H  H81  1  0.966400  0.156900  0.005500  1.0
  H  H82  1  0.033600  0.843100  0.994500  1.0
  H  H83  1  0.156400  0.044200  0.033600  1.0
  H  H84  1  0.843600  0.955800  0.966400  1.0
  H  H85  1  0.835600  0.354400  0.186100  1.0
  H  H86  1  0.164400  0.645600  0.813900  1.0
  H  H87  1  0.906500  0.437600  0.247000  1.0
  H  H88  1  0.093500  0.562400  0.753000  1.0
  H  H89  1  0.951700  0.438300  0.167100  1.0
  H  H90  1  0.048300  0.561700  0.832900  1.0
  H  H91  1  0.791800  0.633000  0.218600  1.0
  H  H92  1  0.208200  0.367000  0.781400  1.0
  H  H93  1  0.737200  0.715000  0.157700  1.0
  H  H94  1  0.262800  0.285000  0.842300  1.0
  H  H95  1  0.816900  0.607300  0.136400  1.0
  H  H96  1  0.183100  0.392700  0.863600  1.0
  H  H97  1  0.997600  0.929200  0.433400  1.0
  H  H98  1  0.002400  0.070800  0.566600  1.0
  H  H99  1  0.908900  0.025500  0.396700  1.0
  H  H100  1  0.091100  0.974500  0.603300  1.0
  H  H101  1  0.900800  0.907600  0.358800  1.0
  H  H102  1  0.099200  0.092400  0.641200  1.0
  C  C103  1  0.107000  0.112000  0.870400  1
  C  C104  1  0.893000  0.888000  0.129600  1
  C  C105  1  0.439600  0.265800  0.082000  1.0
  C  C106  1  0.560400  0.734200  0.918000  1.0
  C  C107  1  0.496900  0.274800  0.152100  1.0
  C  C108  1  0.503100  0.725200  0.847900  1.0
  C  C109  1  0.607700  0.203100  0.176800  1.0
  C  C110  1  0.392300  0.796900  0.823200  1.0
  C  C111  1  0.647900  0.124100  0.129000  1.0
  C  C112  1  0.352100  0.875900  0.871000  1.0
  C  C113  1  0.586100  0.119300  0.057300  1.0
  C  C114  1  0.413900  0.880700  0.942700  1.0
  C  C115  1  0.480800  0.188200  0.034800  1.0
  C  C116  1  0.519200  0.811800  0.965200  1.0
  C  C117  1  0.764400  0.142000  0.274000  1.0
  C  C118  1  0.235600  0.858000  0.726000  1.0
  C  C119  1  0.323300  0.332900  0.053100  1.0
  C  C120  1  0.676700  0.667100  0.946900  1.0
  C  C121  1  0.189800  0.554300  0.010900  1.0
  C  C122  1  0.810200  0.445700  0.989100  1.0
  C  C123  1  0.273300  0.642900  0.050900  1.0
  C  C124  1  0.726700  0.357100  0.949100  1.0
  C  C125  1  0.142300  0.652800  0.216000  1.0
  C  C126  1  0.857700  0.347200  0.784000  1.0
  C  C127  1  0.125900  0.603000  0.281600  1.0
  C  C128  1  0.874100  0.397000  0.718400  1.0
  C  C129  1  0.199000  0.508000  0.307400  1.0
  C  C130  1  0.801000  0.492000  0.692600  1.0
  C  C131  1  0.162000  0.462500  0.365700  1.0
  C  C132  1  0.838000  0.537500  0.634300  1.0
  C  C133  1  0.059400  0.499100  0.408100  1.0
  C  C134  1  0.940600  0.500900  0.591900  1.0
  C  C135  1  0.993300  0.592100  0.384800  1.0
  C  C136  1  0.006700  0.407900  0.615200  1.0
  C  C137  1  0.024100  0.643200  0.324700  1.0
  C  C138  1  0.975900  0.356800  0.675300  1.0
  C  C139  1  0.196000  0.298200  0.438200  1.0
  C  C140  1  0.804000  0.701800  0.561800  1.0
  C  C141  1  0.303000  0.311200  0.504800  1.0
  C  C142  1  0.697000  0.688800  0.495200  1.0
  C  C143  1  0.384000  0.424700  0.606600  1.0
  C  C144  1  0.616000  0.575300  0.393400  1.0
  C  C145  1  0.359200  0.529200  0.648800  1.0
  C  C146  1  0.640800  0.470800  0.351200  1.0
  C  C147  1  0.391200  0.692000  0.583300  1.0
  C  C148  1  0.608800  0.308000  0.416700  1.0
  C  C149  1  0.445400  0.794400  0.597600  1.0
  C  C150  1  0.554600  0.205600  0.402400  1.0
  C  C151  1  0.386300  0.879300  0.557000  1.0
  C  C152  1  0.613700  0.120700  0.443000  1.0
  C  C153  1  0.278500  0.859600  0.506600  1.0
  C  C154  1  0.721500  0.140400  0.493400  1.0
  C  C155  1  0.225000  0.757100  0.489400  1.0
  C  C156  1  0.775000  0.242900  0.510600  1.0
  C  C157  1  0.285800  0.672900  0.530300  1.0
  C  C158  1  0.714200  0.327100  0.469700  1.0
  C  C159  1  0.418500  0.989900  0.578900  1.0
  C  C160  1  0.581500  0.010100  0.421100  1.0
  C  C161  1  0.412000  0.818600  0.304600  1.0
  C  C162  1  0.588000  0.181400  0.695400  1.0
  C  C163  1  0.472000  0.830900  0.232800  1.0
  C  C164  1  0.528000  0.169100  0.767200  1.0
  C  C165  1  0.318600  0.022100  0.153600  1.0
  C  C166  1  0.681400  0.977900  0.846400  1.0
  C  C167  1  0.200800  0.095900  0.142500  1.0
  C  C168  1  0.799200  0.904100  0.857500  1.0
  C  C169  1  0.171300  0.178300  0.193600  1.0
  C  C170  1  0.828700  0.821700  0.806400  1.0
  C  C171  1  0.051400  0.246500  0.171000  1.0
  C  C172  1  0.948600  0.753500  0.829000  1.0
  C  C173  1  0.986300  0.235000  0.101300  1.0
  C  C174  1  0.013700  0.765000  0.898700  1.0
  C  C175  1  0.018000  0.161700  0.051900  1.0
  C  C176  1  0.982000  0.838300  0.948100  1.0
  C  C177  1  0.128000  0.093400  0.069200  1.0
  C  C178  1  0.872000  0.906600  0.930800  1.0
  C  C179  1  0.922000  0.392700  0.204500  1.0
  C  C180  1  0.078000  0.607300  0.795500  1.0
  C  C181  1  0.615000  0.579800  0.156200  1.0
  C  C182  1  0.385000  0.420200  0.843800  1.0
  C  C183  1  0.752000  0.638900  0.168300  1.0
  C  C184  1  0.248000  0.361100  0.831700  1.0
  C  C185  1  0.081000  0.987300  0.347700  1.0
  C  C186  1  0.919000  0.012700  0.652300  1.0
  C  C187  1  0.962000  0.960200  0.387500  1.0
  C  C188  1  0.038000  0.039800  0.612500  1.0
  N  N189  1  0.285700  0.416500  0.084900  1.0
  N  N190  1  0.714300  0.583500  0.915100  1.0
  N  N191  1  0.218500  0.618700  0.167800  1.0
  N  N192  1  0.781500  0.381300  0.832200  1.0
  N  N193  1  0.491200  0.973100  0.372600  1.0
  N  N194  1  0.508800  0.026900  0.627400  1.0
  N  N195  1  0.369200  0.005000  0.216600  1.0
  N  N196  1  0.630800  0.995000  0.783400  1.0
  O  O197  1  0.138900  0.118700  0.800900  1
  O  O198  1  0.861100  0.881300  0.199100  1
  O  O199  1  0.457500  0.344600  0.201500  1.0
  O  O200  1  0.542500  0.655400  0.798500  1.0
  O  O201  1  0.658000  0.215400  0.246600  1.0
  O  O202  1  0.342000  0.784600  0.753400  1.0
  O  O203  1  0.158600  0.461400  0.049100  1.0
  O  O204  1  0.841400  0.538600  0.950900  1.0
  O  O205  1  0.206800  0.688500  0.110700  1.0
  O  O206  1  0.793200  0.311500  0.889300  1.0
  O  O207  1  0.298300  0.462200  0.270200  1.0
  O  O208  1  0.701700  0.537800  0.729800  1.0
  O  O209  1  0.236800  0.368600  0.383300  1.0
  O  O210  1  0.763200  0.631400  0.616700  1.0
  O  O211  1  0.296800  0.414700  0.541300  1.0
  O  O212  1  0.703200  0.585300  0.458700  1.0
  O  O213  1  0.452400  0.613500  0.626900  1.0
  O  O214  1  0.547600  0.386500  0.373100  1.0
  O  O215  1  0.443200  0.193300  0.351400  1.0
  O  O216  1  0.556800  0.806700  0.648600  1.0
  O  O217  1  0.498100  0.860300  0.364500  1.0
  O  O218  1  0.501900  0.139700  0.635500  1.0
  O  O219  1  0.497800  0.938400  0.214700  1.0
  O  O220  1  0.502200  0.061600  0.785300  1.0
  O  O221  1  0.238300  0.189500  0.258500  1.0
  O  O222  1  0.761700  0.810500  0.741500  1.0
  O  O223  1  0.027800  0.317800  0.223500  1.0
  O  O224  1  0.972200  0.682200  0.776500  1.0
  O  O225  1  0.535600  0.587100  0.201500  1.0
  O  O226  1  0.464400  0.412900  0.798500  1.0
  O  O227  1  0.590900  0.519300  0.102200  1.0
  O  O228  1  0.409100  0.480700  0.897800  1.0
  O  O229  1  0.184100  0.037100  0.377700  1.0
  O  O230  1  0.815900  0.962900  0.622300  1.0
  O  O231  1  0.089800  0.955100  0.281700  1.0
  O  O232  1  0.910200  0.044900  0.718300  1.0
