# generated using pymatgen
data_H29PdC31(N4O5)2
_symmetry_space_group_name_H-M   'P 1'
_cell_length_a   9.90040000
_cell_length_b   17.66140000
_cell_length_c   20.66650000
_cell_angle_alpha   90.00000000
_cell_angle_beta   90.00000000
_cell_angle_gamma   96.37400000
_symmetry_Int_Tables_number   1
_chemical_formula_structural   H29PdC31(N4O5)2
_chemical_formula_sum   'H116 Pd4 C124 N32 O40'
_cell_volume   3591.30122514
_cell_formula_units_Z   4
loop_
 _symmetry_equiv_pos_site_id
 _symmetry_equiv_pos_as_xyz
  1  'x, y, z'
loop_
 _atom_site_type_symbol
 _atom_site_label
 _atom_site_symmetry_multiplicity
 _atom_site_fract_x
 _atom_site_fract_y
 _atom_site_fract_z
 _atom_site_occupancy
  H  H1  1  0.409000  0.330000  0.763000  1
  H  H2  1  0.091000  0.670000  0.263000  1
  H  H3  1  0.591000  0.670000  0.237000  1
  H  H4  1  0.909000  0.330000  0.737000  1
  H  H5  1  0.316000  0.325000  0.735000  1
  H  H6  1  0.184000  0.675000  0.235000  1
  H  H7  1  0.684000  0.675000  0.265000  1
  H  H8  1  0.816000  0.325000  0.765000  1
  H  H9  1  0.466000  0.291000  0.235000  1
  H  H10  1  0.034000  0.709000  0.735000  1
  H  H11  1  0.534000  0.709000  0.765000  1
  H  H12  1  0.966000  0.291000  0.265000  1
  H  H13  1  0.546000  0.342000  0.255000  1
  H  H14  1  0.954000  0.658000  0.755000  1
  H  H15  1  0.454000  0.658000  0.745000  1
  H  H16  1  0.046000  0.342000  0.245000  1
  H  H17  1  0.238700  0.354500  0.859500  1.0
  H  H18  1  0.261300  0.645500  0.359500  1.0
  H  H19  1  0.761300  0.645500  0.140500  1.0
  H  H20  1  0.738700  0.354500  0.640500  1.0
  H  H21  1  0.251500  0.461000  0.794000  1.0
  H  H22  1  0.248500  0.539000  0.294000  1.0
  H  H23  1  0.748500  0.539000  0.206000  1.0
  H  H24  1  0.751500  0.461000  0.706000  1.0
  H  H25  1  0.307200  0.580900  0.840600  1.0
  H  H26  1  0.192800  0.419100  0.340600  1.0
  H  H27  1  0.692800  0.419100  0.159400  1.0
  H  H28  1  0.807200  0.580900  0.659400  1.0
  H  H29  1  0.344000  0.590900  0.950700  1.0
  H  H30  1  0.156000  0.409100  0.450700  1.0
  H  H31  1  0.656000  0.409100  0.049300  1.0
  H  H32  1  0.844000  0.590900  0.549300  1.0
  H  H33  1  0.376700  0.589900  0.058200  1.0
  H  H34  1  0.123300  0.410100  0.558200  1.0
  H  H35  1  0.623300  0.410100  0.941800  1.0
  H  H36  1  0.876700  0.589900  0.441800  1.0
  H  H37  1  0.405600  0.576600  0.168600  1.0
  H  H38  1  0.094400  0.423400  0.668600  1.0
  H  H39  1  0.594400  0.423400  0.831400  1.0
  H  H40  1  0.905600  0.576600  0.331400  1.0
  H  H41  1  0.391200  0.455900  0.213100  1.0
  H  H42  1  0.108800  0.544100  0.713100  1.0
  H  H43  1  0.608800  0.544100  0.786900  1.0
  H  H44  1  0.891200  0.455900  0.286900  1.0
  H  H45  1  0.320600  0.353800  0.147500  1.0
  H  H46  1  0.179400  0.646200  0.647500  1.0
  H  H47  1  0.679400  0.646200  0.852500  1.0
  H  H48  1  0.820600  0.353800  0.352500  1.0
  H  H49  1  0.326000  0.191400  0.924900  1.0
  H  H50  1  0.174000  0.808600  0.424900  1.0
  H  H51  1  0.674000  0.808600  0.075100  1.0
  H  H52  1  0.826000  0.191400  0.575100  1.0
  H  H53  1  0.236500  0.115500  0.840200  1.0
  H  H54  1  0.263500  0.884500  0.340200  1.0
  H  H55  1  0.763500  0.884500  0.159800  1.0
  H  H56  1  0.736500  0.115500  0.659800  1.0
  H  H57  1  0.886500  0.207400  0.862900  1.0
  H  H58  1  0.613500  0.792600  0.362900  1.0
  H  H59  1  0.113500  0.792600  0.137100  1.0
  H  H60  1  0.386500  0.207400  0.637100  1.0
  H  H61  1  0.987700  0.283900  0.942500  1.0
  H  H62  1  0.512300  0.716100  0.442500  1.0
  H  H63  1  0.012300  0.716100  0.057500  1.0
  H  H64  1  0.487700  0.283900  0.557500  1.0
  H  H65  1  0.110400  0.130600  0.626900  1.0
  H  H66  1  0.389600  0.869400  0.126900  1.0
  H  H67  1  0.889600  0.869400  0.373100  1.0
  H  H68  1  0.610400  0.130600  0.873100  1.0
  H  H69  1  0.000800  0.096200  0.531400  1.0
  H  H70  1  0.499200  0.903800  0.031400  1.0
  H  H71  1  0.999200  0.903800  0.468600  1.0
  H  H72  1  0.500800  0.096200  0.968600  1.0
  H  H73  1  0.845300  0.985000  0.529800  1.0
  H  H74  1  0.654700  0.015000  0.029800  1.0
  H  H75  1  0.154700  0.015000  0.470200  1.0
  H  H76  1  0.345300  0.985000  0.970200  1.0
  H  H77  1  0.794500  0.918700  0.623800  1.0
  H  H78  1  0.705500  0.081300  0.123800  1.0
  H  H79  1  0.205500  0.081300  0.376200  1.0
  H  H80  1  0.294500  0.918700  0.876200  1.0
  H  H81  1  0.593500  0.874400  0.850800  1.0
  H  H82  1  0.906500  0.125600  0.350800  1.0
  H  H83  1  0.406500  0.125600  0.149200  1.0
  H  H84  1  0.093500  0.874400  0.649200  1.0
  H  H85  1  0.586600  0.794800  0.937000  1.0
  H  H86  1  0.913400  0.205200  0.437000  1.0
  H  H87  1  0.413400  0.205200  0.063000  1.0
  H  H88  1  0.086600  0.794800  0.563000  1.0
  H  H89  1  0.951700  0.741300  0.894400  1.0
  H  H90  1  0.548300  0.258700  0.394400  1.0
  H  H91  1  0.048300  0.258700  0.105600  1.0
  H  H92  1  0.451700  0.741300  0.605600  1.0
  H  H93  1  0.966700  0.824100  0.808700  1.0
  H  H94  1  0.533300  0.175900  0.308700  1.0
  H  H95  1  0.033300  0.175900  0.191300  1.0
  H  H96  1  0.466700  0.824100  0.691300  1.0
  H  H97  1  0.154000  0.093000  0.758000  1.0
  H  H98  1  0.346000  0.907000  0.258000  1.0
  H  H99  1  0.846000  0.907000  0.242000  1.0
  H  H100  1  0.654000  0.093000  0.742000  1.0
  H  H101  1  0.977000  0.917000  0.749000  1.0
  H  H102  1  0.523000  0.083000  0.249000  1.0
  H  H103  1  0.023000  0.083000  0.251000  1.0
  H  H104  1  0.477000  0.917000  0.751000  1.0
  H  H105  1  0.873100  0.075500  0.963300  1.0
  H  H106  1  0.626900  0.924500  0.463300  1.0
  H  H107  1  0.126900  0.924500  0.036700  1.0
  H  H108  1  0.373100  0.075500  0.536700  1.0
  H  H109  1  0.951400  0.096800  0.063900  1.0
  H  H110  1  0.548600  0.903200  0.563900  1.0
  H  H111  1  0.048600  0.903200  0.936100  1.0
  H  H112  1  0.451400  0.096800  0.436100  1.0
  H  H113  1  0.097000  0.005100  0.102800  1.0
  H  H114  1  0.403000  0.994900  0.602800  1.0
  H  H115  1  0.903000  0.994900  0.897200  1.0
  H  H116  1  0.597000  0.005100  0.397200  1.0
  Pd  Pd117  1  0.249960  0.321650  0.006170  1.0
  Pd  Pd118  1  0.250040  0.678350  0.506170  1.0
  Pd  Pd119  1  0.750040  0.678350  0.993830  1.0
  Pd  Pd120  1  0.749960  0.321650  0.493830  1.0
  C  C121  1  0.257400  0.402600  0.877700  1.0
  C  C122  1  0.242600  0.597400  0.377700  1.0
  C  C123  1  0.742600  0.597400  0.122300  1.0
  C  C124  1  0.757400  0.402600  0.622300  1.0
  C  C125  1  0.266700  0.465900  0.838300  1.0
  C  C126  1  0.233300  0.534100  0.338300  1.0
  C  C127  1  0.733300  0.534100  0.161700  1.0
  C  C128  1  0.766700  0.465900  0.661700  1.0
  C  C129  1  0.299500  0.537400  0.866300  1.0
  C  C130  1  0.200500  0.462600  0.366300  1.0
  C  C131  1  0.700500  0.462600  0.133700  1.0
  C  C132  1  0.799500  0.537400  0.633700  1.0
  C  C133  1  0.320400  0.543300  0.931900  1.0
  C  C134  1  0.179600  0.456700  0.431900  1.0
  C  C135  1  0.679600  0.456700  0.068100  1.0
  C  C136  1  0.820400  0.543300  0.568100  1.0
  C  C137  1  0.306300  0.477600  0.970600  1.0
  C  C138  1  0.193700  0.522400  0.470600  1.0
  C  C139  1  0.693700  0.522400  0.029400  1.0
  C  C140  1  0.806300  0.477600  0.529400  1.0
  C  C141  1  0.329200  0.476500  0.040200  1.0
  C  C142  1  0.170800  0.523500  0.540200  1.0
  C  C143  1  0.670800  0.523500  0.959800  1.0
  C  C144  1  0.829200  0.476500  0.459800  1.0
  C  C145  1  0.365700  0.542000  0.077400  1.0
  C  C146  1  0.134300  0.458000  0.577400  1.0
  C  C147  1  0.634300  0.458000  0.922600  1.0
  C  C148  1  0.865700  0.542000  0.422600  1.0
  C  C149  1  0.384900  0.533800  0.142700  1.0
  C  C150  1  0.115100  0.466200  0.642700  1.0
  C  C151  1  0.615100  0.466200  0.857300  1.0
  C  C152  1  0.884900  0.533800  0.357300  1.0
  C  C153  1  0.373600  0.463000  0.169500  1.0
  C  C154  1  0.126400  0.537000  0.669500  1.0
  C  C155  1  0.626400  0.537000  0.830500  1.0
  C  C156  1  0.873600  0.463000  0.330500  1.0
  C  C157  1  0.334700  0.402000  0.128900  1.0
  C  C158  1  0.165300  0.598000  0.628900  1.0
  C  C159  1  0.665300  0.598000  0.871100  1.0
  C  C160  1  0.834700  0.402000  0.371100  1.0
  C  C161  1  0.237800  0.195700  0.911100  1.0
  C  C162  1  0.262200  0.804300  0.411100  1.0
  C  C163  1  0.762200  0.804300  0.088900  1.0
  C  C164  1  0.737800  0.195700  0.588900  1.0
  C  C165  1  0.184300  0.149200  0.860500  1.0
  C  C166  1  0.315700  0.850800  0.360500  1.0
  C  C167  1  0.815700  0.850800  0.139500  1.0
  C  C168  1  0.684300  0.149200  0.639500  1.0
  C  C169  1  0.052800  0.154500  0.841400  1.0
  C  C170  1  0.447200  0.845500  0.341400  1.0
  C  C171  1  0.947200  0.845500  0.158600  1.0
  C  C172  1  0.552800  0.154500  0.658600  1.0
  C  C173  1  0.977000  0.204600  0.873800  1.0
  C  C174  1  0.523000  0.795400  0.373800  1.0
  C  C175  1  0.023000  0.795400  0.126200  1.0
  C  C176  1  0.477000  0.204600  0.626200  1.0
  C  C177  1  0.037500  0.249500  0.921700  1.0
  C  C178  1  0.462500  0.750500  0.421700  1.0
  C  C179  1  0.962500  0.750500  0.078300  1.0
  C  C180  1  0.537500  0.249500  0.578300  1.0
  C  C181  1  0.979800  0.109100  0.786500  1.0
  C  C182  1  0.520200  0.890900  0.286500  1.0
  C  C183  1  0.020200  0.890900  0.213500  1.0
  C  C184  1  0.479800  0.109100  0.713500  1.0
  C  C185  1  0.006900  0.050600  0.683500  1.0
  C  C186  1  0.493100  0.949400  0.183500  1.0
  C  C187  1  0.993100  0.949400  0.316500  1.0
  C  C188  1  0.506900  0.050600  0.816500  1.0
  C  C189  1  0.043100  0.089500  0.626100  1.0
  C  C190  1  0.456900  0.910500  0.126100  1.0
  C  C191  1  0.956900  0.910500  0.373900  1.0
  C  C192  1  0.543100  0.089500  0.873900  1.0
  C  C193  1  0.981400  0.068000  0.568900  1.0
  C  C194  1  0.518600  0.932000  0.068900  1.0
  C  C195  1  0.018600  0.932000  0.431100  1.0
  C  C196  1  0.481400  0.068000  0.931100  1.0
  C  C197  1  0.886900  0.001700  0.568300  1.0
  C  C198  1  0.613100  0.998300  0.068300  1.0
  C  C199  1  0.113100  0.998300  0.431700  1.0
  C  C200  1  0.386900  0.001700  0.931700  1.0
  C  C201  1  0.856800  0.962200  0.624400  1.0
  C  C202  1  0.643200  0.037800  0.124400  1.0
  C  C203  1  0.143200  0.037800  0.375600  1.0
  C  C204  1  0.356800  0.962200  0.875600  1.0
  C  C205  1  0.917700  0.986300  0.681500  1.0
  C  C206  1  0.582300  0.013700  0.181500  1.0
  C  C207  1  0.082300  0.013700  0.318500  1.0
  C  C208  1  0.417700  0.986300  0.818500  1.0
  C  C209  1  0.776900  0.908200  0.760100  1.0
  C  C210  1  0.723100  0.091800  0.260100  1.0
  C  C211  1  0.223100  0.091800  0.239900  1.0
  C  C212  1  0.276900  0.908200  0.739900  1.0
  C  C213  1  0.779300  0.856300  0.817800  1.0
  C  C214  1  0.720700  0.143700  0.317800  1.0
  C  C215  1  0.220700  0.143700  0.182200  1.0
  C  C216  1  0.279300  0.856300  0.682200  1.0
  C  C217  1  0.667000  0.847300  0.858900  1.0
  C  C218  1  0.833000  0.152700  0.358900  1.0
  C  C219  1  0.333000  0.152700  0.141100  1.0
  C  C220  1  0.167000  0.847300  0.641100  1.0
  C  C221  1  0.662800  0.799800  0.910400  1.0
  C  C222  1  0.837200  0.200200  0.410400  1.0
  C  C223  1  0.337200  0.200200  0.089600  1.0
  C  C224  1  0.162800  0.799800  0.589600  1.0
  C  C225  1  0.878800  0.768600  0.885500  1.0
  C  C226  1  0.621200  0.231400  0.385500  1.0
  C  C227  1  0.121200  0.231400  0.114500  1.0
  C  C228  1  0.378800  0.768600  0.614500  1.0
  C  C229  1  0.887600  0.817400  0.833300  1.0
  C  C230  1  0.612400  0.182600  0.333300  1.0
  C  C231  1  0.112400  0.182600  0.166700  1.0
  C  C232  1  0.387600  0.817400  0.666700  1.0
  C  C233  1  0.930000  0.040200  0.977300  1.0
  C  C234  1  0.570000  0.959800  0.477300  1.0
  C  C235  1  0.070000  0.959800  0.022700  1.0
  C  C236  1  0.430000  0.040200  0.522700  1.0
  C  C237  1  0.975000  0.055800  0.039700  1.0
  C  C238  1  0.525000  0.944200  0.539700  1.0
  C  C239  1  0.025000  0.944200  0.960300  1.0
  C  C240  1  0.475000  0.055800  0.460300  1.0
  C  C241  1  0.057000  0.004200  0.061900  1.0
  C  C242  1  0.443000  0.995800  0.561900  1.0
  C  C243  1  0.943000  0.995800  0.938100  1.0
  C  C244  1  0.557000  0.004200  0.438100  1.0
  N  N245  1  0.589400  0.274200  0.808400  1
  N  N246  1  0.910600  0.725800  0.308400  1
  N  N247  1  0.410600  0.725800  0.191600  1
  N  N248  1  0.089400  0.274200  0.691600  1
  N  N249  1  0.714400  0.263100  0.188900  1
  N  N250  1  0.785600  0.736900  0.688900  1
  N  N251  1  0.285600  0.736900  0.811100  1
  N  N252  1  0.214400  0.263100  0.311100  1
  N  N253  1  0.274900  0.409200  0.942100  1.0
  N  N254  1  0.225100  0.590800  0.442100  1.0
  N  N255  1  0.725100  0.590800  0.057900  1.0
  N  N256  1  0.774900  0.409200  0.557900  1.0
  N  N257  1  0.316500  0.406900  0.067500  1.0
  N  N258  1  0.183500  0.593100  0.567500  1.0
  N  N259  1  0.683500  0.593100  0.932500  1.0
  N  N260  1  0.816500  0.406900  0.432500  1.0
  N  N261  1  0.168600  0.245400  0.940100  1.0
  N  N262  1  0.331400  0.754600  0.440100  1.0
  N  N263  1  0.831400  0.754600  0.059900  1.0
  N  N264  1  0.668600  0.245400  0.559900  1.0
  N  N265  1  0.064300  0.081100  0.742300  1.0
  N  N266  1  0.435700  0.918900  0.242300  1.0
  N  N267  1  0.935700  0.918900  0.257700  1.0
  N  N268  1  0.564300  0.081100  0.757700  1.0
  N  N269  1  0.897900  0.940100  0.739200  1.0
  N  N270  1  0.602100  0.059900  0.239200  1.0
  N  N271  1  0.102100  0.059900  0.260800  1.0
  N  N272  1  0.397900  0.940100  0.760800  1.0
  N  N273  1  0.769100  0.758800  0.923900  1.0
  N  N274  1  0.730900  0.241200  0.423900  1.0
  N  N275  1  0.230900  0.241200  0.076100  1.0
  N  N276  1  0.269100  0.758800  0.576100  1.0
  O  O277  1  0.683300  0.278900  0.848400  1
  O  O278  1  0.816700  0.721100  0.348400  1
  O  O279  1  0.316700  0.721100  0.151600  1
  O  O280  1  0.183300  0.278900  0.651600  1
  O  O281  1  0.614000  0.300100  0.752800  1
  O  O282  1  0.886000  0.699900  0.252800  1
  O  O283  1  0.386000  0.699900  0.247200  1
  O  O284  1  0.114000  0.300100  0.747200  1
  O  O285  1  0.471300  0.269800  0.829400  1
  O  O286  1  0.028700  0.730200  0.329400  1
  O  O287  1  0.528700  0.730200  0.170600  1
  O  O288  1  0.971300  0.269800  0.670600  1
  O  O289  1  0.603000  0.252400  0.161400  1
  O  O290  1  0.897000  0.747600  0.661400  1
  O  O291  1  0.397000  0.747600  0.838600  1
  O  O292  1  0.103000  0.252400  0.338600  1
  O  O293  1  0.731000  0.315100  0.230500  1
  O  O294  1  0.769000  0.684900  0.730500  1
  O  O295  1  0.269000  0.684900  0.769500  1
  O  O296  1  0.231000  0.315100  0.269500  1
  O  O297  1  0.816000  0.242100  0.163400  1
  O  O298  1  0.684000  0.757900  0.663400  1
  O  O299  1  0.184000  0.757900  0.836600  1
  O  O300  1  0.316000  0.242100  0.336600  1
  O  O301  1  0.394000  0.359800  0.726400  1
  O  O302  1  0.106000  0.640200  0.226400  1
  O  O303  1  0.606000  0.640200  0.273600  1
  O  O304  1  0.894000  0.359800  0.773600  1
  O  O305  1  0.455000  0.327100  0.268900  1
  O  O306  1  0.045000  0.672900  0.768900  1
  O  O307  1  0.545000  0.672900  0.731100  1
  O  O308  1  0.955000  0.327100  0.231100  1
  O  O309  1  0.859200  0.101900  0.782200  1.0
  O  O310  1  0.640800  0.898100  0.282200  1.0
  O  O311  1  0.140800  0.898100  0.217800  1.0
  O  O312  1  0.359200  0.101900  0.717800  1.0
  O  O313  1  0.665700  0.917200  0.734300  1.0
  O  O314  1  0.834300  0.082800  0.234300  1.0
  O  O315  1  0.334300  0.082800  0.265700  1.0
  O  O316  1  0.165700  0.917200  0.765700  1.0
