# generated using pymatgen
data_ZnH20C24Br2(NO)2
_symmetry_space_group_name_H-M   'P 1'
_cell_length_a   7.94490000
_cell_length_b   10.07380000
_cell_length_c   27.79760000
_cell_angle_alpha   90.00000000
_cell_angle_beta   91.77500000
_cell_angle_gamma   90.00000000
_symmetry_Int_Tables_number   1
_chemical_formula_structural   ZnH20C24Br2(NO)2
_chemical_formula_sum   'Zn4 H80 C96 Br8 N8 O8'
_cell_volume   2223.72267042
_cell_formula_units_Z   4
loop_
 _symmetry_equiv_pos_site_id
 _symmetry_equiv_pos_as_xyz
  1  'x, y, z'
loop_
 _atom_site_type_symbol
 _atom_site_label
 _atom_site_symmetry_multiplicity
 _atom_site_fract_x
 _atom_site_fract_y
 _atom_site_fract_z
 _atom_site_occupancy
  Zn  Zn1  1  0.283480  0.211600  0.220990  1.0
  Zn  Zn2  1  0.216520  0.711600  0.279010  1.0
  Zn  Zn3  1  0.716520  0.788400  0.779010  1.0
  Zn  Zn4  1  0.783480  0.288400  0.720990  1.0
  H  H5  1  0.246000  0.883800  0.967300  1.0
  H  H6  1  0.254000  0.383800  0.532700  1.0
  H  H7  1  0.754000  0.116200  0.032700  1.0
  H  H8  1  0.746000  0.616200  0.467300  1.0
  H  H9  1  0.125500  0.907200  0.890600  1.0
  H  H10  1  0.374500  0.407200  0.609400  1.0
  H  H11  1  0.874500  0.092800  0.109400  1.0
  H  H12  1  0.625500  0.592800  0.390600  1.0
  H  H13  1  0.033300  0.114000  0.864200  1.0
  H  H14  1  0.466700  0.614000  0.635800  1.0
  H  H15  1  0.966700  0.886000  0.135800  1.0
  H  H16  1  0.533300  0.386000  0.364200  1.0
  H  H17  1  0.064200  0.294500  0.913900  1.0
  H  H18  1  0.435800  0.794500  0.586100  1.0
  H  H19  1  0.935800  0.705500  0.086100  1.0
  H  H20  1  0.564200  0.205500  0.413900  1.0
  H  H21  1  0.410900  0.890600  0.033000  1.0
  H  H22  1  0.089100  0.390600  0.467000  1.0
  H  H23  1  0.589100  0.109400  0.967000  1.0
  H  H24  1  0.910900  0.609400  0.533000  1.0
  H  H25  1  0.222500  0.886200  0.048700  1.0
  H  H26  1  0.277500  0.386200  0.451300  1.0
  H  H27  1  0.777500  0.113800  0.951300  1.0
  H  H28  1  0.722500  0.613800  0.548700  1.0
  H  H29  1  0.239500  0.100900  0.121800  1.0
  H  H30  1  0.260500  0.600900  0.378200  1.0
  H  H31  1  0.760500  0.899100  0.878200  1.0
  H  H32  1  0.739500  0.399100  0.621800  1.0
  H  H33  1  0.509400  0.971400  0.231400  1.0
  H  H34  1  0.990600  0.471400  0.268600  1.0
  H  H35  1  0.490600  0.028600  0.768600  1.0
  H  H36  1  0.009400  0.528600  0.731400  1.0
  H  H37  1  0.617800  0.809300  0.186200  1.0
  H  H38  1  0.882200  0.309300  0.313800  1.0
  H  H39  1  0.382200  0.190700  0.813800  1.0
  H  H40  1  0.117800  0.690700  0.686200  1.0
  H  H41  1  0.549300  0.789700  0.105300  1.0
  H  H42  1  0.950700  0.289700  0.394700  1.0
  H  H43  1  0.450700  0.210300  0.894700  1.0
  H  H44  1  0.049300  0.710300  0.605300  1.0
  H  H45  1  0.320900  0.629400  0.004800  1.0
  H  H46  1  0.179100  0.129400  0.495200  1.0
  H  H47  1  0.679100  0.370600  0.995200  1.0
  H  H48  1  0.820900  0.870600  0.504800  1.0
  H  H49  1  0.237600  0.618400  0.084300  1.0
  H  H50  1  0.262400  0.118400  0.415700  1.0
  H  H51  1  0.762400  0.381600  0.915700  1.0
  H  H52  1  0.737600  0.881600  0.584300  1.0
  H  H53  1  0.103600  0.428300  0.110600  1.0
  H  H54  1  0.396400  0.928300  0.389400  1.0
  H  H55  1  0.896400  0.571700  0.889400  1.0
  H  H56  1  0.603600  0.071700  0.610600  1.0
  H  H57  1  0.086000  0.244900  0.061600  1.0
  H  H58  1  0.414000  0.744900  0.438400  1.0
  H  H59  1  0.914000  0.755100  0.938400  1.0
  H  H60  1  0.586000  0.255100  0.561600  1.0
  H  H61  1  0.442900  0.613200  0.937100  1.0
  H  H62  1  0.057100  0.113200  0.562900  1.0
  H  H63  1  0.557100  0.386800  0.062900  1.0
  H  H64  1  0.942900  0.886800  0.437100  1.0
  H  H65  1  0.251100  0.630600  0.923000  1.0
  H  H66  1  0.248900  0.130600  0.577000  1.0
  H  H67  1  0.748900  0.369400  0.077000  1.0
  H  H68  1  0.751100  0.869400  0.423000  1.0
  H  H69  1  0.434800  0.299000  0.130000  1.0
  H  H70  1  0.065200  0.799000  0.370000  1.0
  H  H71  1  0.565200  0.701000  0.870000  1.0
  H  H72  1  0.934800  0.201000  0.630000  1.0
  H  H73  1  0.507400  0.436600  0.260400  1.0
  H  H74  1  0.992600  0.936600  0.239600  1.0
  H  H75  1  0.492600  0.563400  0.739600  1.0
  H  H76  1  0.007400  0.063400  0.760400  1.0
  H  H77  1  0.703700  0.583700  0.233200  1.0
  H  H78  1  0.796300  0.083700  0.266800  1.0
  H  H79  1  0.296300  0.416300  0.766800  1.0
  H  H80  1  0.203700  0.916300  0.733200  1.0
  H  H81  1  0.217100  0.422700  0.846000  1.0
  H  H82  1  0.282900  0.922700  0.654000  1.0
  H  H83  1  0.782900  0.577300  0.154000  1.0
  H  H84  1  0.717100  0.077300  0.346000  1.0
  C  C85  1  0.225800  0.076400  0.986800  1.0
  C  C86  1  0.274200  0.576400  0.513200  1.0
  C  C87  1  0.774200  0.923600  0.013200  1.0
  C  C88  1  0.725800  0.423600  0.486800  1.0
  C  C89  1  0.209100  0.966600  0.956700  1.0
  C  C90  1  0.290900  0.466600  0.543300  1.0
  C  C91  1  0.790900  0.033400  0.043300  1.0
  C  C92  1  0.709100  0.533400  0.456700  1.0
  C  C93  1  0.137000  0.980700  0.910700  1.0
  C  C94  1  0.363000  0.480700  0.589300  1.0
  C  C95  1  0.863000  0.019300  0.089300  1.0
  C  C96  1  0.637000  0.519300  0.410700  1.0
  C  C97  1  0.082400  0.104200  0.894800  1.0
  C  C98  1  0.417600  0.604200  0.605200  1.0
  C  C99  1  0.917600  0.895800  0.105200  1.0
  C  C100  1  0.582400  0.395800  0.394800  1.0
  C  C101  1  0.101500  0.211900  0.924700  1.0
  C  C102  1  0.398500  0.711900  0.575300  1.0
  C  C103  1  0.898500  0.788100  0.075300  1.0
  C  C104  1  0.601500  0.288100  0.424700  1.0
  C  C105  1  0.175400  0.201500  0.971100  1.0
  C  C106  1  0.324600  0.701500  0.528900  1.0
  C  C107  1  0.824600  0.798500  0.028900  1.0
  C  C108  1  0.675400  0.298500  0.471100  1.0
  C  C109  1  0.326700  0.936400  0.051300  1.0
  C  C110  1  0.173300  0.436400  0.448700  1.0
  C  C111  1  0.673300  0.063600  0.948700  1.0
  C  C112  1  0.826700  0.563600  0.551300  1.0
  C  C113  1  0.384400  0.947100  0.103000  1.0
  C  C114  1  0.115600  0.447100  0.397000  1.0
  C  C115  1  0.615600  0.052900  0.897000  1.0
  C  C116  1  0.884400  0.552900  0.603000  1.0
  C  C117  1  0.319300  0.041600  0.134200  1.0
  C  C118  1  0.180700  0.541600  0.365800  1.0
  C  C119  1  0.680700  0.958400  0.865800  1.0
  C  C120  1  0.819300  0.458400  0.634200  1.0
  C  C121  1  0.476200  0.965300  0.199100  1.0
  C  C122  1  0.023800  0.465300  0.300900  1.0
  C  C123  1  0.523800  0.034700  0.800900  1.0
  C  C124  1  0.976200  0.534700  0.699100  1.0
  C  C125  1  0.542300  0.869000  0.171900  1.0
  C  C126  1  0.957700  0.369000  0.328100  1.0
  C  C127  1  0.457700  0.131000  0.828100  1.0
  C  C128  1  0.042300  0.631000  0.671900  1.0
  C  C129  1  0.501600  0.856000  0.123700  1.0
  C  C130  1  0.998400  0.356000  0.376300  1.0
  C  C131  1  0.498400  0.144000  0.876300  1.0
  C  C132  1  0.001600  0.644000  0.623700  1.0
  C  C133  1  0.259700  0.441900  0.986000  1.0
  C  C134  1  0.240300  0.941900  0.514000  1.0
  C  C135  1  0.740300  0.558100  0.014000  1.0
  C  C136  1  0.759700  0.058100  0.486000  1.0
  C  C137  1  0.274700  0.551200  0.016300  1.0
  C  C138  1  0.225300  0.051200  0.483700  1.0
  C  C139  1  0.725300  0.448800  0.983700  1.0
  C  C140  1  0.774700  0.948800  0.516300  1.0
  C  C141  1  0.221900  0.546000  0.063800  1.0
  C  C142  1  0.278100  0.046000  0.436200  1.0
  C  C143  1  0.778100  0.454000  0.936200  1.0
  C  C144  1  0.721900  0.954000  0.563800  1.0
  C  C145  1  0.146300  0.431700  0.079800  1.0
  C  C146  1  0.353700  0.931700  0.420200  1.0
  C  C147  1  0.853700  0.568300  0.920200  1.0
  C  C148  1  0.646300  0.068300  0.579800  1.0
  C  C149  1  0.134200  0.322000  0.049800  1.0
  C  C150  1  0.365800  0.822000  0.450200  1.0
  C  C151  1  0.865800  0.678000  0.950200  1.0
  C  C152  1  0.634200  0.178000  0.549800  1.0
  C  C153  1  0.191600  0.321900  0.002300  1.0
  C  C154  1  0.308400  0.821900  0.497700  1.0
  C  C155  1  0.808400  0.678100  0.997700  1.0
  C  C156  1  0.691600  0.178100  0.502300  1.0
  C  C157  1  0.348200  0.573400  0.919600  1.0
  C  C158  1  0.151800  0.073400  0.580400  1.0
  C  C159  1  0.651800  0.426600  0.080400  1.0
  C  C160  1  0.848200  0.926600  0.419600  1.0
  C  C161  1  0.387800  0.559700  0.867700  1.0
  C  C162  1  0.112200  0.059700  0.632300  1.0
  C  C163  1  0.612200  0.440300  0.132300  1.0
  C  C164  1  0.887800  0.940300  0.367700  1.0
  C  C165  1  0.491600  0.356600  0.151000  1.0
  C  C166  1  0.008400  0.856600  0.349000  1.0
  C  C167  1  0.508400  0.643400  0.849000  1.0
  C  C168  1  0.991600  0.143400  0.651000  1.0
  C  C169  1  0.533000  0.437400  0.228000  1.0
  C  C170  1  0.967000  0.937400  0.272000  1.0
  C  C171  1  0.467000  0.562600  0.772000  1.0
  C  C172  1  0.033000  0.062600  0.728000  1.0
  C  C173  1  0.652400  0.524000  0.211900  1.0
  C  C174  1  0.847600  0.024000  0.288100  1.0
  C  C175  1  0.347600  0.476000  0.788100  1.0
  C  C176  1  0.152400  0.976000  0.711900  1.0
  C  C177  1  0.303200  0.477100  0.835700  1.0
  C  C178  1  0.196800  0.977100  0.664300  1.0
  C  C179  1  0.696800  0.522900  0.164300  1.0
  C  C180  1  0.803200  0.022900  0.335700  1.0
  Br  Br181  1  0.351190  0.172190  0.303070  1.0
  Br  Br182  1  0.148810  0.672190  0.196930  1.0
  Br  Br183  1  0.648810  0.827810  0.696930  1.0
  Br  Br184  1  0.851190  0.327810  0.803070  1.0
  Br  Br185  1  0.003330  0.250480  0.193040  1.0
  Br  Br186  1  0.496670  0.750480  0.306960  1.0
  Br  Br187  1  0.996670  0.749520  0.806960  1.0
  Br  Br188  1  0.503330  0.249520  0.693040  1.0
  N  N189  1  0.365100  0.052000  0.181100  1.0
  N  N190  1  0.134900  0.552000  0.318900  1.0
  N  N191  1  0.634900  0.948000  0.818900  1.0
  N  N192  1  0.865100  0.448000  0.681100  1.0
  N  N193  1  0.452500  0.353900  0.197300  1.0
  N  N194  1  0.047500  0.853900  0.302700  1.0
  N  N195  1  0.547500  0.646100  0.802700  1.0
  N  N196  1  0.952500  0.146100  0.697300  1.0
  O  O197  1  0.301000  0.067300  0.032700  1.0
  O  O198  1  0.199000  0.567300  0.467300  1.0
  O  O199  1  0.699000  0.932700  0.967300  1.0
  O  O200  1  0.801000  0.432700  0.532700  1.0
  O  O201  1  0.313900  0.445400  0.939000  1.0
  O  O202  1  0.186100  0.945400  0.561000  1.0
  O  O203  1  0.686100  0.554600  0.061000  1.0
  O  O204  1  0.813900  0.054600  0.439000  1.0
