# generated using pymatgen
data_ZnH20C24N2(ClO)2
_symmetry_space_group_name_H-M   'P 1'
_cell_length_a   7.86290000
_cell_length_b   10.11540000
_cell_length_c   27.11320000
_cell_angle_alpha   90.00000000
_cell_angle_beta   91.40400000
_cell_angle_gamma   90.00000000
_symmetry_Int_Tables_number   1
_chemical_formula_structural   ZnH20C24N2(ClO)2
_chemical_formula_sum   'Zn4 H80 C96 N8 Cl8 O8'
_cell_volume   2155.83832531
_cell_formula_units_Z   4
loop_
 _symmetry_equiv_pos_site_id
 _symmetry_equiv_pos_as_xyz
  1  'x, y, z'
loop_
 _atom_site_type_symbol
 _atom_site_label
 _atom_site_symmetry_multiplicity
 _atom_site_fract_x
 _atom_site_fract_y
 _atom_site_fract_z
 _atom_site_occupancy
  Zn  Zn1  1  0.783980  0.299470  0.222960  1.0
  Zn  Zn2  1  0.716020  0.799470  0.277040  1.0
  Zn  Zn3  1  0.216020  0.700530  0.777040  1.0
  Zn  Zn4  1  0.283980  0.200530  0.722960  1.0
  H  H5  1  0.819600  0.874500  0.009300  1.0
  H  H6  1  0.680400  0.374500  0.490700  1.0
  H  H7  1  0.180400  0.125500  0.990700  1.0
  H  H8  1  0.319600  0.625500  0.509300  1.0
  H  H9  1  0.744100  0.403200  0.119500  1.0
  H  H10  1  0.755900  0.903200  0.380500  1.0
  H  H11  1  0.255900  0.596800  0.880500  1.0
  H  H12  1  0.244100  0.096800  0.619500  1.0
  H  H13  1  0.583300  0.265800  0.062000  1.0
  H  H14  1  0.916700  0.765800  0.438000  1.0
  H  H15  1  0.416700  0.734200  0.938000  1.0
  H  H16  1  0.083300  0.234200  0.562000  1.0
  H  H17  1  0.746100  0.866400  0.925100  1.0
  H  H18  1  0.753900  0.366400  0.574900  1.0
  H  H19  1  0.253900  0.133600  0.074900  1.0
  H  H20  1  0.246100  0.633600  0.425100  1.0
  H  H21  1  0.940500  0.884700  0.938200  1.0
  H  H22  1  0.559500  0.384700  0.561800  1.0
  H  H23  1  0.059500  0.115300  0.061800  1.0
  H  H24  1  0.440500  0.615300  0.438200  1.0
  H  H25  1  0.994400  0.547700  0.233000  1.0
  H  H26  1  0.505600  0.047700  0.267000  1.0
  H  H27  1  0.005600  0.452300  0.767000  1.0
  H  H28  1  0.494400  0.952300  0.733000  1.0
  H  H29  1  0.721400  0.619100  0.044100  1.0
  H  H30  1  0.778600  0.119100  0.455900  1.0
  H  H31  1  0.278600  0.380900  0.955900  1.0
  H  H32  1  0.221400  0.880900  0.544100  1.0
  H  H33  1  0.913300  0.611800  0.029300  1.0
  H  H34  1  0.586700  0.111800  0.470700  1.0
  H  H35  1  0.086700  0.388200  0.970700  1.0
  H  H36  1  0.413300  0.888200  0.529300  1.0
  H  H37  1  0.030000  0.723700  0.102900  1.0
  H  H38  1  0.470000  0.223700  0.397100  1.0
  H  H39  1  0.970000  0.276300  0.897100  1.0
  H  H40  1  0.530000  0.776300  0.602900  1.0
  H  H41  1  0.011400  0.078700  0.264200  1.0
  H  H42  1  0.488600  0.578700  0.235800  1.0
  H  H43  1  0.988600  0.921300  0.735800  1.0
  H  H44  1  0.511400  0.421300  0.764200  1.0
  H  H45  1  0.564000  0.201200  0.910900  1.0
  H  H46  1  0.936000  0.701200  0.589100  1.0
  H  H47  1  0.436000  0.798800  0.089100  1.0
  H  H48  1  0.064000  0.298800  0.410900  1.0
  H  H49  1  0.935900  0.206100  0.129700  1.0
  H  H50  1  0.564100  0.706100  0.370300  1.0
  H  H51  1  0.064100  0.793900  0.870300  1.0
  H  H52  1  0.435900  0.293900  0.629700  1.0
  H  H53  1  0.211900  0.931400  0.238000  1.0
  H  H54  1  0.288100  0.431400  0.262000  1.0
  H  H55  1  0.788100  0.068600  0.762000  1.0
  H  H56  1  0.711900  0.568600  0.738000  1.0
  H  H57  1  0.531600  0.377900  0.858800  1.0
  H  H58  1  0.968400  0.877900  0.641200  1.0
  H  H59  1  0.468400  0.622100  0.141200  1.0
  H  H60  1  0.031600  0.122100  0.358800  1.0
  H  H61  1  0.746500  0.614300  0.961000  1.0
  H  H62  1  0.753500  0.114300  0.539000  1.0
  H  H63  1  0.253500  0.385700  0.039000  1.0
  H  H64  1  0.246500  0.885700  0.461000  1.0
  H  H65  1  0.729100  0.895800  0.089500  1.0
  H  H66  1  0.770900  0.395800  0.410500  1.0
  H  H67  1  0.270900  0.104200  0.910500  1.0
  H  H68  1  0.229100  0.604200  0.589500  1.0
  H  H69  1  0.711800  0.068900  0.844200  1.0
  H  H70  1  0.788200  0.568900  0.655800  1.0
  H  H71  1  0.288200  0.931100  0.155800  1.0
  H  H72  1  0.211800  0.431100  0.344200  1.0
  H  H73  1  0.625700  0.583600  0.882500  1.0
  H  H74  1  0.874300  0.083600  0.617500  1.0
  H  H75  1  0.374300  0.416400  0.117500  1.0
  H  H76  1  0.125700  0.916400  0.382500  1.0
  H  H77  1  0.599600  0.087700  0.114200  1.0
  H  H78  1  0.900400  0.587700  0.385800  1.0
  H  H79  1  0.400400  0.912300  0.885800  1.0
  H  H80  1  0.099600  0.412300  0.614200  1.0
  H  H81  1  0.096900  0.715200  0.185700  1.0
  H  H82  1  0.403100  0.215200  0.314300  1.0
  H  H83  1  0.903100  0.284800  0.814300  1.0
  H  H84  1  0.596900  0.784800  0.685700  1.0
  C  C85  1  0.673700  0.297100  0.968740  1.0
  C  C86  1  0.826300  0.797100  0.531260  1.0
  C  C87  1  0.326300  0.702900  0.031260  1.0
  C  C88  1  0.173700  0.202900  0.468740  1.0
  C  C89  1  0.771700  0.953600  0.019600  1.0
  C  C90  1  0.728300  0.453600  0.480400  1.0
  C  C91  1  0.228300  0.046400  0.980400  1.0
  C  C92  1  0.271700  0.546400  0.519600  1.0
  C  C93  1  0.756000  0.059000  0.986800  1.0
  C  C94  1  0.744000  0.559000  0.513200  1.0
  C  C95  1  0.244000  0.941000  0.013200  1.0
  C  C96  1  0.256000  0.441000  0.486800  1.0
  C  C97  1  0.726800  0.423200  0.983590  1.0
  C  C98  1  0.773200  0.923200  0.516410  1.0
  C  C99  1  0.273200  0.576800  0.016410  1.0
  C  C100  1  0.226800  0.076800  0.483590  1.0
  C  C101  1  0.818200  0.466000  0.132800  1.0
  C  C102  1  0.681800  0.966000  0.367200  1.0
  C  C103  1  0.181800  0.534000  0.867200  1.0
  C  C104  1  0.318200  0.034000  0.632800  1.0
  C  C105  1  0.631000  0.187400  0.050970  1.0
  C  C106  1  0.869000  0.687400  0.449030  1.0
  C  C107  1  0.369000  0.812600  0.949030  1.0
  C  C108  1  0.131000  0.312600  0.550970  1.0
  C  C109  1  0.844100  0.922900  0.920350  1.0
  C  C110  1  0.655900  0.422900  0.579650  1.0
  C  C111  1  0.155900  0.077100  0.079650  1.0
  C  C112  1  0.344100  0.577100  0.420350  1.0
  C  C113  1  0.689500  0.180800  0.002350  1.0
  C  C114  1  0.810500  0.680800  0.497650  1.0
  C  C115  1  0.310500  0.819200  0.997650  1.0
  C  C116  1  0.189500  0.319200  0.502350  1.0
  C  C117  1  0.878700  0.563000  0.101910  1.0
  C  C118  1  0.621300  0.063000  0.398090  1.0
  C  C119  1  0.121300  0.437000  0.898090  1.0
  C  C120  1  0.378700  0.937000  0.601910  1.0
  C  C121  1  0.964000  0.551100  0.199700  1.0
  C  C122  1  0.536000  0.051100  0.300300  1.0
  C  C123  1  0.036000  0.448900  0.800300  1.0
  C  C124  1  0.464000  0.948900  0.699700  1.0
  C  C125  1  0.825600  0.568500  0.048010  1.0
  C  C126  1  0.674400  0.068500  0.451990  1.0
  C  C127  1  0.174400  0.431500  0.951990  1.0
  C  C128  1  0.325600  0.931500  0.548010  1.0
  C  C129  1  0.985900  0.656900  0.122400  1.0
  C  C130  1  0.514100  0.156900  0.377600  1.0
  C  C131  1  0.014100  0.343100  0.877600  1.0
  C  C132  1  0.485900  0.843100  0.622400  1.0
  C  C133  1  0.037400  0.076200  0.231000  1.0
  C  C134  1  0.462600  0.576200  0.269000  1.0
  C  C135  1  0.962600  0.923800  0.769000  1.0
  C  C136  1  0.537400  0.423800  0.731000  1.0
  C  C137  1  0.600800  0.284200  0.921380  1.0
  C  C138  1  0.899200  0.784200  0.578620  1.0
  C  C139  1  0.399200  0.715800  0.078620  1.0
  C  C140  1  0.100800  0.215800  0.421380  1.0
  C  C141  1  0.881700  0.931600  0.866530  1.0
  C  C142  1  0.618300  0.431600  0.633470  1.0
  C  C143  1  0.118300  0.068400  0.133470  1.0
  C  C144  1  0.381700  0.568400  0.366530  1.0
  C  C145  1  0.994600  0.151500  0.151900  1.0
  C  C146  1  0.505400  0.651500  0.348100  1.0
  C  C147  1  0.005400  0.848500  0.848100  1.0
  C  C148  1  0.494600  0.348500  0.651900  1.0
  C  C149  1  0.159200  0.988700  0.215600  1.0
  C  C150  1  0.340800  0.488700  0.284400  1.0
  C  C151  1  0.840800  0.011300  0.784400  1.0
  C  C152  1  0.659200  0.511300  0.715600  1.0
  C  C153  1  0.581900  0.389900  0.889800  1.0
  C  C154  1  0.918100  0.889900  0.610200  1.0
  C  C155  1  0.418100  0.610100  0.110200  1.0
  C  C156  1  0.081900  0.110100  0.389800  1.0
  C  C157  1  0.709600  0.530800  0.951200  1.0
  C  C158  1  0.790400  0.030800  0.548800  1.0
  C  C159  1  0.290400  0.469200  0.048800  1.0
  C  C160  1  0.209600  0.969200  0.451200  1.0
  C  C161  1  0.716100  0.966000  0.067500  1.0
  C  C162  1  0.783900  0.466000  0.432500  1.0
  C  C163  1  0.283900  0.034000  0.932500  1.0
  C  C164  1  0.216100  0.534000  0.567500  1.0
  C  C165  1  0.797400  0.013100  0.833600  1.0
  C  C166  1  0.702600  0.513100  0.666400  1.0
  C  C167  1  0.202600  0.986900  0.166400  1.0
  C  C168  1  0.297400  0.486900  0.333600  1.0
  C  C169  1  0.636700  0.512500  0.904100  1.0
  C  C170  1  0.863300  0.012500  0.595900  1.0
  C  C171  1  0.363300  0.487500  0.095900  1.0
  C  C172  1  0.136700  0.987500  0.404100  1.0
  C  C173  1  0.642200  0.081200  0.082600  1.0
  C  C174  1  0.857800  0.581200  0.417400  1.0
  C  C175  1  0.357800  0.918800  0.917400  1.0
  C  C176  1  0.142200  0.418800  0.582600  1.0
  C  C177  1  0.026600  0.651200  0.171400  1.0
  C  C178  1  0.473400  0.151200  0.328600  1.0
  C  C179  1  0.973400  0.348800  0.828600  1.0
  C  C180  1  0.526600  0.848800  0.671400  1.0
  N  N181  1  0.859700  0.457200  0.180680  1.0
  N  N182  1  0.640300  0.957200  0.319320  1.0
  N  N183  1  0.140300  0.542800  0.819320  1.0
  N  N184  1  0.359700  0.042800  0.680680  1.0
  N  N185  1  0.954600  0.158200  0.199540  1.0
  N  N186  1  0.545400  0.658200  0.300460  1.0
  N  N187  1  0.045400  0.841800  0.800460  1.0
  N  N188  1  0.454600  0.341800  0.699540  1.0
  Cl  Cl189  1  0.519220  0.260080  0.196110  1.0
  Cl  Cl190  1  0.980780  0.760080  0.303890  1.0
  Cl  Cl191  1  0.480780  0.739920  0.803890  1.0
  Cl  Cl192  1  0.019220  0.239920  0.696110  1.0
  Cl  Cl193  1  0.853100  0.339760  0.301200  1.0
  Cl  Cl194  1  0.646900  0.839760  0.198800  1.0
  Cl  Cl195  1  0.146900  0.660240  0.698800  1.0
  Cl  Cl196  1  0.353100  0.160240  0.801200  1.0
  O  O197  1  0.799600  0.437600  0.029900  1.0
  O  O198  1  0.700400  0.937600  0.470100  1.0
  O  O199  1  0.200400  0.562400  0.970100  1.0
  O  O200  1  0.299600  0.062400  0.529900  1.0
  O  O201  1  0.810400  0.052300  0.938750  1.0
  O  O202  1  0.689600  0.552300  0.561250  1.0
  O  O203  1  0.189600  0.947700  0.061250  1.0
  O  O204  1  0.310400  0.447700  0.438750  1.0
