# generated using pymatgen
data_BH42PdC28S3N(O3F2)2
_symmetry_space_group_name_H-M   'P 1'
_cell_length_a   13.27310000
_cell_length_b   14.43680000
_cell_length_c   18.11200000
_cell_angle_alpha   71.26700000
_cell_angle_beta   71.42400000
_cell_angle_gamma   86.58000000
_symmetry_Int_Tables_number   1
_chemical_formula_structural   BH42PdC28S3N(O3F2)2
_chemical_formula_sum   'B4 H168 Pd4 C112 S12 N4 O24 F16'
_cell_volume   3112.03136046
_cell_formula_units_Z   4
loop_
 _symmetry_equiv_pos_site_id
 _symmetry_equiv_pos_as_xyz
  1  'x, y, z'
loop_
 _atom_site_type_symbol
 _atom_site_label
 _atom_site_symmetry_multiplicity
 _atom_site_fract_x
 _atom_site_fract_y
 _atom_site_fract_z
 _atom_site_occupancy
  B  B1  1  0.023500  0.211100  0.815600  1
  B  B2  1  0.976500  0.788900  0.184400  1
  B  B3  1  0.884300  0.298600  0.187400  1
  B  B4  1  0.115700  0.701400  0.812600  1
  H  H5  1  0.526600  0.056800  0.200400  1
  H  H6  1  0.473400  0.943200  0.799600  1
  H  H7  1  0.671700  0.113100  0.081900  1
  H  H8  1  0.328300  0.886900  0.918100  1
  H  H9  1  0.651500  0.157400  0.952300  1
  H  H10  1  0.348500  0.842600  0.047700  1
  H  H11  1  0.289000  0.093500  0.233900  1
  H  H12  1  0.711000  0.906500  0.766100  1
  H  H13  1  0.337400  0.988000  0.261900  1
  H  H14  1  0.662600  0.012000  0.738100  1
  H  H15  1  0.486000  0.093700  0.891500  1
  H  H16  1  0.514000  0.906300  0.108500  1
  H  H17  1  0.524800  0.205300  0.869800  1
  H  H18  1  0.475200  0.794700  0.130200  1
  H  H19  1  0.096400  0.078900  0.247200  1
  H  H20  1  0.903600  0.921100  0.752800  1
  H  H21  1  0.040500  0.008300  0.218000  1
  H  H22  1  0.959500  0.991700  0.782000  1
  H  H23  1  0.978800  0.957100  0.358800  1
  H  H24  1  0.021200  0.042900  0.641200  1
  H  H25  1  0.054600  0.874800  0.332400  1
  H  H26  1  0.945400  0.125200  0.667600  1
  H  H27  1  0.322500  0.072500  0.861500  1
  H  H28  1  0.677500  0.927500  0.138500  1
  H  H29  1  0.215400  0.130900  0.877000  1
  H  H30  1  0.784600  0.869100  0.123000  1
  H  H31  1  0.306000  0.174400  0.734900  1
  H  H32  1  0.694000  0.825600  0.265100  1
  H  H33  1  0.303000  0.268700  0.764300  1
  H  H34  1  0.697000  0.731300  0.235700  1
  H  H35  1  0.092400  0.821500  0.457500  1
  H  H36  1  0.907600  0.178500  0.542500  1
  H  H37  1  0.007100  0.896900  0.485200  1
  H  H38  1  0.992900  0.103100  0.514800  1
  H  H39  1  0.145700  0.976000  0.505500  1
  H  H40  1  0.854300  0.024000  0.494500  1
  H  H41  1  0.109900  0.867700  0.568800  1
  H  H42  1  0.890100  0.132300  0.431200  1
  H  H43  1  0.469800  0.344700  0.664400  1
  H  H44  1  0.530200  0.655300  0.335600  1
  H  H45  1  0.455000  0.263800  0.624700  1
  H  H46  1  0.545000  0.736200  0.375300  1
  H  H47  1  0.618500  0.197700  0.641400  1
  H  H48  1  0.381500  0.802300  0.358600  1
  H  H49  1  0.634700  0.307600  0.578900  1
  H  H50  1  0.365300  0.692400  0.421100  1
  H  H51  1  0.280400  0.831600  0.590500  1
  H  H52  1  0.719600  0.168400  0.409500  1
  H  H53  1  0.297200  0.947700  0.545600  1
  H  H54  1  0.702800  0.052300  0.454400  1
  H  H55  1  0.462300  0.865700  0.537100  1
  H  H56  1  0.537700  0.134300  0.462900  1
  H  H57  1  0.432700  0.811400  0.481500  1
  H  H58  1  0.567300  0.188600  0.518500  1
  H  H59  1  0.789900  0.320400  0.606000  1
  H  H60  1  0.210100  0.679600  0.394000  1
  H  H61  1  0.771400  0.215400  0.675600  1
  H  H62  1  0.228600  0.784600  0.324400  1
  H  H63  1  0.765300  0.295000  0.772400  1
  H  H64  1  0.234700  0.705000  0.227600  1
  H  H65  1  0.878900  0.308500  0.702700  1
  H  H66  1  0.121100  0.691500  0.297300  1
  H  H67  1  0.619200  0.829600  0.448700  1
  H  H68  1  0.380800  0.170400  0.551300  1
  H  H69  1  0.799600  0.858300  0.371200  1
  H  H70  1  0.200400  0.141700  0.628800  1
  H  H71  1  0.857400  0.005900  0.263900  1
  H  H72  1  0.142600  0.994100  0.736100  1
  H  H73  1  0.737100  0.126200  0.238000  1
  H  H74  1  0.262900  0.873800  0.762000  1
  H  H75  1  0.942500  0.431600  0.756500  1
  H  H76  1  0.057500  0.568400  0.243500  1
  H  H77  1  0.092200  0.538600  0.703400  1
  H  H78  1  0.907800  0.461400  0.296600  1
  H  H79  1  0.130400  0.651200  0.571800  1
  H  H80  1  0.869600  0.348800  0.428200  1
  H  H81  1  0.016400  0.661200  0.494900  1
  H  H82  1  0.983600  0.338800  0.505100  1
  H  H83  1  0.600200  0.238200  0.228700  1
  H  H84  1  0.399800  0.761800  0.771300  1
  H  H85  1  0.605100  0.227900  0.318600  1
  H  H86  1  0.394900  0.772100  0.681400  1
  H  H87  1  0.476600  0.340200  0.293000  1
  H  H88  1  0.523400  0.659800  0.707000  1
  H  H89  1  0.420500  0.267500  0.266000  1
  H  H90  1  0.579500  0.732500  0.734000  1
  H  H91  1  0.925100  0.615900  0.422700  1
  H  H92  1  0.074900  0.384100  0.577300  1
  H  H93  1  0.853100  0.690800  0.463900  1
  H  H94  1  0.146900  0.309200  0.536100  1
  H  H95  1  0.787700  0.642400  0.370800  1
  H  H96  1  0.212300  0.357600  0.629200  1
  H  H97  1  0.763700  0.535400  0.437000  1
  H  H98  1  0.236300  0.464600  0.563000  1
  H  H99  1  0.283900  0.126500  0.450600  1
  H  H100  1  0.716100  0.873500  0.549400  1
  H  H101  1  0.340300  0.126600  0.358600  1
  H  H102  1  0.659700  0.873400  0.641400  1
  H  H103  1  0.155900  0.158700  0.388900  1
  H  H104  1  0.844100  0.841300  0.611100  1
  H  H105  1  0.182500  0.260100  0.398600  1
  H  H106  1  0.817500  0.739900  0.601400  1
  H  H107  1  0.643700  0.577600  0.590200  1
  H  H108  1  0.356300  0.422400  0.409800  1
  H  H109  1  0.623300  0.499700  0.549400  1
  H  H110  1  0.376700  0.500300  0.450600  1
  H  H111  1  0.489100  0.659700  0.565200  1
  H  H112  1  0.510900  0.340300  0.434800  1
  H  H113  1  0.466400  0.573500  0.533400  1
  H  H114  1  0.533600  0.426500  0.466600  1
  H  H115  1  0.100700  0.322200  0.296400  1
  H  H116  1  0.899300  0.677800  0.703600  1
  H  H117  1  0.105500  0.229600  0.265200  1
  H  H118  1  0.894500  0.770400  0.734800  1
  H  H119  1  0.207900  0.416700  0.169500  1
  H  H120  1  0.792100  0.583300  0.830500  1
  H  H121  1  0.112300  0.368600  0.156100  1
  H  H122  1  0.887700  0.631400  0.843900  1
  H  H123  1  0.299100  0.533400  0.651400  1
  H  H124  1  0.700900  0.466600  0.348600  1
  H  H125  1  0.330800  0.618100  0.680900  1
  H  H126  1  0.669200  0.381900  0.319100  1
  H  H127  1  0.301600  0.414200  0.774600  1
  H  H128  1  0.698400  0.585800  0.225400  1
  H  H129  1  0.220600  0.495800  0.795200  1
  H  H130  1  0.779400  0.504200  0.204800  1
  H  H131  1  0.388500  0.381700  0.139400  1
  H  H132  1  0.611500  0.618300  0.860600  1
  H  H133  1  0.419900  0.270100  0.150700  1
  H  H134  1  0.580100  0.729900  0.849300  1
  H  H135  1  0.484900  0.385600  0.794200  1
  H  H136  1  0.515100  0.614400  0.205800  1
  H  H137  1  0.547900  0.490300  0.761500  1
  H  H138  1  0.452100  0.509700  0.238500  1
  H  H139  1  0.608200  0.336300  0.075200  1
  H  H140  1  0.391800  0.663700  0.924800  1
  H  H141  1  0.737300  0.384600  0.946000  1
  H  H142  1  0.262700  0.615400  0.054000  1
  H  H143  1  0.688900  0.434200  0.825500  1
  H  H144  1  0.311100  0.565800  0.174500  1
  H  H145  1  0.901900  0.118900  0.997000  1
  H  H146  1  0.098100  0.881100  0.003000  1
  H  H147  1  0.876200  0.159100  0.073500  1
  H  H148  1  0.123800  0.840900  0.926500  1
  H  H149  1  0.866800  0.043900  0.088800  1
  H  H150  1  0.133200  0.956100  0.911200  1
  H  H151  1  0.955200  0.350400  0.921300  1
  H  H152  1  0.044800  0.649600  0.078700  1
  H  H153  1  0.937700  0.459900  0.924500  1
  H  H154  1  0.062300  0.540100  0.075500  1
  H  H155  1  0.900400  0.369100  0.007500  1
  H  H156  1  0.099600  0.630900  0.992500  1
  H  H157  1  0.167000  0.418700  0.181900  1
  H  H158  1  0.833000  0.581300  0.818100  1
  H  H159  1  0.114000  0.343400  0.158100  1
  H  H160  1  0.886000  0.656600  0.841900  1
  H  H161  1  0.244000  0.435300  0.776400  1
  H  H162  1  0.756000  0.564700  0.223600  1
  H  H163  1  0.258400  0.524900  0.806200  1
  H  H164  1  0.741600  0.475100  0.193800  1
  H  H165  1  0.413100  0.357700  0.152400  1
  H  H166  1  0.586900  0.642300  0.847600  1
  H  H167  1  0.391600  0.256600  0.138600  1
  H  H168  1  0.608400  0.743400  0.861400  1
  H  H169  1  0.540800  0.410200  0.771800  1
  H  H170  1  0.459200  0.589800  0.228200  1
  H  H171  1  0.512300  0.515200  0.780800  1
  H  H172  1  0.487700  0.484800  0.219200  1
  Pd  Pd173  1  0.259040  0.087840  0.054940  1
  Pd  Pd174  1  0.740960  0.912160  0.945060  1
  Pd  Pd175  1  0.298880  0.399670  0.968480  1
  Pd  Pd176  1  0.701120  0.600330  0.031520  1
  C  C177  1  0.402700  0.094100  0.063700  1
  C  C178  1  0.597300  0.905900  0.936300  1
  C  C179  1  0.414800  0.068600  0.141400  1
  C  C180  1  0.585200  0.931400  0.858600  1
  C  C181  1  0.517000  0.075100  0.147900  1
  C  C182  1  0.483000  0.924900  0.852100  1
  C  C183  1  0.603100  0.108300  0.077200  1
  C  C184  1  0.396900  0.891700  0.922800  1
  C  C185  1  0.591600  0.134400  0.000200  1
  C  C186  1  0.408400  0.865600  0.999800  1
  C  C187  1  0.491300  0.126700  0.993700  1
  C  C188  1  0.508700  0.873300  0.006300  1
  C  C189  1  0.318600  0.036700  0.216200  1
  C  C190  1  0.681400  0.963300  0.783800  1
  C  C191  1  0.474200  0.151500  0.910800  1
  C  C192  1  0.525800  0.848500  0.089200  1
  C  C193  1  0.092500  0.011000  0.246200  1
  C  C194  1  0.907500  0.989000  0.753800  1
  C  C195  1  0.053300  0.943400  0.332600  1
  C  C196  1  0.946700  0.056600  0.667400  1
  C  C197  1  0.294000  0.138300  0.857500  1
  C  C198  1  0.706000  0.861700  0.142500  1
  C  C199  1  0.331300  0.202700  0.769300  1
  C  C200  1  0.668700  0.797300  0.230700  1
  C  C201  1  0.083700  0.889300  0.459400  1
  C  C202  1  0.916300  0.110700  0.540600  1
  C  C203  1  0.144600  0.905700  0.510400  1
  C  C204  1  0.855400  0.094300  0.489600  1
  C  C205  1  0.486000  0.277300  0.663400  1
  C  C206  1  0.514000  0.722700  0.336600  1
  C  C207  1  0.602700  0.266800  0.636900  1
  C  C208  1  0.397300  0.733200  0.363100  1
  C  C209  1  0.307400  0.883300  0.536600  1
  C  C210  1  0.692600  0.116700  0.463400  1
  C  C211  1  0.423200  0.871500  0.497600  1
  C  C212  1  0.576800  0.128500  0.502400  1
  C  C213  1  0.756700  0.285700  0.665300  1
  C  C214  1  0.243300  0.714300  0.334700  1
  C  C215  1  0.803300  0.325100  0.713000  1
  C  C216  1  0.196700  0.674900  0.287000  1
  C  C217  1  0.571800  0.959800  0.388600  1
  C  C218  1  0.428200  0.040200  0.611400  1
  C  C219  1  0.643100  0.889700  0.405500  1
  C  C220  1  0.356900  0.110300  0.594500  1
  C  C221  1  0.750000  0.906600  0.359500  1
  C  C222  1  0.250000  0.093400  0.640500  1
  C  C223  1  0.784500  0.994800  0.296300  1
  C  C224  1  0.215500  0.005200  0.703700  1
  C  C225  1  0.713400  0.065700  0.280500  1
  C  C226  1  0.286600  0.934300  0.719500  1
  C  C227  1  0.607400  0.048400  0.326800  1
  C  C228  1  0.392600  0.951600  0.673200  1
  C  C229  1  0.888700  0.486200  0.659100  1
  C  C230  1  0.111300  0.513800  0.340900  1
  C  C231  1  0.956800  0.479300  0.703700  1
  C  C232  1  0.043200  0.520700  0.296300  1
  C  C233  1  0.046300  0.541800  0.671900  1
  C  C234  1  0.953700  0.458200  0.328100  1
  C  C235  1  0.068400  0.608900  0.594100  1
  C  C236  1  0.931600  0.391100  0.405900  1
  C  C237  1  0.001000  0.614900  0.548400  1
  C  C238  1  0.999000  0.385100  0.451600  1
  C  C239  1  0.910800  0.553100  0.581000  1
  C  C240  1  0.089200  0.446900  0.419000  1
  C  C241  1  0.559800  0.215800  0.288200  1
  C  C242  1  0.440200  0.784200  0.711800  1
  C  C243  1  0.457600  0.270500  0.304700  1
  C  C244  1  0.542400  0.729500  0.695300  1
  C  C245  1  0.855000  0.623500  0.460700  1
  C  C246  1  0.145000  0.376500  0.539300  1
  C  C247  1  0.768200  0.606000  0.430300  1
  C  C248  1  0.231800  0.394000  0.569700  1
  C  C249  1  0.307900  0.169100  0.392500  1
  C  C250  1  0.692100  0.830900  0.607500  1
  C  C251  1  0.211400  0.211400  0.370200  1
  C  C252  1  0.788600  0.788600  0.629800  1
  C  C253  1  0.613700  0.568200  0.549400  1
  C  C254  1  0.386300  0.431800  0.450600  1
  C  C255  1  0.498200  0.589400  0.570700  1
  C  C256  1  0.501800  0.410600  0.429300  1
  C  C257  1  0.146800  0.287600  0.259800  1
  C  C258  1  0.853200  0.712400  0.740200  1
  C  C259  1  0.176900  0.354100  0.173100  1
  C  C260  1  0.823100  0.645900  0.826900  1
  C  C261  1  0.339100  0.548400  0.684300  1
  C  C262  1  0.660900  0.451600  0.315700  1
  C  C263  1  0.296700  0.483600  0.772800  1
  C  C264  1  0.703300  0.516400  0.227200  1
  C  C265  1  0.397400  0.328900  0.114300  1
  C  C266  1  0.602600  0.671100  0.885700  1
  C  C267  1  0.494500  0.444300  0.808700  1
  C  C268  1  0.505500  0.555700  0.191300  1
  C  C269  1  0.450300  0.391800  0.962100  1
  C  C270  1  0.549700  0.608200  0.037900  1
  C  C271  1  0.480400  0.360400  0.031900  1
  C  C272  1  0.519600  0.639600  0.968100  1
  C  C273  1  0.587900  0.357300  0.026800  1
  C  C274  1  0.412100  0.642700  0.973200  1
  C  C275  1  0.664200  0.385400  0.950000  1
  C  C276  1  0.335800  0.614600  0.050000  1
  C  C277  1  0.635800  0.415200  0.877900  1
  C  C278  1  0.364200  0.584800  0.122100  1
  C  C279  1  0.528400  0.416400  0.884400  1
  C  C280  1  0.471600  0.583600  0.115600  1
  C  C281  1  0.018100  0.097500  0.049300  1
  C  C282  1  0.981900  0.902500  0.950700  1
  C  C283  1  0.906500  0.105500  0.052400  1
  C  C284  1  0.093500  0.894500  0.947600  1
  C  C285  1  0.058700  0.397100  0.963600  1
  C  C286  1  0.941300  0.602900  0.036400  1
  C  C287  1  0.954500  0.393900  0.953400  1
  C  C288  1  0.045500  0.606100  0.046600  1
  S  S289  1  0.222020  0.982550  0.187450  1
  S  S290  1  0.777980  0.017450  0.812550  1
  S  S291  1  0.337310  0.188860  0.922950  1
  S  S292  1  0.662690  0.811140  0.077050  1
  S  S293  1  0.271260  0.300860  0.104210  1
  S  S294  1  0.728740  0.699140  0.895790  1
  S  S295  1  0.366900  0.503250  0.836980  1
  S  S296  1  0.633100  0.496750  0.163020  1
  S  S297  1  0.262200  0.381400  0.089100  1
  S  S298  1  0.737800  0.618600  0.910900  1
  S  S299  1  0.380000  0.426600  0.812400  1
  S  S300  1  0.620000  0.573400  0.187600  1
  N  N301  1  0.103900  0.090700  0.047200  1
  N  N302  1  0.896100  0.909300  0.952800  1
  N  N303  1  0.139900  0.400900  0.971600  1
  N  N304  1  0.860100  0.599100  0.028400  1
  O  O305  1  0.117500  0.955300  0.378500  1
  O  O306  1  0.882500  0.044700  0.621500  1
  O  O307  1  0.442600  0.208900  0.743400  1
  O  O308  1  0.557400  0.791100  0.256600  1
  O  O309  1  0.249900  0.876100  0.483400  1
  O  O310  1  0.750100  0.123900  0.516600  1
  O  O311  1  0.645500  0.296900  0.687400  1
  O  O312  1  0.354500  0.703100  0.312600  1
  O  O313  1  0.463000  0.953000  0.428500  1
  O  O314  1  0.537000  0.047000  0.571500  1
  O  O315  1  0.795700  0.430300  0.690400  1
  O  O316  1  0.204300  0.569700  0.309600  1
  O  O317  1  0.530000  0.114400  0.315100  1
  O  O318  1  0.470000  0.885600  0.684900  1
  O  O319  1  0.839000  0.553300  0.540700  1
  O  O320  1  0.161000  0.446700  0.459300  1
  O  O321  1  0.388300  0.235800  0.383200  1
  O  O322  1  0.611700  0.764200  0.616800  1
  O  O323  1  0.665800  0.633800  0.470200  1
  O  O324  1  0.334200  0.366200  0.529800  1
  O  O325  1  0.236500  0.256700  0.284900  1
  O  O326  1  0.763500  0.743300  0.715100  1
  O  O327  1  0.448000  0.530500  0.653400  1
  O  O328  1  0.552000  0.469500  0.346600  1
  F  F329  1  0.092500  0.277900  0.816300  1
  F  F330  1  0.907500  0.722100  0.183700  1
  F  F331  1  0.046200  0.117100  0.855800  1
  F  F332  1  0.953800  0.882900  0.144200  1
  F  F333  1  0.920100  0.231800  0.855800  1
  F  F334  1  0.079900  0.768200  0.144200  1
  F  F335  1  0.033800  0.220500  0.735200  1
  F  F336  1  0.966200  0.779500  0.264800  1
  F  F337  1  0.956000  0.230000  0.175800  1
  F  F338  1  0.044000  0.770000  0.824200  1
  F  F339  1  0.934500  0.391900  0.151000  1
  F  F340  1  0.065500  0.608100  0.849000  1
  F  F341  1  0.809100  0.294200  0.148400  1
  F  F342  1  0.190900  0.705800  0.851600  1
  F  F343  1  0.831100  0.284100  0.269100  1
  F  F344  1  0.168900  0.715900  0.730900  1
