# generated using pymatgen
data_Zn2H26C34N2O7
_symmetry_space_group_name_H-M   'P 1'
_cell_length_a   9.58170000
_cell_length_b   12.72550000
_cell_length_c   12.95260000
_cell_angle_alpha   95.88160000
_cell_angle_beta   106.65660000
_cell_angle_gamma   100.07500000
_symmetry_Int_Tables_number   1
_chemical_formula_structural   Zn2H26C34N2O7
_chemical_formula_sum   'Zn4 H52 C68 N4 O14'
_cell_volume   1470.10600347
_cell_formula_units_Z   2
loop_
 _symmetry_equiv_pos_site_id
 _symmetry_equiv_pos_as_xyz
  1  'x, y, z'
loop_
 _atom_site_type_symbol
 _atom_site_label
 _atom_site_symmetry_multiplicity
 _atom_site_fract_x
 _atom_site_fract_y
 _atom_site_fract_z
 _atom_site_occupancy
  Zn  Zn1  1  0.129530  0.511650  0.941840  1.0
  Zn  Zn2  1  0.870470  0.488350  0.058160  1.0
  Zn  Zn3  1  0.961600  0.273820  0.002600  1.0
  Zn  Zn4  1  0.038400  0.726180  0.997400  1.0
  H  H5  1  0.374000  0.400000  0.909000  1.0
  H  H6  1  0.626000  0.600000  0.091000  1.0
  H  H7  1  0.866000  0.392000  0.887000  1.0
  H  H8  1  0.134000  0.608000  0.113000  1.0
  H  H9  1  0.428000  0.289000  0.774000  1.0
  H  H10  1  0.572000  0.711000  0.226000  1.0
  H  H11  1  0.036000  0.303000  0.564000  1.0
  H  H12  1  0.964000  0.697000  0.436000  1.0
  H  H13  1  0.995000  0.416000  0.699000  1.0
  H  H14  1  0.005000  0.584000  0.301000  1.0
  H  H15  1  0.352000  0.188000  0.321000  1.0
  H  H16  1  0.648000  0.812000  0.679000  1.0
  H  H17  1  0.407000  0.077000  0.197000  1.0
  H  H18  1  0.593000  0.923000  0.803000  1.0
  H  H19  1  0.388000  0.894000  0.212000  1.0
  H  H20  1  0.612000  0.106000  0.788000  1.0
  H  H21  1  0.354000  0.742000  0.314000  1.0
  H  H22  1  0.646000  0.258000  0.686000  1.0
  H  H23  1  0.320000  0.593000  0.408000  1.0
  H  H24  1  0.680000  0.407000  0.592000  1.0
  H  H25  1  0.266000  0.526000  0.560000  1.0
  H  H26  1  0.734000  0.474000  0.440000  1.0
  H  H27  1  0.225000  0.644000  0.697000  1.0
  H  H28  1  0.775000  0.356000  0.303000  1.0
  H  H29  1  0.261000  0.976000  0.571000  1.0
  H  H30  1  0.739000  0.024000  0.429000  1.0
  H  H31  1  0.032000  0.061000  0.683000  1.0
  H  H32  1  0.968000  0.939000  0.317000  1.0
  H  H33  1  0.960000  0.191000  0.779000  1.0
  H  H34  1  0.040000  0.809000  0.221000  1.0
  H  H35  1  0.139000  0.110000  0.057000  1.0
  H  H36  1  0.861000  0.890000  0.943000  1.0
  H  H37  1  0.214000  0.970600  0.966100  1.0
  H  H38  1  0.786000  0.029400  0.033900  1.0
  H  H39  1  0.763000  0.627000  0.645000  1.0
  H  H40  1  0.237000  0.373000  0.355000  1.0
  H  H41  1  0.904000  0.605000  0.615000  1.0
  H  H42  1  0.096000  0.395000  0.385000  1.0
  H  H43  1  0.885000  0.724000  0.644000  1.0
  H  H44  1  0.115000  0.276000  0.356000  1.0
  H  H45  1  0.549000  0.768000  0.976000  1.0
  H  H46  1  0.451000  0.232000  0.024000  1.0
  H  H47  1  0.523000  0.855000  0.051000  1.0
  H  H48  1  0.477000  0.145000  0.949000  1.0
  H  H49  1  0.471000  0.844000  0.931000  1.0
  H  H50  1  0.529000  0.156000  0.069000  1.0
  H  H51  1  0.384000  0.341000  0.208000  1.0
  H  H52  1  0.616000  0.659000  0.792000  1.0
  H  H53  1  0.510000  0.415000  0.180000  1.0
  H  H54  1  0.490000  0.585000  0.820000  1.0
  H  H55  1  0.479000  0.451000  0.295000  1.0
  H  H56  1  0.521000  0.549000  0.705000  1.0
  C  C57  1  0.306800  0.379200  0.835100  1.0
  C  C58  1  0.693200  0.620800  0.164900  1.0
  C  C59  1  0.339900  0.313200  0.757800  1.0
  C  C60  1  0.660100  0.686800  0.242200  1.0
  C  C61  1  0.238300  0.282120  0.653400  1.0
  C  C62  1  0.761700  0.717880  0.346600  1.0
  C  C63  1  0.106800  0.322000  0.630900  1.0
  C  C64  1  0.893200  0.678000  0.369100  1.0
  C  C65  1  0.083400  0.387900  0.712700  1.0
  C  C66  1  0.916600  0.612100  0.287300  1.0
  C  C67  1  0.265900  0.211600  0.571000  1.0
  C  C68  1  0.734100  0.788400  0.429000  1.0
  C  C69  1  0.288300  0.152400  0.502000  1.0
  C  C70  1  0.711700  0.847600  0.498000  1.0
  C  C71  1  0.316900  0.080800  0.420700  1.0
  C  C72  1  0.683100  0.919200  0.579300  1.0
  C  C73  1  0.348000  0.117400  0.332400  1.0
  C  C74  1  0.652000  0.882600  0.667600  1.0
  C  C75  1  0.377300  0.045900  0.252800  1.0
  C  C76  1  0.622700  0.954100  0.747200  1.0
  C  C77  1  0.374100  0.940800  0.262500  1.0
  C  C78  1  0.625900  0.059200  0.737500  1.0
  C  C79  1  0.341500  0.897800  0.352900  1.0
  C  C80  1  0.658500  0.102200  0.647100  1.0
  C  C81  1  0.336500  0.789800  0.364900  1.0
  C  C82  1  0.663500  0.210200  0.635100  1.0
  C  C83  1  0.305500  0.749000  0.453300  1.0
  C  C84  1  0.694500  0.251000  0.546700  1.0
  C  C85  1  0.301700  0.638400  0.466500  1.0
  C  C86  1  0.698300  0.361600  0.533500  1.0
  C  C87  1  0.272000  0.601100  0.554300  1.0
  C  C88  1  0.728000  0.398900  0.445700  1.0
  C  C89  1  0.245800  0.671000  0.636400  1.0
  C  C90  1  0.754200  0.329000  0.363600  1.0
  C  C91  1  0.246500  0.777800  0.626700  1.0
  C  C92  1  0.753500  0.222200  0.373300  1.0
  C  C93  1  0.276700  0.820370  0.534900  1.0
  C  C94  1  0.723300  0.179630  0.465100  1.0
  C  C95  1  0.280100  0.928380  0.522500  1.0
  C  C96  1  0.719900  0.071620  0.477500  1.0
  C  C97  1  0.311900  0.968730  0.434200  1.0
  C  C98  1  0.688100  0.031270  0.565800  1.0
  C  C99  1  0.213000  0.849120  0.705200  1.0
  C  C100  1  0.787000  0.150880  0.294800  1.0
  C  C101  1  0.180500  0.914860  0.762200  1.0
  C  C102  1  0.819500  0.085140  0.237800  1.0
  C  C103  1  0.134800  0.997830  0.819800  1.0
  C  C104  1  0.865200  0.002170  0.180200  1.0
  C  C105  1  0.054900  0.066300  0.761100  1.0
  C  C106  1  0.945100  0.933700  0.238900  1.0
  C  C107  1  0.010800  0.145600  0.817000  1.0
  C  C108  1  0.989200  0.854400  0.183000  1.0
  C  C109  1  0.120400  0.097080  0.982700  1.0
  C  C110  1  0.879600  0.902920  0.017300  1.0
  C  C111  1  0.168100  0.015080  0.933200  1.0
  C  C112  1  0.831900  0.984920  0.066800  1.0
  C  C113  1  0.941900  0.656140  0.779700  1.0
  C  C114  1  0.058100  0.343860  0.220300  1.0
  C  C115  1  0.870300  0.655000  0.660000  1.0
  C  C116  1  0.129700  0.345000  0.340000  1.0
  C  C117  1  0.337700  0.739050  0.984800  1.0
  C  C118  1  0.662300  0.260950  0.015200  1.0
  C  C119  1  0.485500  0.805500  0.988000  1.0
  C  C120  1  0.514500  0.194500  0.012000  1.0
  C  C121  1  0.327800  0.478600  0.151600  1.0
  C  C122  1  0.672200  0.521400  0.848400  1.0
  C  C123  1  0.436000  0.415900  0.213000  1.0
  C  C124  1  0.564000  0.584100  0.787000  1.0
  N  N125  1  0.180400  0.416780  0.814050  1.0
  N  N126  1  0.819600  0.583220  0.185950  1.0
  N  N127  1  0.042100  0.161420  0.926090  1.0
  N  N128  1  0.957900  0.838580  0.073910  1.0
  O  O129  1  0.941940  0.399990  0.936430  1.0
  O  O130  1  0.058060  0.600010  0.063570  1.0
  O  O131  1  0.008800  0.583720  0.809060  1.0
  O  O132  1  0.991200  0.416280  0.190940  1.0
  O  O133  1  0.070600  0.267410  0.154340  1.0
  O  O134  1  0.929400  0.732590  0.845660  1.0
  O  O135  1  0.312700  0.639470  0.957480  1.0
  O  O136  1  0.687300  0.360530  0.042520  1.0
  O  O137  1  0.751060  0.207420  0.988050  1.0
  O  O138  1  0.248940  0.792580  0.011950  1.0
  O  O139  1  0.258200  0.437640  0.052570  1.0
  O  O140  1  0.741800  0.562360  0.947430  1.0
  O  O141  1  0.312300  0.563570  0.199980  1.0
  O  O142  1  0.687700  0.436430  0.800020  1.0
