# generated using pymatgen
data_MnH22C32N2O5
_symmetry_space_group_name_H-M   'P 1'
_cell_length_a   12.72010000
_cell_length_b   14.18210000
_cell_length_c   15.58900000
_cell_angle_alpha   103.51130000
_cell_angle_beta   91.11550000
_cell_angle_gamma   109.13010000
_symmetry_Int_Tables_number   1
_chemical_formula_structural   MnH22C32N2O5
_chemical_formula_sum   'Mn4 H88 C128 N8 O20'
_cell_volume   2569.23194331
_cell_formula_units_Z   4
loop_
 _symmetry_equiv_pos_site_id
 _symmetry_equiv_pos_as_xyz
  1  'x, y, z'
loop_
 _atom_site_type_symbol
 _atom_site_label
 _atom_site_symmetry_multiplicity
 _atom_site_fract_x
 _atom_site_fract_y
 _atom_site_fract_z
 _atom_site_occupancy
  Mn  Mn1  1  0.019020  0.255930  0.889680  1
  Mn  Mn2  1  0.980980  0.744070  0.110320  1
  Mn  Mn3  1  0.972850  0.252900  0.624000  1
  Mn  Mn4  1  0.027150  0.747100  0.376000  1
  H  H5  1  0.989500  0.354600  0.185100  1
  H  H6  1  0.010500  0.645400  0.814900  1
  H  H7  1  0.096300  0.318900  0.187700  1
  H  H8  1  0.903700  0.681100  0.812300  1
  H  H9  1  0.972900  0.235500  0.175000  1
  H  H10  1  0.027100  0.764500  0.825000  1
  H  H11  1  0.920100  0.136000  0.328100  1
  H  H12  1  0.079900  0.864000  0.671900  1
  H  H13  1  0.050200  0.150900  0.340700  1
  H  H14  1  0.949800  0.849100  0.659300  1
  H  H15  1  0.012500  0.246400  0.334400  1
  H  H16  1  0.987500  0.753600  0.665600  1
  H  H17  1  0.231200  0.105900  0.705400  1
  H  H18  1  0.768800  0.894100  0.294600  1
  H  H19  1  0.193300  0.155500  0.633300  1
  H  H20  1  0.806700  0.844500  0.366700  1
  H  H21  1  0.110100  0.051000  0.650600  1
  H  H22  1  0.889900  0.949000  0.349400  1
  H  H23  1  0.751000  0.395200  0.857300  1
  H  H24  1  0.249000  0.604800  0.142700  1
  H  H25  1  0.768800  0.434000  0.768500  1
  H  H26  1  0.231200  0.566000  0.231500  1
  H  H27  1  0.862600  0.486700  0.851500  1
  H  H28  1  0.137400  0.513300  0.148500  1
  H  H29  1  0.803000  0.098000  0.768000  1
  H  H30  1  0.197000  0.902000  0.232000  1
  H  H31  1  0.687000  0.924000  0.723000  1
  H  H32  1  0.313000  0.076000  0.277000  1
  H  H33  1  0.889000  0.877000  0.909000  1
  H  H34  1  0.111000  0.123000  0.091000  1
  H  H35  1  0.993000  0.054000  0.938000  1
  H  H36  1  0.007000  0.946000  0.062000  1
  H  H37  1  0.643000  0.539000  0.850000  1
  H  H38  1  0.357000  0.461000  0.150000  1
  H  H39  1  0.519000  0.363000  0.810000  1
  H  H40  1  0.481000  0.637000  0.190000  1
  H  H41  1  0.388000  0.302000  0.690000  1
  H  H42  1  0.612000  0.698000  0.310000  1
  H  H43  1  0.294000  0.327000  0.559000  1
  H  H44  1  0.706000  0.673000  0.441000  1
  H  H45  1  0.199000  0.366000  0.444000  1
  H  H46  1  0.801000  0.634000  0.556000  1
  H  H47  1  0.170000  0.469000  0.358000  1
  H  H48  1  0.830000  0.531000  0.642000  1
  H  H49  1  0.300000  0.641000  0.392000  1
  H  H50  1  0.700000  0.359000  0.608000  1
  H  H51  1  0.540000  0.674000  0.631000  1
  H  H52  1  0.460000  0.326000  0.369000  1
  H  H53  1  0.772000  0.856000  0.529000  1
  H  H54  1  0.228000  0.144000  0.471000  1
  H  H55  1  0.912000  0.007000  0.561000  1
  H  H56  1  0.088000  0.993000  0.439000  1
  H  H57  1  0.714000  0.163000  0.598000  1
  H  H58  1  0.286000  0.837000  0.402000  1
  H  H59  1  0.554000  0.019000  0.565000  1
  H  H60  1  0.446000  0.981000  0.435000  1
  H  H61  1  0.071000  0.493000  0.925000  1
  H  H62  1  0.929000  0.507000  0.075000  1
  H  H63  1  0.224000  0.656000  0.960000  1
  H  H64  1  0.776000  0.344000  0.040000  1
  H  H65  1  0.435000  0.489000  0.944000  1
  H  H66  1  0.565000  0.511000  0.056000  1
  H  H67  1  0.279000  0.345000  0.924000  1
  H  H68  1  0.721000  0.655000  0.076000  1
  H  H69  1  0.699000  0.857000  0.105000  1
  H  H70  1  0.301000  0.143000  0.895000  1
  H  H71  1  0.817000  0.024000  0.139000  1
  H  H72  1  0.183000  0.976000  0.861000  1
  H  H73  1  0.798000  0.137000  0.055000  1
  H  H74  1  0.202000  0.863000  0.945000  1
  H  H75  1  0.705000  0.173000  0.939000  1
  H  H76  1  0.295000  0.827000  0.061000  1
  H  H77  1  0.614000  0.208000  0.816000  1
  H  H78  1  0.386000  0.792000  0.184000  1
  H  H79  1  0.465000  0.145000  0.698000  1
  H  H80  1  0.535000  0.855000  0.302000  1
  H  H81  1  0.358000  0.984000  0.661000  1
  H  H82  1  0.642000  0.016000  0.339000  1
  H  H83  1  0.462000  0.837000  0.863000  1
  H  H84  1  0.538000  0.163000  0.137000  1
  H  H85  1  0.306000  0.591000  0.773000  1
  H  H86  1  0.694000  0.409000  0.227000  1
  H  H87  1  0.200000  0.418000  0.740000  1
  H  H88  1  0.800000  0.582000  0.260000  1
  H  H89  1  0.000000  0.454000  0.567000  1
  H  H90  1  0.000000  0.546000  0.433000  1
  H  H91  1  0.103000  0.627000  0.594000  1
  H  H92  1  0.897000  0.373000  0.406000  1
  C  C93  1  0.820000  0.049600  0.791800  1
  C  C94  1  0.180000  0.950400  0.208200  1
  C  C95  1  0.753800  0.946700  0.768400  1
  C  C96  1  0.246200  0.053300  0.231600  1
  C  C97  1  0.778400  0.879200  0.810800  1
  C  C98  1  0.221600  0.120800  0.189200  1
  C  C99  1  0.869100  0.918600  0.875400  1
  C  C100  1  0.130900  0.081400  0.124600  1
  C  C101  1  0.931000  0.022600  0.894500  1
  C  C102  1  0.069000  0.977400  0.105500  1
  C  C103  1  0.710000  0.771900  0.788900  1
  C  C104  1  0.290000  0.228100  0.211100  1
  C  C105  1  0.651500  0.683300  0.771100  1
  C  C106  1  0.348500  0.316700  0.228900  1
  C  C107  1  0.579000  0.577000  0.747200  1
  C  C108  1  0.421000  0.423000  0.252800  1
  C  C109  1  0.585800  0.511800  0.798200  1
  C  C110  1  0.414200  0.488200  0.201800  1
  C  C111  1  0.513500  0.407800  0.775700  1
  C  C112  1  0.486500  0.592200  0.224300  1
  C  C113  1  0.436100  0.370000  0.703500  1
  C  C114  1  0.563900  0.630000  0.296500  1
  C  C115  1  0.424500  0.435100  0.648600  1
  C  C116  1  0.575500  0.564900  0.351400  1
  C  C117  1  0.344600  0.400600  0.576200  1
  C  C118  1  0.655400  0.599400  0.423800  1
  C  C119  1  0.332200  0.465300  0.524500  1
  C  C120  1  0.667800  0.534700  0.475500  1
  C  C121  1  0.246800  0.431000  0.452700  1
  C  C122  1  0.753200  0.569000  0.547300  1
  C  C123  1  0.233400  0.495700  0.404900  1
  C  C124  1  0.766600  0.504300  0.595100  1
  C  C125  1  0.307500  0.599600  0.424700  1
  C  C126  1  0.692500  0.400400  0.575300  1
  C  C127  1  0.393300  0.635900  0.491600  1
  C  C128  1  0.606700  0.364100  0.508400  1
  C  C129  1  0.406700  0.570200  0.545500  1
  C  C130  1  0.593300  0.429800  0.454500  1
  C  C131  1  0.488100  0.605200  0.617800  1
  C  C132  1  0.511900  0.394800  0.382200  1
  C  C133  1  0.498200  0.540600  0.670100  1
  C  C134  1  0.501800  0.459400  0.329900  1
  C  C135  1  0.474500  0.738100  0.506900  1
  C  C136  1  0.525500  0.261900  0.493100  1
  C  C137  1  0.548800  0.819100  0.521000  1
  C  C138  1  0.451200  0.180900  0.479000  1
  C  C139  1  0.642600  0.913800  0.539900  1
  C  C140  1  0.357400  0.086200  0.460100  1
  C  C141  1  0.752000  0.914400  0.540500  1
  C  C142  1  0.248000  0.085600  0.459500  1
  C  C143  1  0.840100  0.006800  0.562200  1
  C  C144  1  0.159900  0.993200  0.437800  1
  C  C145  1  0.721800  0.098500  0.584000  1
  C  C146  1  0.278200  0.901500  0.416000  1
  C  C147  1  0.628800  0.009900  0.562500  1
  C  C148  1  0.371200  0.990100  0.437500  1
  C  C149  1  0.150900  0.500200  0.936100  1
  C  C150  1  0.849100  0.499800  0.063900  1
  C  C151  1  0.240200  0.592000  0.953600  1
  C  C152  1  0.759800  0.408000  0.046400  1
  C  C153  1  0.348800  0.589800  0.958000  1
  C  C154  1  0.651200  0.410200  0.042000  1
  C  C155  1  0.361800  0.494100  0.946100  1
  C  C156  1  0.638200  0.505900  0.053900  1
  C  C157  1  0.267500  0.406600  0.929800  1
  C  C158  1  0.732500  0.593400  0.070200  1
  C  C159  1  0.444700  0.683100  0.973600  1
  C  C160  1  0.555300  0.316900  0.026400  1
  C  C161  1  0.520200  0.763300  0.985300  1
  C  C162  1  0.479800  0.236700  0.014700  1
  C  C163  1  0.602400  0.864600  0.001300  1
  C  C164  1  0.397600  0.135400  0.998700  1
  C  C165  1  0.689100  0.899300  0.068200  1
  C  C166  1  0.310900  0.100700  0.931800  1
  C  C167  1  0.763100  0.003000  0.089200  1
  C  C168  1  0.236900  0.997000  0.910800  1
  C  C169  1  0.750700  0.069700  0.043500  1
  C  C170  1  0.249300  0.930300  0.956500  1
  C  C171  1  0.664800  0.038100  0.971600  1
  C  C172  1  0.335200  0.961900  0.028400  1
  C  C173  1  0.652600  0.104700  0.922100  1
  C  C174  1  0.347400  0.895300  0.077900  1
  C  C175  1  0.570300  0.071900  0.850900  1
  C  C176  1  0.429700  0.928100  0.149100  1
  C  C177  1  0.557900  0.139100  0.799300  1
  C  C178  1  0.442100  0.860900  0.200700  1
  C  C179  1  0.479300  0.105600  0.729400  1
  C  C180  1  0.520700  0.894400  0.270600  1
  C  C181  1  0.406700  0.001100  0.705100  1
  C  C182  1  0.593300  0.998900  0.294900  1
  C  C183  1  0.413500  0.932800  0.751600  1
  C  C184  1  0.586500  0.067200  0.248400  1
  C  C185  1  0.496400  0.966600  0.827200  1
  C  C186  1  0.503600  0.033400  0.172800  1
  C  C187  1  0.508100  0.900300  0.877500  1
  C  C188  1  0.491900  0.099700  0.122500  1
  C  C189  1  0.589200  0.933300  0.949300  1
  C  C190  1  0.410800  0.066700  0.050700  1
  C  C191  1  0.340900  0.826600  0.726300  1
  C  C192  1  0.659100  0.173400  0.273700  1
  C  C193  1  0.284700  0.738000  0.707400  1
  C  C194  1  0.715300  0.262000  0.292600  1
  C  C195  1  0.218000  0.630200  0.687900  1
  C  C196  1  0.782000  0.369800  0.312100  1
  C  C197  1  0.244100  0.564300  0.731300  1
  C  C198  1  0.755900  0.435700  0.268700  1
  C  C199  1  0.178900  0.462100  0.711700  1
  C  C200  1  0.821100  0.537900  0.288300  1
  C  C201  1  0.063500  0.483900  0.609100  1
  C  C202  1  0.936500  0.516100  0.390900  1
  C  C203  1  0.124500  0.587400  0.624400  1
  C  C204  1  0.875500  0.412600  0.375600  1
  C  C205  1  0.017900  0.282400  0.062100  1
  C  C206  1  0.982100  0.717600  0.937900  1
  C  C207  1  0.019200  0.299300  0.161100  1
  C  C208  1  0.980800  0.700700  0.838900  1
  C  C209  1  0.992600  0.212000  0.455200  1
  C  C210  1  0.007400  0.788000  0.544800  1
  C  C211  1  0.994000  0.183900  0.355900  1
  C  C212  1  0.006000  0.816100  0.644100  1
  C  C213  1  0.121500  0.177600  0.746900  1
  C  C214  1  0.878500  0.822400  0.253100  1
  C  C215  1  0.167900  0.117500  0.678400  1
  C  C216  1  0.832100  0.882500  0.321600  1
  C  C217  1  0.862400  0.344100  0.783100  1
  C  C218  1  0.137600  0.655900  0.216900  1
  C  C219  1  0.806300  0.421800  0.818200  1
  C  C220  1  0.193700  0.578200  0.181800  1
  N  N221  1  0.907900  0.088800  0.854450  1
  N  N222  1  0.092100  0.911200  0.145550  1
  N  N223  1  0.826900  0.098500  0.585000  1
  N  N224  1  0.173100  0.901500  0.415000  1
  N  N225  1  0.163000  0.407900  0.922940  1
  N  N226  1  0.837000  0.592100  0.077060  1
  N  N227  1  0.089100  0.420000  0.651310  1
  N  N228  1  0.910900  0.580000  0.348690  1
  O  O229  1  0.080200  0.238400  0.021540  1
  O  O230  1  0.919800  0.761600  0.978460  1
  O  O231  1  0.953200  0.311400  0.021100  1
  O  O232  1  0.046800  0.688600  0.978900  1
  O  O233  1  0.050900  0.185400  0.504300  1
  O  O234  1  0.949100  0.814600  0.495700  1
  O  O235  1  0.929800  0.261400  0.486510  1
  O  O236  1  0.070200  0.738600  0.513490  1
  O  O237  1  0.142900  0.183700  0.824560  1
  O  O238  1  0.857100  0.816300  0.175440  1
  O  O239  1  0.052500  0.223000  0.729200  1
  O  O240  1  0.947500  0.777000  0.270800  1
  O  O241  1  0.901100  0.314700  0.841100  1
  O  O242  1  0.098900  0.685300  0.158900  1
  O  O243  1  0.860200  0.316100  0.699020  1
  O  O244  1  0.139800  0.683900  0.300980  1
  O  O245  1  0.949600  0.285200  0.778900  1
  O  O246  1  0.050400  0.714800  0.221100  1
  O  O247  1  0.100200  0.191800  0.664900  1
  O  O248  1  0.899800  0.808200  0.335100  1
