# generated using pymatgen
data_Co11H180C212N59O38
_symmetry_space_group_name_H-M   'P 1'
_cell_length_a   20.00192952
_cell_length_b   20.00192952
_cell_length_c   20.00192952
_cell_angle_alpha   60.00000000
_cell_angle_beta   60.00000000
_cell_angle_gamma   60.00000000
_symmetry_Int_Tables_number   1
_chemical_formula_structural   Co11H180C212N59O38
_chemical_formula_sum   'Co11 H180 C212 N59 O38'
_cell_volume   5658.49165898
_cell_formula_units_Z   1
loop_
 _symmetry_equiv_pos_site_id
 _symmetry_equiv_pos_as_xyz
  1  'x, y, z'
loop_
 _atom_site_type_symbol
 _atom_site_label
 _atom_site_symmetry_multiplicity
 _atom_site_fract_x
 _atom_site_fract_y
 _atom_site_fract_z
 _atom_site_occupancy
  C  C1  1  0.809900  0.809900  0.570300  1
  C  C2  1  0.809900  0.570300  0.809900  1
  C  C3  1  0.809900  0.809900  0.809900  1
  C  C4  1  0.570300  0.809900  0.809900  1
  C  C5  1  0.812300  0.812300  0.687700  1
  C  C6  1  0.687700  0.687700  0.812300  1
  C  C7  1  0.812300  0.687700  0.812300  1
  C  C8  1  0.687700  0.812300  0.812300  1
  C  C9  1  0.687700  0.812300  0.687700  1
  C  C10  1  0.812300  0.687700  0.687700  1
  C  C11  1  0.912100  0.029300  0.029300  1.0
  C  C12  1  0.029300  0.029300  0.029300  1.0
  C  C13  1  0.029300  0.912100  0.029300  1.0
  C  C14  1  0.029300  0.029300  0.912100  1.0
  C  C15  1  0.316400  0.183600  0.183600  1.0
  C  C16  1  0.183600  0.316400  0.316400  1.0
  C  C17  1  0.183600  0.183600  0.316400  1.0
  C  C18  1  0.183600  0.316400  0.183600  1.0
  C  C19  1  0.316400  0.316400  0.183600  1.0
  C  C20  1  0.316400  0.183600  0.316400  1.0
  C  C21  1  0.956600  0.684400  0.249000  1.0
  C  C22  1  0.110000  0.249000  0.684400  1.0
  C  C23  1  0.684400  0.956600  0.110000  1.0
  C  C24  1  0.249000  0.110000  0.956600  1.0
  C  C25  1  0.684400  0.249000  0.956600  1.0
  C  C26  1  0.249000  0.956600  0.684400  1.0
  C  C27  1  0.110000  0.956600  0.249000  1.0
  C  C28  1  0.684400  0.110000  0.249000  1.0
  C  C29  1  0.249000  0.684400  0.110000  1.0
  C  C30  1  0.110000  0.684400  0.956600  1.0
  C  C31  1  0.956600  0.110000  0.684400  1.0
  C  C32  1  0.956600  0.249000  0.110000  1.0
  C  C33  1  0.016200  0.610200  0.267400  1.0
  C  C34  1  0.106200  0.267400  0.610200  1.0
  C  C35  1  0.610200  0.016200  0.106200  1.0
  C  C36  1  0.267400  0.106200  0.016200  1.0
  C  C37  1  0.610200  0.267400  0.016200  1.0
  C  C38  1  0.267400  0.016200  0.610200  1.0
  C  C39  1  0.106200  0.016200  0.267400  1.0
  C  C40  1  0.610200  0.106200  0.267400  1.0
  C  C41  1  0.267400  0.610200  0.106200  1.0
  C  C42  1  0.106200  0.610200  0.016200  1.0
  C  C43  1  0.016200  0.106200  0.610200  1.0
  C  C44  1  0.016200  0.267400  0.106200  1.0
  C  C45  1  0.023400  0.546600  0.254400  1.0
  C  C46  1  0.175600  0.254400  0.546600  1.0
  C  C47  1  0.546600  0.023400  0.175600  1.0
  C  C48  1  0.254400  0.175600  0.023400  1.0
  C  C49  1  0.546600  0.254400  0.023400  1.0
  C  C50  1  0.254400  0.023400  0.546600  1.0
  C  C51  1  0.175600  0.023400  0.254400  1.0
  C  C52  1  0.546600  0.175600  0.254400  1.0
  C  C53  1  0.254400  0.546600  0.175600  1.0
  C  C54  1  0.175600  0.546600  0.023400  1.0
  C  C55  1  0.023400  0.175600  0.546600  1.0
  C  C56  1  0.023400  0.254400  0.175600  1.0
  C  C57  1  0.965400  0.553200  0.231400  1.0
  C  C58  1  0.250000  0.231400  0.553200  1.0
  C  C59  1  0.553200  0.965400  0.250000  1.0
  C  C60  1  0.231400  0.250000  0.965400  1.0
  C  C61  1  0.553200  0.231400  0.965400  1.0
  C  C62  1  0.231400  0.965400  0.553200  1.0
  C  C63  1  0.250000  0.965400  0.231400  1.0
  C  C64  1  0.553200  0.250000  0.231400  1.0
  C  C65  1  0.231400  0.553200  0.250000  1.0
  C  C66  1  0.250000  0.553200  0.965400  1.0
  C  C67  1  0.965400  0.250000  0.553200  1.0
  C  C68  1  0.965400  0.231400  0.250000  1.0
  C  C69  1  0.907300  0.629100  0.215700  1.0
  C  C70  1  0.247900  0.215700  0.629100  1.0
  C  C71  1  0.629100  0.907300  0.247900  1.0
  C  C72  1  0.215700  0.247900  0.907300  1.0
  C  C73  1  0.629100  0.215700  0.907300  1.0
  C  C74  1  0.215700  0.907300  0.629100  1.0
  C  C75  1  0.247900  0.907300  0.215700  1.0
  C  C76  1  0.629100  0.247900  0.215700  1.0
  C  C77  1  0.215700  0.629100  0.247900  1.0
  C  C78  1  0.247900  0.629100  0.907300  1.0
  C  C79  1  0.907300  0.247900  0.629100  1.0
  C  C80  1  0.907300  0.215700  0.247900  1.0
  C  C81  1  0.844800  0.647600  0.181200  1.0
  C  C82  1  0.326400  0.181200  0.647600  1.0
  C  C83  1  0.647600  0.844800  0.326400  1.0
  C  C84  1  0.181200  0.326400  0.844800  1.0
  C  C85  1  0.647600  0.181200  0.844800  1.0
  C  C86  1  0.181200  0.844800  0.647600  1.0
  C  C87  1  0.326400  0.844800  0.181200  1.0
  C  C88  1  0.647600  0.326400  0.181200  1.0
  C  C89  1  0.181200  0.647600  0.326400  1.0
  C  C90  1  0.326400  0.647600  0.844800  1.0
  C  C91  1  0.844800  0.326400  0.647600  1.0
  C  C92  1  0.844800  0.181200  0.326400  1.0
  C  C93  1  0.735300  0.738700  0.129900  1.0
  C  C94  1  0.396100  0.129900  0.738700  1.0
  C  C95  1  0.738700  0.735300  0.396100  1.0
  C  C96  1  0.129900  0.396100  0.735300  1.0
  C  C97  1  0.738700  0.129900  0.735300  1.0
  C  C98  1  0.129900  0.735300  0.738700  1.0
  C  C99  1  0.396100  0.735300  0.129900  1.0
  C  C100  1  0.738700  0.396100  0.129900  1.0
  C  C101  1  0.129900  0.738700  0.396100  1.0
  C  C102  1  0.396100  0.738700  0.735300  1.0
  C  C103  1  0.735300  0.396100  0.738700  1.0
  C  C104  1  0.735300  0.129900  0.396100  1.0
  C  C105  1  0.759500  0.677500  0.089100  1.0
  C  C106  1  0.473900  0.089100  0.677500  1.0
  C  C107  1  0.677500  0.759500  0.473900  1.0
  C  C108  1  0.089100  0.473900  0.759500  1.0
  C  C109  1  0.677500  0.089100  0.759500  1.0
  C  C110  1  0.089100  0.759500  0.677500  1.0
  C  C111  1  0.473900  0.759500  0.089100  1.0
  C  C112  1  0.677500  0.473900  0.089100  1.0
  C  C113  1  0.089100  0.677500  0.473900  1.0
  C  C114  1  0.473900  0.677500  0.759500  1.0
  C  C115  1  0.759500  0.473900  0.677500  1.0
  C  C116  1  0.759500  0.089100  0.473900  1.0
  C  C117  1  0.650600  0.749400  0.187200  1.0
  C  C118  1  0.412800  0.187200  0.749400  1.0
  C  C119  1  0.749400  0.650600  0.412800  1.0
  C  C120  1  0.187200  0.412800  0.650600  1.0
  C  C121  1  0.749400  0.187200  0.650600  1.0
  C  C122  1  0.187200  0.650600  0.749400  1.0
  C  C123  1  0.412800  0.650600  0.187200  1.0
  C  C124  1  0.749400  0.412800  0.187200  1.0
  C  C125  1  0.187200  0.749400  0.412800  1.0
  C  C126  1  0.412800  0.749400  0.650600  1.0
  C  C127  1  0.650600  0.412800  0.749400  1.0
  C  C128  1  0.650600  0.187200  0.412800  1.0
  C  C129  1  0.626400  0.691400  0.260000  1.0
  C  C130  1  0.422200  0.260000  0.691400  1.0
  C  C131  1  0.691400  0.626400  0.422200  1.0
  C  C132  1  0.260000  0.422200  0.626400  1.0
  C  C133  1  0.691400  0.260000  0.626400  1.0
  C  C134  1  0.260000  0.626400  0.691400  1.0
  C  C135  1  0.422200  0.626400  0.260000  1.0
  C  C136  1  0.691400  0.422200  0.260000  1.0
  C  C137  1  0.260000  0.691400  0.422200  1.0
  C  C138  1  0.422200  0.691400  0.626400  1.0
  C  C139  1  0.626400  0.422200  0.691400  1.0
  C  C140  1  0.626400  0.260000  0.422200  1.0
  C  C141  1  0.542900  0.708300  0.306100  1.0
  C  C142  1  0.442700  0.306100  0.708300  1.0
  C  C143  1  0.708300  0.542900  0.442700  1.0
  C  C144  1  0.306100  0.442700  0.542900  1.0
  C  C145  1  0.708300  0.306100  0.542900  1.0
  C  C146  1  0.306100  0.542900  0.708300  1.0
  C  C147  1  0.442700  0.542900  0.306100  1.0
  C  C148  1  0.708300  0.442700  0.306100  1.0
  C  C149  1  0.306100  0.708300  0.442700  1.0
  C  C150  1  0.442700  0.708300  0.542900  1.0
  C  C151  1  0.542900  0.442700  0.708300  1.0
  C  C152  1  0.542900  0.306100  0.442700  1.0
  C  C153  1  0.489400  0.769600  0.287000  1.0
  C  C154  1  0.454000  0.287000  0.769600  1.0
  C  C155  1  0.769600  0.489400  0.454000  1.0
  C  C156  1  0.287000  0.454000  0.489400  1.0
  C  C157  1  0.769600  0.287000  0.489400  1.0
  C  C158  1  0.287000  0.489400  0.769600  1.0
  C  C159  1  0.454000  0.489400  0.287000  1.0
  C  C160  1  0.769600  0.454000  0.287000  1.0
  C  C161  1  0.287000  0.769600  0.454000  1.0
  C  C162  1  0.454000  0.769600  0.489400  1.0
  C  C163  1  0.489400  0.454000  0.769600  1.0
  C  C164  1  0.489400  0.287000  0.454000  1.0
  C  C165  1  0.509500  0.832900  0.214700  1.0
  C  C166  1  0.442900  0.214700  0.832900  1.0
  C  C167  1  0.832900  0.509500  0.442900  1.0
  C  C168  1  0.214700  0.442900  0.509500  1.0
  C  C169  1  0.832900  0.214700  0.509500  1.0
  C  C170  1  0.214700  0.509500  0.832900  1.0
  C  C171  1  0.442900  0.509500  0.214700  1.0
  C  C172  1  0.832900  0.442900  0.214700  1.0
  C  C173  1  0.214700  0.832900  0.442900  1.0
  C  C174  1  0.442900  0.832900  0.509500  1.0
  C  C175  1  0.509500  0.442900  0.832900  1.0
  C  C176  1  0.509500  0.214700  0.442900  1.0
  C  C177  1  0.591300  0.819300  0.168100  1.0
  C  C178  1  0.421300  0.168100  0.819300  1.0
  C  C179  1  0.819300  0.591300  0.421300  1.0
  C  C180  1  0.168100  0.421300  0.591300  1.0
  C  C181  1  0.819300  0.168100  0.591300  1.0
  C  C182  1  0.168100  0.591300  0.819300  1.0
  C  C183  1  0.421300  0.591300  0.168100  1.0
  C  C184  1  0.819300  0.421300  0.168100  1.0
  C  C185  1  0.168100  0.819300  0.421300  1.0
  C  C186  1  0.421300  0.819300  0.591300  1.0
  C  C187  1  0.591300  0.421300  0.819300  1.0
  C  C188  1  0.591300  0.168100  0.421300  1.0
  C  C189  1  0.859500  0.878300  0.262900  1.0
  C  C190  1  0.999300  0.262900  0.878300  1.0
  C  C191  1  0.878300  0.859500  0.999300  1.0
  C  C192  1  0.262900  0.999300  0.859500  1.0
  C  C193  1  0.878300  0.262900  0.859500  1.0
  C  C194  1  0.262900  0.859500  0.878300  1.0
  C  C195  1  0.999300  0.859500  0.262900  1.0
  C  C196  1  0.878300  0.999300  0.262900  1.0
  C  C197  1  0.262900  0.878300  0.999300  1.0
  C  C198  1  0.999300  0.878300  0.859500  1.0
  C  C199  1  0.859500  0.999300  0.878300  1.0
  C  C200  1  0.859500  0.262900  0.999300  1.0
  C  C201  1  0.901900  0.780500  0.394500  1.0
  C  C202  1  0.923100  0.394500  0.780500  1.0
  C  C203  1  0.780500  0.901900  0.923100  1.0
  C  C204  1  0.394500  0.923100  0.901900  1.0
  C  C205  1  0.780500  0.394500  0.901900  1.0
  C  C206  1  0.394500  0.901900  0.780500  1.0
  C  C207  1  0.923100  0.901900  0.394500  1.0
  C  C208  1  0.780500  0.923100  0.394500  1.0
  C  C209  1  0.394500  0.780500  0.923100  1.0
  C  C210  1  0.923100  0.780500  0.901900  1.0
  C  C211  1  0.901900  0.923100  0.780500  1.0
  C  C212  1  0.901900  0.394500  0.923100  1.0
  Co  Co213  1  0.250000  0.250000  0.250000  1
  Co  Co214  1  0.890440  0.890440  0.328680  1.0
  Co  Co215  1  0.890440  0.328680  0.890440  1.0
  Co  Co216  1  0.890440  0.890440  0.890440  1.0
  Co  Co217  1  0.328680  0.890440  0.890440  1.0
  Co  Co218  1  0.803790  0.803790  0.196210  1.0
  Co  Co219  1  0.196210  0.196210  0.803790  1.0
  Co  Co220  1  0.803790  0.196210  0.803790  1.0
  Co  Co221  1  0.196210  0.803790  0.803790  1.0
  Co  Co222  1  0.196210  0.803790  0.196210  1.0
  Co  Co223  1  0.803790  0.196210  0.196210  1.0
  H  H224  1  0.955600  0.729800  0.253800  1.0
  H  H225  1  0.060800  0.253800  0.729800  1.0
  H  H226  1  0.729800  0.955600  0.060800  1.0
  H  H227  1  0.253800  0.060800  0.955600  1.0
  H  H228  1  0.729800  0.253800  0.955600  1.0
  H  H229  1  0.253800  0.955600  0.729800  1.0
  H  H230  1  0.060800  0.955600  0.253800  1.0
  H  H231  1  0.729800  0.060800  0.253800  1.0
  H  H232  1  0.253800  0.729800  0.060800  1.0
  H  H233  1  0.060800  0.729800  0.955600  1.0
  H  H234  1  0.955600  0.060800  0.729800  1.0
  H  H235  1  0.955600  0.253800  0.060800  1.0
  H  H236  1  0.052700  0.603700  0.289100  1.0
  H  H237  1  0.054500  0.289100  0.603700  1.0
  H  H238  1  0.603700  0.052700  0.054500  1.0
  H  H239  1  0.289100  0.054500  0.052700  1.0
  H  H240  1  0.603700  0.289100  0.052700  1.0
  H  H241  1  0.289100  0.052700  0.603700  1.0
  H  H242  1  0.054500  0.052700  0.289100  1.0
  H  H243  1  0.603700  0.054500  0.289100  1.0
  H  H244  1  0.289100  0.603700  0.054500  1.0
  H  H245  1  0.054500  0.603700  0.052700  1.0
  H  H246  1  0.052700  0.054500  0.603700  1.0
  H  H247  1  0.052700  0.289100  0.054500  1.0
  H  H248  1  0.068400  0.497200  0.261200  1.0
  H  H249  1  0.173200  0.261200  0.497200  1.0
  H  H250  1  0.497200  0.068400  0.173200  1.0
  H  H251  1  0.261200  0.173200  0.068400  1.0
  H  H252  1  0.497200  0.261200  0.068400  1.0
  H  H253  1  0.261200  0.068400  0.497200  1.0
  H  H254  1  0.173200  0.068400  0.261200  1.0
  H  H255  1  0.497200  0.173200  0.261200  1.0
  H  H256  1  0.261200  0.497200  0.173200  1.0
  H  H257  1  0.173200  0.497200  0.068400  1.0
  H  H258  1  0.068400  0.173200  0.497200  1.0
  H  H259  1  0.068400  0.261200  0.173200  1.0
  H  H260  1  0.965400  0.508200  0.226800  1.0
  H  H261  1  0.299600  0.226800  0.508200  1.0
  H  H262  1  0.508200  0.965400  0.299600  1.0
  H  H263  1  0.226800  0.299600  0.965400  1.0
  H  H264  1  0.508200  0.226800  0.965400  1.0
  H  H265  1  0.226800  0.965400  0.508200  1.0
  H  H266  1  0.299600  0.965400  0.226800  1.0
  H  H267  1  0.508200  0.299600  0.226800  1.0
  H  H268  1  0.226800  0.508200  0.299600  1.0
  H  H269  1  0.299600  0.508200  0.965400  1.0
  H  H270  1  0.965400  0.299600  0.508200  1.0
  H  H271  1  0.965400  0.226800  0.299600  1.0
  H  H272  1  0.847500  0.607300  0.167100  1.0
  H  H273  1  0.378100  0.167100  0.607300  1.0
  H  H274  1  0.607300  0.847500  0.378100  1.0
  H  H275  1  0.167100  0.378100  0.847500  1.0
  H  H276  1  0.607300  0.167100  0.847500  1.0
  H  H277  1  0.167100  0.847500  0.607300  1.0
  H  H278  1  0.378100  0.847500  0.167100  1.0
  H  H279  1  0.607300  0.378100  0.167100  1.0
  H  H280  1  0.167100  0.607300  0.378100  1.0
  H  H281  1  0.378100  0.607300  0.847500  1.0
  H  H282  1  0.847500  0.378100  0.607300  1.0
  H  H283  1  0.847500  0.167100  0.378100  1.0
  H  H284  1  0.736300  0.792900  0.085700  1.0
  H  H285  1  0.385100  0.085700  0.792900  1.0
  H  H286  1  0.792900  0.736300  0.385100  1.0
  H  H287  1  0.085700  0.385100  0.736300  1.0
  H  H288  1  0.792900  0.085700  0.736300  1.0
  H  H289  1  0.085700  0.736300  0.792900  1.0
  H  H290  1  0.385100  0.736300  0.085700  1.0
  H  H291  1  0.792900  0.385100  0.085700  1.0
  H  H292  1  0.085700  0.792900  0.385100  1.0
  H  H293  1  0.385100  0.792900  0.736300  1.0
  H  H294  1  0.736300  0.385100  0.792900  1.0
  H  H295  1  0.736300  0.085700  0.385100  1.0
  H  H296  1  0.815800  0.670200  0.050800  1.0
  H  H297  1  0.463200  0.050800  0.670200  1.0
  H  H298  1  0.670200  0.815800  0.463200  1.0
  H  H299  1  0.050800  0.463200  0.815800  1.0
  H  H300  1  0.670200  0.050800  0.815800  1.0
  H  H301  1  0.050800  0.815800  0.670200  1.0
  H  H302  1  0.463200  0.815800  0.050800  1.0
  H  H303  1  0.670200  0.463200  0.050800  1.0
  H  H304  1  0.050800  0.670200  0.463200  1.0
  H  H305  1  0.463200  0.670200  0.815800  1.0
  H  H306  1  0.815800  0.463200  0.670200  1.0
  H  H307  1  0.815800  0.050800  0.463200  1.0
  H  H308  1  0.722300  0.699100  0.059300  1.0
  H  H309  1  0.519300  0.059300  0.699100  1.0
  H  H310  1  0.699100  0.722300  0.519300  1.0
  H  H311  1  0.059300  0.519300  0.722300  1.0
  H  H312  1  0.699100  0.059300  0.722300  1.0
  H  H313  1  0.059300  0.722300  0.699100  1.0
  H  H314  1  0.519300  0.722300  0.059300  1.0
  H  H315  1  0.699100  0.519300  0.059300  1.0
  H  H316  1  0.059300  0.699100  0.519300  1.0
  H  H317  1  0.519300  0.699100  0.722300  1.0
  H  H318  1  0.722300  0.519300  0.699100  1.0
  H  H319  1  0.722300  0.059300  0.519300  1.0
  H  H320  1  0.755700  0.624700  0.131300  1.0
  H  H321  1  0.488300  0.131300  0.624700  1.0
  H  H322  1  0.624700  0.755700  0.488300  1.0
  H  H323  1  0.131300  0.488300  0.755700  1.0
  H  H324  1  0.624700  0.131300  0.755700  1.0
  H  H325  1  0.131300  0.755700  0.624700  1.0
  H  H326  1  0.488300  0.755700  0.131300  1.0
  H  H327  1  0.624700  0.488300  0.131300  1.0
  H  H328  1  0.131300  0.624700  0.488300  1.0
  H  H329  1  0.488300  0.624700  0.755700  1.0
  H  H330  1  0.755700  0.488300  0.624700  1.0
  H  H331  1  0.755700  0.131300  0.488300  1.0
  H  H332  1  0.665400  0.640600  0.279000  1.0
  H  H333  1  0.415000  0.279000  0.640600  1.0
  H  H334  1  0.640600  0.665400  0.415000  1.0
  H  H335  1  0.279000  0.415000  0.665400  1.0
  H  H336  1  0.640600  0.279000  0.665400  1.0
  H  H337  1  0.279000  0.665400  0.640600  1.0
  H  H338  1  0.415000  0.665400  0.279000  1.0
  H  H339  1  0.640600  0.415000  0.279000  1.0
  H  H340  1  0.279000  0.640600  0.415000  1.0
  H  H341  1  0.415000  0.640600  0.665400  1.0
  H  H342  1  0.665400  0.415000  0.640600  1.0
  H  H343  1  0.665400  0.279000  0.415000  1.0
  H  H344  1  0.527500  0.667500  0.356900  1.0
  H  H345  1  0.448100  0.356900  0.667500  1.0
  H  H346  1  0.667500  0.527500  0.448100  1.0
  H  H347  1  0.356900  0.448100  0.527500  1.0
  H  H348  1  0.667500  0.356900  0.527500  1.0
  H  H349  1  0.356900  0.527500  0.667500  1.0
  H  H350  1  0.448100  0.527500  0.356900  1.0
  H  H351  1  0.667500  0.448100  0.356900  1.0
  H  H352  1  0.356900  0.667500  0.448100  1.0
  H  H353  1  0.448100  0.667500  0.527500  1.0
  H  H354  1  0.527500  0.448100  0.667500  1.0
  H  H355  1  0.527500  0.356900  0.448100  1.0
  H  H356  1  0.433800  0.775400  0.320600  1.0
  H  H357  1  0.470200  0.320600  0.775400  1.0
  H  H358  1  0.775400  0.433800  0.470200  1.0
  H  H359  1  0.320600  0.470200  0.433800  1.0
  H  H360  1  0.775400  0.320600  0.433800  1.0
  H  H361  1  0.320600  0.433800  0.775400  1.0
  H  H362  1  0.470200  0.433800  0.320600  1.0
  H  H363  1  0.775400  0.470200  0.320600  1.0
  H  H364  1  0.320600  0.775400  0.470200  1.0
  H  H365  1  0.470200  0.775400  0.433800  1.0
  H  H366  1  0.433800  0.470200  0.775400  1.0
  H  H367  1  0.433800  0.320600  0.470200  1.0
  H  H368  1  0.468700  0.883100  0.198300  1.0
  H  H369  1  0.449900  0.198300  0.883100  1.0
  H  H370  1  0.883100  0.468700  0.449900  1.0
  H  H371  1  0.198300  0.449900  0.468700  1.0
  H  H372  1  0.883100  0.198300  0.468700  1.0
  H  H373  1  0.198300  0.468700  0.883100  1.0
  H  H374  1  0.449900  0.468700  0.198300  1.0
  H  H375  1  0.883100  0.449900  0.198300  1.0
  H  H376  1  0.198300  0.883100  0.449900  1.0
  H  H377  1  0.449900  0.883100  0.468700  1.0
  H  H378  1  0.468700  0.449900  0.883100  1.0
  H  H379  1  0.468700  0.198300  0.449900  1.0
  H  H380  1  0.606100  0.862300  0.119500  1.0
  H  H381  1  0.412100  0.119500  0.862300  1.0
  H  H382  1  0.862300  0.606100  0.412100  1.0
  H  H383  1  0.119500  0.412100  0.606100  1.0
  H  H384  1  0.862300  0.119500  0.606100  1.0
  H  H385  1  0.119500  0.606100  0.862300  1.0
  H  H386  1  0.412100  0.606100  0.119500  1.0
  H  H387  1  0.862300  0.412100  0.119500  1.0
  H  H388  1  0.119500  0.862300  0.412100  1.0
  H  H389  1  0.412100  0.862300  0.606100  1.0
  H  H390  1  0.606100  0.412100  0.862300  1.0
  H  H391  1  0.606100  0.119500  0.412100  1.0
  H  H392  1  0.892100  0.078100  0.986700  1.0
  H  H393  1  0.043100  0.986700  0.078100  1.0
  H  H394  1  0.078100  0.892100  0.043100  1.0
  H  H395  1  0.986700  0.043100  0.892100  1.0
  H  H396  1  0.078100  0.986700  0.892100  1.0
  H  H397  1  0.986700  0.892100  0.078100  1.0
  H  H398  1  0.043100  0.892100  0.986700  1.0
  H  H399  1  0.078100  0.043100  0.986700  1.0
  H  H400  1  0.986700  0.078100  0.043100  1.0
  H  H401  1  0.043100  0.078100  0.892100  1.0
  H  H402  1  0.892100  0.043100  0.078100  1.0
  H  H403  1  0.892100  0.986700  0.043100  1.0
  N  N404  1  0.000000  0.000000  0.000000  1
  N  N405  1  0.780000  0.780000  0.660000  1
  N  N406  1  0.780000  0.660000  0.780000  1
  N  N407  1  0.780000  0.780000  0.780000  1
  N  N408  1  0.660000  0.780000  0.780000  1
  N  N409  1  0.353700  0.146300  0.146300  1.0
  N  N410  1  0.146300  0.353700  0.353700  1.0
  N  N411  1  0.146300  0.146300  0.353700  1.0
  N  N412  1  0.146300  0.353700  0.146300  1.0
  N  N413  1  0.353700  0.353700  0.146300  1.0
  N  N414  1  0.353700  0.146300  0.353700  1.0
  N  N415  1  0.901000  0.694200  0.225400  1.0
  N  N416  1  0.179400  0.225400  0.694200  1.0
  N  N417  1  0.694200  0.901000  0.179400  1.0
  N  N418  1  0.225400  0.179400  0.901000  1.0
  N  N419  1  0.694200  0.225400  0.901000  1.0
  N  N420  1  0.225400  0.901000  0.694200  1.0
  N  N421  1  0.179400  0.901000  0.225400  1.0
  N  N422  1  0.694200  0.179400  0.225400  1.0
  N  N423  1  0.225400  0.694200  0.179400  1.0
  N  N424  1  0.179400  0.694200  0.901000  1.0
  N  N425  1  0.901000  0.179400  0.694200  1.0
  N  N426  1  0.901000  0.225400  0.179400  1.0
  N  N427  1  0.789100  0.716700  0.171300  1.0
  N  N428  1  0.322900  0.171300  0.716700  1.0
  N  N429  1  0.716700  0.789100  0.322900  1.0
  N  N430  1  0.171300  0.322900  0.789100  1.0
  N  N431  1  0.716700  0.171300  0.789100  1.0
  N  N432  1  0.171300  0.789100  0.716700  1.0
  N  N433  1  0.322900  0.789100  0.171300  1.0
  N  N434  1  0.716700  0.322900  0.171300  1.0
  N  N435  1  0.171300  0.716700  0.322900  1.0
  N  N436  1  0.322900  0.716700  0.789100  1.0
  N  N437  1  0.789100  0.322900  0.716700  1.0
  N  N438  1  0.789100  0.171300  0.322900  1.0
  N  N439  1  0.838400  0.868400  0.223000  1.0
  N  N440  1  0.070200  0.223000  0.868400  1.0
  N  N441  1  0.868400  0.838400  0.070200  1.0
  N  N442  1  0.223000  0.070200  0.838400  1.0
  N  N443  1  0.868400  0.223000  0.838400  1.0
  N  N444  1  0.223000  0.838400  0.868400  1.0
  N  N445  1  0.070200  0.838400  0.223000  1.0
  N  N446  1  0.868400  0.070200  0.223000  1.0
  N  N447  1  0.223000  0.868400  0.070200  1.0
  N  N448  1  0.070200  0.868400  0.838400  1.0
  N  N449  1  0.838400  0.070200  0.868400  1.0
  N  N450  1  0.838400  0.223000  0.070200  1.0
  N  N451  1  0.908600  0.712600  0.437600  1.0
  N  N452  1  0.941200  0.437600  0.712600  1.0
  N  N453  1  0.712600  0.908600  0.941200  1.0
  N  N454  1  0.437600  0.941200  0.908600  1.0
  N  N455  1  0.712600  0.437600  0.908600  1.0
  N  N456  1  0.437600  0.908600  0.712600  1.0
  N  N457  1  0.941200  0.908600  0.437600  1.0
  N  N458  1  0.712600  0.941200  0.437600  1.0
  N  N459  1  0.437600  0.712600  0.941200  1.0
  N  N460  1  0.941200  0.712600  0.908600  1.0
  N  N461  1  0.908600  0.941200  0.712600  1.0
  N  N462  1  0.908600  0.437600  0.941200  1.0
  O  O463  1  0.339000  0.339000  0.983000  1
  O  O464  1  0.339000  0.983000  0.339000  1
  O  O465  1  0.339000  0.339000  0.339000  1
  O  O466  1  0.983000  0.339000  0.339000  1
  O  O467  1  0.996100  0.503900  0.996100  1
  O  O468  1  0.503900  0.996100  0.503900  1
  O  O469  1  0.503900  0.996100  0.996100  1
  O  O470  1  0.996100  0.996100  0.503900  1
  O  O471  1  0.503900  0.503900  0.996100  1
  O  O472  1  0.996100  0.503900  0.503900  1
  O  O473  1  0.687500  0.687500  0.937500  1
  O  O474  1  0.687500  0.937500  0.687500  1
  O  O475  1  0.687500  0.687500  0.687500  1
  O  O476  1  0.937500  0.687500  0.687500  1
  O  O477  1  0.470900  0.104100  0.000500  1
  O  O478  1  0.424500  0.000500  0.104100  1
  O  O479  1  0.104100  0.470900  0.424500  1
  O  O480  1  0.000500  0.424500  0.470900  1
  O  O481  1  0.104100  0.000500  0.470900  1
  O  O482  1  0.000500  0.470900  0.104100  1
  O  O483  1  0.424500  0.470900  0.000500  1
  O  O484  1  0.104100  0.424500  0.000500  1
  O  O485  1  0.000500  0.104100  0.424500  1
  O  O486  1  0.424500  0.104100  0.470900  1
  O  O487  1  0.470900  0.424500  0.104100  1
  O  O488  1  0.470900  0.000500  0.424500  1
  O  O489  1  0.913700  0.849300  0.614500  1
  O  O490  1  0.622500  0.614500  0.849300  1
  O  O491  1  0.849300  0.913700  0.622500  1
  O  O492  1  0.614500  0.622500  0.913700  1
  O  O493  1  0.849300  0.614500  0.913700  1
  O  O494  1  0.614500  0.913700  0.849300  1
  O  O495  1  0.622500  0.913700  0.614500  1
  O  O496  1  0.849300  0.622500  0.614500  1
  O  O497  1  0.614500  0.849300  0.622500  1
  O  O498  1  0.622500  0.849300  0.913700  1
  O  O499  1  0.913700  0.622500  0.849300  1
  O  O500  1  0.913700  0.614500  0.622500  1
