# generated using pymatgen
data_H34PdC34(NO)6
_symmetry_space_group_name_H-M   'P 1'
_cell_length_a   11.58140000
_cell_length_b   11.70270000
_cell_length_c   14.13220000
_cell_angle_alpha   71.24100000
_cell_angle_beta   89.35900000
_cell_angle_gamma   68.98900000
_symmetry_Int_Tables_number   1
_chemical_formula_structural   H34PdC34(NO)6
_chemical_formula_sum   'H68 Pd2 C68 N12 O12'
_cell_volume   1681.27016556
_cell_formula_units_Z   2
loop_
 _symmetry_equiv_pos_site_id
 _symmetry_equiv_pos_as_xyz
  1  'x, y, z'
loop_
 _atom_site_type_symbol
 _atom_site_label
 _atom_site_symmetry_multiplicity
 _atom_site_fract_x
 _atom_site_fract_y
 _atom_site_fract_z
 _atom_site_occupancy
  H  H1  1  0.266600  0.641100  0.477400  1
  H  H2  1  0.156200  0.770800  0.478400  1
  H  H3  1  0.171500  0.633100  0.560000  1
  H  H4  1  0.707000  0.837900  0.748100  1
  H  H5  1  0.933500  0.728500  0.836800  1
  H  H6  1  0.523300  0.731200  0.759600  1
  H  H7  1  0.456800  0.617200  0.534800  1
  H  H8  1  0.532800  0.110600  0.420500  1
  H  H9  1  0.007500  0.100000  0.079500  1
  H  H10  1  0.145600  0.684000  0.813900  1
  H  H11  1  0.660900  0.563200  0.592500  1
  H  H12  1  0.686600  0.534900  0.710400  1
  H  H13  1  0.684300  0.668800  0.630500  1
  H  H14  1  0.572700  0.962000  0.607000  1
  H  H15  1  0.036500  0.919600  0.219600  1
  H  H16  1  0.915500  0.927000  0.276900  1
  H  H17  1  0.029800  0.944800  0.324600  1
  H  H18  1  0.621200  0.206600  0.284600  1
  H  H19  1  0.205900  0.879500  0.798700  1
  H  H20  1  0.325600  0.918700  0.784900  1
  H  H21  1  0.334400  0.784500  0.868300  1
  H  H22  1  0.677500  0.513200  0.193500  1
  H  H23  1  0.742500  0.417200  0.304100  1
  H  H24  1  0.625400  0.404900  0.255300  1
  H  H25  1  0.777300  0.460900  0.062800  1
  H  H26  1  0.910800  0.437300  0.929200  1
  H  H27  1  0.931600  0.302300  0.913200  1
  H  H28  1  0.041800  0.318000  0.968700  1
  H  H29  1  0.680000  0.356600  0.502200  1
  H  H30  1  0.488800  0.364500  0.799000  1
  H  H31  1  0.394400  0.361600  0.882500  1
  H  H32  1  0.380200  0.496600  0.797600  1
  H  H33  1  0.903600  0.253700  0.584100  1
  H  H34  1  0.096000  0.357700  0.565500  1
  H  H35  1  0.597400  0.980700  0.247900  1
  H  H36  1  0.082400  0.971200  0.909800  1
  H  H37  1  0.479200  0.396400  0.514500  1
  H  H38  1  0.154600  0.475400  0.793300  1
  H  H39  1  0.043100  0.122500  0.728000  1
  H  H40  1  0.661400  0.152200  0.008200  1
  H  H41  1  0.662600  0.169100  0.116100  1
  H  H42  1  0.543400  0.158300  0.069200  1
  H  H43  1  0.006400  0.886600  0.052800  1
  H  H44  1  0.255100  0.240700  0.493900  1
  H  H45  1  0.376000  0.147100  0.573200  1
  H  H46  1  0.375600  0.277900  0.490100  1
  H  H47  1  0.930700  0.581700  0.135700  1
  H  H48  1  0.982200  0.689200  0.070900  1
  H  H49  1  0.863000  0.676700  0.025600  1
  H  H50  1  0.626400  0.809000  0.404800  1
  H  H51  1  0.762700  0.697400  0.428300  1
  H  H52  1  0.647900  0.676200  0.384700  1
  H  H53  1  0.815500  0.622800  0.261900  1
  H  H54  1  0.921800  0.461900  0.633700  1
  H  H55  1  0.933300  0.572700  0.671800  1
  H  H56  1  0.943900  0.435500  0.751600  1
  H  H57  1  0.415300  0.586000  0.075600  1
  H  H58  1  0.467700  0.524900  0.990300  1
  H  H59  1  0.464600  0.431800  0.100800  1
  H  H60  1  0.469500  0.194600  0.222700  1
  H  H61  1  0.378200  0.222300  0.305400  1
  H  H62  1  0.371600  0.338800  0.205000  1
  H  H63  1  0.474300  0.852000  0.149100  1
  H  H64  1  0.441900  0.761600  0.248900  1
  H  H65  1  0.375200  0.916600  0.214900  1
  H  H66  1  0.130300  0.634200  0.285500  1
  H  H67  1  0.178400  0.488100  0.284800  1
  H  H68  1  0.188600  0.602100  0.189500  1
  Pd  Pd69  1  0.050210  0.037000  0.468882  1
  Pd  Pd70  1  0.564640  0.048680  0.865107  1
  C  C71  1  0.925700  0.102800  0.207900  1
  C  C72  1  0.119300  0.811200  0.671100  1
  C  C73  1  0.908800  0.922500  0.602900  1
  C  C74  1  0.299400  0.704000  0.589900  1
  C  C75  1  0.334500  0.778200  0.725100  1
  C  C76  1  0.822400  0.007600  0.515900  1
  C  C77  1  0.257600  0.764900  0.656800  1
  C  C78  1  0.216200  0.685700  0.520400  1
  C  C79  1  0.866700  0.855200  0.690200  1
  C  C80  1  0.737100  0.877600  0.688600  1
  C  C81  1  0.957200  0.769000  0.774100  1
  C  C82  1  0.465800  0.724200  0.716300  1
  C  C83  1  0.695800  0.018900  0.516900  1
  C  C84  1  0.426200  0.656200  0.584100  1
  C  C85  1  0.618900  0.096400  0.426500  1
  C  C86  1  0.954600  0.155800  0.111500  1
  C  C87  1  0.083200  0.745900  0.760500  1
  C  C88  1  0.647400  0.602400  0.645300  1
  C  C89  1  0.657600  0.952700  0.606000  1
  C  C90  1  0.981500  0.961800  0.261700  1
  C  C91  1  0.788000  0.328500  0.196600  1
  C  C92  1  0.509800  0.664500  0.649300  1
  C  C93  1  0.793700  0.134000  0.347400  1
  C  C94  1  0.839100  0.187400  0.251400  1
  C  C95  1  0.673600  0.151700  0.345800  1
  C  C96  1  0.296800  0.846100  0.800800  1
  C  C97  1  0.700500  0.424500  0.241400  1
  C  C98  1  0.818700  0.371600  0.101900  1
  C  C99  1  0.904600  0.294900  0.060100  1
  C  C100  1  0.951500  0.342400  0.958600  1
  C  C101  1  0.691100  0.978800  0.126300  1
  C  C102  1  0.495700  0.276400  0.662800  1
  C  C103  1  0.274700  0.311900  0.606100  1
  C  C104  1  0.316200  0.382700  0.744300  1
  C  C105  1  0.655200  0.314600  0.563800  1
  C  C106  1  0.704000  0.167100  0.730900  1
  C  C107  1  0.790400  0.081800  0.817000  1
  C  C108  1  0.364000  0.318800  0.670800  1
  C  C109  1  0.402500  0.403200  0.811800  1
  C  C110  1  0.875200  0.211200  0.643500  1
  C  C111  1  0.152100  0.363200  0.610800  1
  C  C112  1  0.745300  0.229400  0.644400  1
  C  C113  1  0.659300  0.924800  0.221100  1
  C  C114  1  0.996100  0.986400  0.908800  1
  C  C115  1  0.914200  0.066000  0.817900  1
  C  C116  1  0.103800  0.425600  0.682000  1
  C  C117  1  0.538500  0.337600  0.571000  1
  C  C118  1  0.186400  0.433500  0.745800  1
  C  C119  1  0.957900  0.132900  0.728100  1
  C  C120  1  0.634500  0.128200  0.075300  1
  C  C121  1  0.823100  0.766600  0.131900  1
  C  C122  1  0.952900  0.933800  0.991300  1
  C  C123  1  0.819500  0.949000  0.987400  1
  C  C124  1  0.772100  0.894300  0.083700  1
  C  C125  1  0.324800  0.237900  0.534500  1
  C  C126  1  0.907100  0.670100  0.087100  1
  C  C127  1  0.684500  0.740300  0.383000  1
  C  C128  1  0.710700  0.800200  0.275500  1
  C  C129  1  0.787600  0.714300  0.229000  1
  C  C130  1  0.963100  0.478700  0.685000  1
  C  C131  1  0.293800  0.528300  0.018300  1
  C  C132  1  0.421300  0.516800  0.048900  1
  C  C133  1  0.385800  0.246000  0.233200  1
  C  C134  1  0.300800  0.221800  0.187100  1
  C  C135  1  0.304100  0.838100  0.129500  1
  C  C136  1  0.408100  0.842500  0.191100  1
  C  C137  1  0.318100  0.545300  0.307400  1
  C  C138  1  0.193400  0.569000  0.263100  1
  N  N139  1  0.873100  0.062800  0.436000  1
  N  N140  1  0.034200  0.901400  0.593900  1
  N  N141  1  0.018200  0.299600  0.354800  1
  N  N142  1  0.306600  0.974100  0.455200  1
  N  N143  1  0.747200  0.017800  0.903300  1
  N  N144  1  0.582100  0.185400  0.738500  1
  N  N145  1  0.309400  0.111800  0.881300  1
  N  N146  1  0.598800  0.788700  0.978400  1
  N  N147  1  0.198100  0.528600  0.993500  1
  N  N148  1  0.215100  0.212000  0.153900  1
  N  N149  1  0.233900  0.814300  0.088600  1
  N  N150  1  0.413800  0.536200  0.337900  1
  O  O151  1  0.063500  0.183000  0.348700  1
  O  O152  1  0.041500  0.382600  0.290300  1
  O  O153  1  0.957300  0.316300  0.424500  1
  O  O154  1  0.225300  0.012900  0.515000  1
  O  O155  1  0.274000  0.943200  0.386300  1
  O  O156  1  0.411500  0.965400  0.479300  1
  O  O157  1  0.392700  0.072500  0.821600  1
  O  O158  1  0.341400  0.141500  0.948000  1
  O  O159  1  0.205100  0.110100  0.870200  1
  O  O160  1  0.551300  0.904800  0.984800  1
  O  O161  1  0.584500  0.697800  0.046300  1
  O  O162  1  0.659500  0.771400  0.908800  1
