# generated using pymatgen
data_H96Pd6C126N36Cl2O83
_symmetry_space_group_name_H-M   'P 1'
_cell_length_a   18.48700000
_cell_length_b   22.32500000
_cell_length_c   23.82500000
_cell_angle_alpha   110.43500000
_cell_angle_beta   93.31600000
_cell_angle_gamma   99.76100000
_symmetry_Int_Tables_number   1
_chemical_formula_structural   H96Pd6C126N36Cl2O83
_chemical_formula_sum   'H192 Pd12 C252 N72 Cl4 O166'
_cell_volume   9007.69114521
_cell_formula_units_Z   2
loop_
 _symmetry_equiv_pos_site_id
 _symmetry_equiv_pos_as_xyz
  1  'x, y, z'
loop_
 _atom_site_type_symbol
 _atom_site_label
 _atom_site_symmetry_multiplicity
 _atom_site_fract_x
 _atom_site_fract_y
 _atom_site_fract_z
 _atom_site_occupancy
  H  H1  1  0.246000  0.082100  0.219800  1
  H  H2  1  0.754000  0.917900  0.780200  1
  H  H3  1  0.180400  0.158900  0.283200  1
  H  H4  1  0.819600  0.841100  0.716800  1
  H  H5  1  0.332100  0.303000  0.262200  1
  H  H6  1  0.667900  0.697000  0.737800  1
  H  H7  1  0.382700  0.223900  0.197700  1
  H  H8  1  0.617300  0.776100  0.802300  1
  H  H9  1  0.294800  0.360000  0.354900  1
  H  H10  1  0.705200  0.640000  0.645100  1
  H  H11  1  0.104400  0.234000  0.287600  1
  H  H12  1  0.895600  0.766000  0.712400  1
  H  H13  1  0.109800  0.420900  0.395100  1
  H  H14  1  0.890200  0.579100  0.604900  1
  H  H15  1  0.870500  0.347100  0.405300  1
  H  H16  1  0.129500  0.652900  0.594700  1
  H  H17  1  0.999200  0.372700  0.420400  1
  H  H18  1  0.000800  0.627300  0.579600  1
  H  H19  1  0.000800  0.240800  0.254900  1
  H  H20  1  0.999200  0.759200  0.745100  1
  H  H21  1  0.871400  0.219000  0.242000  1
  H  H22  1  0.128600  0.781000  0.758000  1
  H  H23  1  0.005300  0.734400  0.337900  1
  H  H24  1  0.994700  0.265600  0.662100  1
  H  H25  1  0.100100  0.678600  0.309500  1
  H  H26  1  0.899900  0.321400  0.690500  1
  H  H27  1  0.047100  0.590100  0.427100  1
  H  H28  1  0.952900  0.409900  0.572900  1
  H  H29  1  0.959300  0.653000  0.455500  1
  H  H30  1  0.040700  0.347000  0.544500  1
  H  H31  1  0.169000  0.577800  0.421500  1
  H  H32  1  0.831000  0.422200  0.578500  1
  H  H33  1  0.124400  0.576800  0.253700  1
  H  H34  1  0.875600  0.423200  0.746300  1
  H  H35  1  0.265100  0.470900  0.290100  1
  H  H36  1  0.734900  0.529100  0.709900  1
  H  H37  1  0.145200  0.470500  0.060800  1
  H  H38  1  0.854800  0.529500  0.939200  1
  H  H39  1  0.117000  0.510800  0.162300  1
  H  H40  1  0.883000  0.489200  0.837700  1
  H  H41  1  0.317100  0.482500  0.215200  1
  H  H42  1  0.682900  0.517500  0.784800  1
  H  H43  1  0.341300  0.448400  0.116100  1
  H  H44  1  0.658700  0.551600  0.883900  1
  H  H45  1  0.703500  0.172600  0.993300  1
  H  H46  1  0.296500  0.827400  0.006700  1
  H  H47  1  0.706800  0.222100  0.093600  1
  H  H48  1  0.293200  0.777900  0.906400  1
  H  H49  1  0.795200  0.393900  0.082700  1
  H  H50  1  0.204800  0.606100  0.917300  1
  H  H51  1  0.784100  0.342400  0.979300  1
  H  H52  1  0.215900  0.657600  0.020700  1
  H  H53  1  0.752200  0.263600  0.185300  1
  H  H54  1  0.247800  0.736400  0.814700  1
  H  H55  1  0.770200  0.440700  0.171900  1
  H  H56  1  0.229800  0.559300  0.828100  1
  H  H57  1  0.775400  0.418000  0.334200  1
  H  H58  1  0.224600  0.582000  0.665800  1
  H  H59  1  0.853600  0.650600  0.280900  1
  H  H60  1  0.146400  0.349400  0.719100  1
  H  H61  1  0.815400  0.543500  0.222900  1
  H  H62  1  0.184600  0.456500  0.777100  1
  H  H63  1  0.748900  0.514800  0.372900  1
  H  H64  1  0.251100  0.485200  0.627100  1
  H  H65  1  0.786300  0.626500  0.423000  1
  H  H66  1  0.213700  0.373500  0.577000  1
  H  H67  1  0.889500  0.298300  0.874800  1
  H  H68  1  0.110500  0.701700  0.125200  1
  H  H69  1  0.016000  0.310600  0.900500  1
  H  H70  1  0.984000  0.689400  0.099500  1
  H  H71  1  0.976600  0.169200  0.969000  1
  H  H72  1  0.023400  0.830800  0.031000  1
  H  H73  1  0.853000  0.158000  0.944200  1
  H  H74  1  0.147000  0.842000  0.055800  1
  H  H75  1  0.112000  0.350100  0.959800  1
  H  H76  1  0.888000  0.649900  0.040200  1
  H  H77  1  0.097600  0.177500  0.979200  1
  H  H78  1  0.902400  0.822500  0.020800  1
  H  H79  1  0.291000  0.305600  0.022500  1
  H  H80  1  0.709000  0.694400  0.977500  1
  H  H81  1  0.394500  0.158700  0.053500  1
  H  H82  1  0.605500  0.841300  0.946500  1
  H  H83  1  0.338500  0.216500  0.008900  1
  H  H84  1  0.661500  0.783500  0.991100  1
  H  H85  1  0.141900  0.150500  0.055000  1
  H  H86  1  0.858100  0.849500  0.945000  1
  H  H87  1  0.201000  0.088400  0.095100  1
  H  H88  1  0.799000  0.911600  0.904900  1
  H  H89  1  0.498100  0.623000  0.551700  1
  H  H90  1  0.501900  0.377000  0.448300  1
  H  H91  1  0.514200  0.706300  0.517300  1
  H  H92  1  0.485800  0.293700  0.482700  1
  H  H93  1  0.428600  0.706600  0.443500  1
  H  H94  1  0.571400  0.293400  0.556500  1
  H  H95  1  0.322200  0.621700  0.408100  1
  H  H96  1  0.677800  0.378300  0.591900  1
  H  H97  1  0.472900  0.535600  0.582000  1
  H  H98  1  0.527100  0.464400  0.418000  1
  H  H99  1  0.438700  0.436800  0.599000  1
  H  H100  1  0.561300  0.563200  0.401000  1
  H  H101  1  0.341500  0.360700  0.543800  1
  H  H102  1  0.658500  0.639300  0.456200  1
  H  H103  1  0.272600  0.379200  0.466700  1
  H  H104  1  0.727400  0.620800  0.533300  1
  H  H105  1  0.879400  0.960000  0.546200  1
  H  H106  1  0.120600  0.040000  0.453800  1
  H  H107  1  0.010200  0.995200  0.568100  1
  H  H108  1  0.989800  0.004800  0.431900  1
  H  H109  1  0.086900  0.920100  0.530000  1
  H  H110  1  0.913100  0.079900  0.470000  1
  H  H111  1  0.030800  0.812500  0.457700  1
  H  H112  1  0.969200  0.187500  0.542300  1
  H  H113  1  0.761900  0.915600  0.517900  1
  H  H114  1  0.238100  0.084400  0.482100  1
  H  H115  1  0.637000  0.863700  0.473800  1
  H  H116  1  0.363000  0.136300  0.526200  1
  H  H117  1  0.612100  0.754300  0.405200  1
  H  H118  1  0.387900  0.245700  0.594800  1
  H  H119  1  0.715300  0.705300  0.386600  1
  H  H120  1  0.284700  0.294700  0.613400  1
  H  H121  1  0.365800  0.463300  0.822000  1
  H  H122  1  0.634200  0.536700  0.178000  1
  H  H123  1  0.328800  0.360200  0.751700  1
  H  H124  1  0.671200  0.639800  0.248300  1
  H  H125  1  0.254500  0.273900  0.773400  1
  H  H126  1  0.745500  0.726100  0.226600  1
  H  H127  1  0.232300  0.300000  0.877600  1
  H  H128  1  0.767700  0.700000  0.122400  1
  H  H129  1  0.392100  0.559800  0.894100  1
  H  H130  1  0.607900  0.440200  0.105900  1
  H  H131  1  0.419900  0.657900  0.977700  1
  H  H132  1  0.580100  0.342100  0.022300  1
  H  H133  1  0.380900  0.655500  0.067500  1
  H  H134  1  0.619100  0.344500  0.932500  1
  H  H135  1  0.318900  0.562800  0.075700  1
  H  H136  1  0.681100  0.437200  0.924300  1
  H  H137  1  0.583000  0.146700  0.401800  1
  H  H138  1  0.417000  0.853300  0.598200  1
  H  H139  1  0.673300  0.084700  0.414200  1
  H  H140  1  0.326700  0.915300  0.585800  1
  H  H141  1  0.790800  0.112400  0.403600  1
  H  H142  1  0.209200  0.887600  0.596400  1
  H  H143  1  0.822500  0.182300  0.350700  1
  H  H144  1  0.177500  0.817700  0.649300  1
  H  H145  1  0.513000  0.202800  0.372400  1
  H  H146  1  0.487000  0.797200  0.627600  1
  H  H147  1  0.440800  0.264200  0.339700  1
  H  H148  1  0.559200  0.735800  0.660300  1
  H  H149  1  0.499300  0.327800  0.288100  1
  H  H150  1  0.500700  0.672200  0.711900  1
  H  H151  1  0.617200  0.328200  0.266900  1
  H  H152  1  0.382800  0.671800  0.733100  1
  H  H153  1  0.501700  0.914900  0.062500  1
  H  H154  1  0.498300  0.085100  0.937500  1
  H  H155  1  0.467100  0.881000  0.959900  1
  H  H156  1  0.532900  0.119000  0.040100  1
  H  H157  1  0.382600  0.933600  0.925100  1
  H  H158  1  0.617400  0.066400  0.074900  1
  H  H159  1  0.335700  0.013700  0.998100  1
  H  H160  1  0.664300  0.986300  0.001900  1
  H  H161  1  0.538100  0.960300  0.163700  1
  H  H162  1  0.461900  0.039700  0.836300  1
  H  H163  1  0.542500  0.990400  0.268700  1
  H  H164  1  0.457500  0.009600  0.731300  1
  H  H165  1  0.477600  0.067500  0.321900  1
  H  H166  1  0.522400  0.932500  0.678100  1
  H  H167  1  0.393700  0.097700  0.266200  1
  H  H168  1  0.606300  0.902300  0.733800  1
  H  H169  1  0.616600  0.156100  0.684000  1
  H  H170  1  0.383400  0.843900  0.316000  1
  H  H171  1  0.713600  0.159500  0.630400  1
  H  H172  1  0.286400  0.840500  0.369600  1
  H  H173  1  0.835000  0.164200  0.678500  1
  H  H174  1  0.165000  0.835800  0.321500  1
  H  H175  1  0.850900  0.189200  0.788300  1
  H  H176  1  0.149100  0.810800  0.211700  1
  H  H177  1  0.524700  0.160300  0.742200  1
  H  H178  1  0.475300  0.839700  0.257800  1
  H  H179  1  0.438800  0.175100  0.810000  1
  H  H180  1  0.561200  0.824900  0.190000  1
  H  H181  1  0.476900  0.197600  0.914000  1
  H  H182  1  0.523100  0.802400  0.086000  1
  H  H183  1  0.605400  0.218500  0.944000  1
  H  H184  1  0.394600  0.781500  0.056000  1
  H  H185  1  0.973200  0.501300  0.140100  1
  H  H186  1  0.026800  0.498700  0.859900  1
  H  H187  1  0.969400  0.533700  0.247100  1
  H  H188  1  0.030600  0.466300  0.752900  1
  H  H189  1  0.964100  0.348400  0.231400  1
  H  H190  1  0.035900  0.651600  0.768600  1
  H  H191  1  0.975800  0.318800  0.125900  1
  H  H192  1  0.024200  0.681200  0.874100  1
  Pd  Pd193  1  0.264830  0.421140  0.993070  1
  Pd  Pd194  1  0.735170  0.578860  0.006930  1
  Pd  Pd195  1  0.747980  0.214920  0.886490  1
  Pd  Pd196  1  0.252020  0.785080  0.113510  1
  Pd  Pd197  1  0.747070  0.274970  0.311170  1
  Pd  Pd198  1  0.252930  0.725030  0.688830  1
  Pd  Pd199  1  0.273600  0.489210  0.419110  1
  Pd  Pd200  1  0.726400  0.510790  0.580890  1
  Pd  Pd201  1  0.356680  0.083560  0.134610  1
  Pd  Pd202  1  0.643320  0.916440  0.865390  1
  Pd  Pd203  1  0.880420  0.736500  0.412600  1
  Pd  Pd204  1  0.119580  0.263500  0.587400  1
  C  C205  1  0.261200  0.127400  0.227400  1
  C  C206  1  0.738800  0.872600  0.772600  1
  C  C207  1  0.222200  0.173700  0.266600  1
  C  C208  1  0.777800  0.826300  0.733400  1
  C  C209  1  0.246800  0.239200  0.279100  1
  C  C210  1  0.753200  0.760800  0.720900  1
  C  C211  1  0.311300  0.258300  0.253200  1
  C  C212  1  0.688700  0.741700  0.746800  1
  C  C213  1  0.341400  0.210700  0.215700  1
  C  C214  1  0.658600  0.789300  0.784300  1
  C  C215  1  0.242200  0.350500  0.349900  1
  C  C216  1  0.757800  0.649500  0.650100  1
  C  C217  1  0.210900  0.290200  0.316500  1
  C  C218  1  0.789100  0.709800  0.683500  1
  C  C219  1  0.131800  0.276100  0.312200  1
  C  C220  1  0.868200  0.723900  0.687800  1
  C  C221  1  0.096000  0.323500  0.343600  1
  C  C222  1  0.904000  0.676500  0.656400  1
  C  C223  1  0.135000  0.387200  0.375400  1
  C  C224  1  0.865000  0.612800  0.624600  1
  C  C225  1  0.896300  0.326600  0.372800  1
  C  C226  1  0.103700  0.673400  0.627200  1
  C  C227  1  0.974400  0.341300  0.383000  1
  C  C228  1  0.025600  0.658700  0.617000  1
  C  C229  1  0.015100  0.310100  0.338700  1
  C  C230  1  0.984900  0.689900  0.661300  1
  C  C231  1  0.975400  0.264400  0.286200  1
  C  C232  1  0.024600  0.735600  0.713800  1
  C  C233  1  0.896800  0.252100  0.278300  1
  C  C234  1  0.103200  0.747900  0.721700  1
  C  C235  1  0.014200  0.704600  0.356600  1
  C  C236  1  0.985800  0.295400  0.643400  1
  C  C237  1  0.069500  0.670900  0.338000  1
  C  C238  1  0.930500  0.329100  0.662000  1
  C  C239  1  0.078000  0.624300  0.363700  1
  C  C240  1  0.922000  0.375700  0.636300  1
  C  C241  1  0.039000  0.619300  0.407600  1
  C  C242  1  0.961000  0.380700  0.592400  1
  C  C243  1  0.986900  0.656800  0.424000  1
  C  C244  1  0.013100  0.343200  0.576000  1
  C  C245  1  0.174500  0.561500  0.379800  1
  C  C246  1  0.825500  0.438500  0.620200  1
  C  C247  1  0.134400  0.582200  0.341300  1
  C  C248  1  0.865600  0.417800  0.658700  1
  C  C249  1  0.148600  0.562100  0.281100  1
  C  C250  1  0.851400  0.437900  0.718900  1
  C  C251  1  0.198200  0.520500  0.260900  1
  C  C252  1  0.801800  0.479500  0.739100  1
  C  C253  1  0.232200  0.500000  0.303200  1
  C  C254  1  0.767800  0.500000  0.696800  1
  C  C255  1  0.180000  0.473300  0.093000  1
  C  C256  1  0.820000  0.526700  0.907000  1
  C  C257  1  0.162200  0.496900  0.153200  1
  C  C258  1  0.837800  0.503100  0.846800  1
  C  C259  1  0.217200  0.498400  0.199600  1
  C  C260  1  0.782800  0.501600  0.800400  1
  C  C261  1  0.280700  0.480600  0.184500  1
  C  C262  1  0.719300  0.519400  0.815500  1
  C  C263  1  0.294900  0.459600  0.125000  1
  C  C264  1  0.705100  0.540400  0.875000  1
  C  C265  1  0.721700  0.218400  0.011900  1
  C  C266  1  0.278300  0.781600  0.988100  1
  C  C267  1  0.724400  0.247800  0.070800  1
  C  C268  1  0.275600  0.752200  0.929200  1
  C  C269  1  0.751400  0.314300  0.101600  1
  C  C270  1  0.248600  0.685700  0.898400  1
  C  C271  1  0.775000  0.348500  0.065000  1
  C  C272  1  0.225000  0.651500  0.935000  1
  C  C273  1  0.769700  0.317400  0.003300  1
  C  C274  1  0.230300  0.682600  0.996700  1
  C  C275  1  0.754900  0.309300  0.203700  1
  C  C276  1  0.245100  0.690700  0.796300  1
  C  C277  1  0.754800  0.346100  0.166000  1
  C  C278  1  0.245200  0.653900  0.834000  1
  C  C279  1  0.765600  0.413200  0.194800  1
  C  C280  1  0.234400  0.586800  0.805200  1
  C  C281  1  0.769800  0.440500  0.258000  1
  C  C282  1  0.230200  0.559500  0.742000  1
  C  C283  1  0.768700  0.399200  0.291400  1
  C  C284  1  0.231300  0.600800  0.708600  1
  C  C285  1  0.834000  0.621400  0.299800  1
  C  C286  1  0.166000  0.378600  0.700200  1
  C  C287  1  0.811700  0.557900  0.264900  1
  C  C288  1  0.188300  0.442100  0.735100  1
  C  C289  1  0.782900  0.513000  0.291400  1
  C  C290  1  0.217100  0.487000  0.708600  1
  C  C291  1  0.772200  0.541100  0.352500  1
  C  C292  1  0.227800  0.458900  0.647500  1
  C  C293  1  0.796500  0.608500  0.382600  1
  C  C294  1  0.203500  0.391500  0.617400  1
  C  C295  1  0.907100  0.271600  0.893800  1
  C  C296  1  0.092900  0.728400  0.106200  1
  C  C297  1  0.982300  0.279900  0.910600  1
  C  C298  1  0.017700  0.720100  0.089400  1
  C  C299  1  0.009000  0.245600  0.940800  1
  C  C300  1  0.991000  0.754400  0.059200  1
  C  C301  1  0.959200  0.196700  0.950900  1
  C  C302  1  0.040800  0.803300  0.049100  1
  C  C303  1  0.886400  0.189200  0.934600  1
  C  C304  1  0.113600  0.810800  0.065400  1
  C  C305  1  0.133600  0.318000  0.968300  1
  C  C306  1  0.866400  0.682000  0.031700  1
  C  C307  1  0.089000  0.260600  0.961800  1
  C  C308  1  0.911000  0.739400  0.038200  1
  C  C309  1  0.126000  0.218200  0.981500  1
  C  C310  1  0.874000  0.781800  0.018500  1
  C  C311  1  0.197500  0.232400  0.002800  1
  C  C312  1  0.802500  0.767600  0.997200  1
  C  C313  1  0.240100  0.292900  0.006400  1
  C  C314  1  0.759900  0.707100  0.993600  1
  C  C315  1  0.342800  0.156500  0.053700  1
  C  C316  1  0.657200  0.843500  0.946300  1
  C  C317  1  0.309400  0.191200  0.027500  1
  C  C318  1  0.690600  0.808800  0.972500  1
  C  C319  1  0.234300  0.191200  0.026500  1
  C  C320  1  0.765700  0.808800  0.973500  1
  C  C321  1  0.193400  0.152200  0.053700  1
  C  C322  1  0.806600  0.847800  0.946300  1
  C  C323  1  0.230000  0.116100  0.078600  1
  C  C324  1  0.770000  0.883900  0.921400  1
  C  C325  1  0.400800  0.569000  0.497100  1
  C  C326  1  0.599200  0.431000  0.502900  1
  C  C327  1  0.462700  0.622600  0.520900  1
  C  C328  1  0.537300  0.377400  0.479100  1
  C  C329  1  0.472100  0.671700  0.501300  1
  C  C330  1  0.527900  0.328300  0.498700  1
  C  C331  1  0.422000  0.672300  0.458800  1
  C  C332  1  0.578000  0.327700  0.541200  1
  C  C333  1  0.359100  0.621000  0.437100  1
  C  C334  1  0.640900  0.379000  0.562900  1
  C  C335  1  0.385600  0.509900  0.512800  1
  C  C336  1  0.614400  0.490100  0.487200  1
  C  C337  1  0.431400  0.502900  0.559100  1
  C  C338  1  0.568600  0.497100  0.440900  1
  C  C339  1  0.410700  0.444300  0.568300  1
  C  C340  1  0.589300  0.555700  0.431700  1
  C  C341  1  0.354800  0.400200  0.536600  1
  C  C342  1  0.645200  0.599800  0.463400  1
  C  C343  1  0.313700  0.411500  0.490900  1
  C  C344  1  0.686300  0.588500  0.509100  1
  C  C345  1  0.887200  0.866200  0.488800  1
  C  C346  1  0.112800  0.133800  0.511200  1
  C  C347  1  0.912200  0.931900  0.529500  1
  C  C348  1  0.087800  0.068100  0.470500  1
  C  C349  1  0.988900  0.951500  0.542700  1
  C  C350  1  0.011100  0.048500  0.457300  1
  C  C351  1  0.034800  0.907800  0.519000  1
  C  C352  1  0.965200  0.092200  0.481000  1
  C  C353  1  0.000400  0.842100  0.476600  1
  C  C354  1  0.999600  0.157900  0.523400  1
  C  C355  1  0.809900  0.840100  0.469700  1
  C  C356  1  0.190100  0.159900  0.530300  1
  C  C357  1  0.751600  0.872600  0.488400  1
  C  C358  1  0.248400  0.127400  0.511600  1
  C  C359  1  0.676000  0.840700  0.463000  1
  C  C360  1  0.324000  0.159300  0.537000  1
  C  C361  1  0.660700  0.777500  0.423400  1
  C  C362  1  0.339300  0.222500  0.576600  1
  C  C363  1  0.724400  0.750000  0.412100  1
  C  C364  1  0.275600  0.250000  0.587900  1
  C  C365  1  0.320800  0.439200  0.889300  1
  C  C366  1  0.679200  0.560800  0.110700  1
  C  C367  1  0.338600  0.429100  0.832100  1
  C  C368  1  0.661400  0.570900  0.167900  1
  C  C369  1  0.315700  0.368700  0.791300  1
  C  C370  1  0.684300  0.631300  0.208700  1
  C  C371  1  0.272600  0.316000  0.803500  1
  C  C372  1  0.727400  0.684000  0.196500  1
  C  C373  1  0.259200  0.332400  0.865200  1
  C  C374  1  0.740800  0.667600  0.134800  1
  C  C375  1  0.341700  0.502800  0.937600  1
  C  C376  1  0.658300  0.497200  0.062400  1
  C  C377  1  0.378200  0.560800  0.932200  1
  C  C378  1  0.621800  0.439200  0.067800  1
  C  C379  1  0.394200  0.618700  0.980600  1
  C  C380  1  0.605800  0.381300  0.019400  1
  C  C381  1  0.370900  0.616400  0.032800  1
  C  C382  1  0.629100  0.383600  0.967200  1
  C  C383  1  0.334500  0.561600  0.038000  1
  C  C384  1  0.665500  0.438400  0.962000  1
  C  C385  1  0.657700  0.197600  0.362100  1
  C  C386  1  0.342300  0.802400  0.637900  1
  C  C387  1  0.631400  0.153100  0.390600  1
  C  C388  1  0.368600  0.846900  0.609400  1
  C  C389  1  0.687300  0.119300  0.400100  1
  C  C390  1  0.312700  0.880700  0.599900  1
  C  C391  1  0.754700  0.132300  0.391000  1
  C  C392  1  0.245300  0.867700  0.609000  1
  C  C393  1  0.774200  0.176300  0.362000  1
  C  C394  1  0.225800  0.823700  0.638000  1
  C  C395  1  0.604100  0.233000  0.341300  1
  C  C396  1  0.395900  0.767000  0.658700  1
  C  C397  1  0.533600  0.229700  0.351600  1
  C  C398  1  0.466400  0.770300  0.648400  1
  C  C399  1  0.490900  0.264800  0.332500  1
  C  C400  1  0.509100  0.735200  0.667500  1
  C  C401  1  0.526700  0.301900  0.301500  1
  C  C402  1  0.473300  0.698100  0.698500  1
  C  C403  1  0.596500  0.303500  0.289500  1
  C  C404  1  0.403500  0.696500  0.710500  1
  C  C405  1  0.441700  0.986000  0.091300  1
  C  C406  1  0.558300  0.014000  0.908700  1
  C  C407  1  0.467900  0.935700  0.048300  1
  C  C408  1  0.532100  0.064300  0.951700  1
  C  C409  1  0.447800  0.915000  0.987300  1
  C  C410  1  0.552200  0.085000  0.012700  1
  C  C411  1  0.398200  0.945400  0.966900  1
  C  C412  1  0.601800  0.054600  0.033100  1
  C  C413  1  0.372100  0.994500  0.011200  1
  C  C414  1  0.627900  0.005500  0.988800  1
  C  C415  1  0.455000  0.008900  0.156900  1
  C  C416  1  0.545000  0.991100  0.843100  1
  C  C417  1  0.507100  0.987400  0.185700  1
  C  C418  1  0.492900  0.012600  0.814300  1
  C  C419  1  0.511400  0.007500  0.247700  1
  C  C420  1  0.488600  0.992500  0.752300  1
  C  C421  1  0.472400  0.050900  0.279000  1
  C  C422  1  0.527600  0.949100  0.721000  1
  C  C423  1  0.424700  0.069800  0.245200  1
  C  C424  1  0.575300  0.930200  0.754800  1
  C  C425  1  0.677800  0.180500  0.768300  1
  C  C426  1  0.322200  0.819500  0.231700  1
  C  C427  1  0.665700  0.165200  0.703500  1
  C  C428  1  0.334300  0.834800  0.296500  1
  C  C429  1  0.721000  0.164000  0.671500  1
  C  C430  1  0.279000  0.836000  0.328500  1
  C  C431  1  0.794100  0.169100  0.700800  1
  C  C432  1  0.205900  0.830900  0.299200  1
  C  C433  1  0.803400  0.182500  0.767100  1
  C  C434  1  0.196600  0.817500  0.232900  1
  C  C435  1  0.618200  0.185700  0.804300  1
  C  C436  1  0.381800  0.814300  0.195700  1
  C  C437  1  0.540800  0.173500  0.784000  1
  C  C438  1  0.459200  0.826500  0.216000  1
  C  C439  1  0.489500  0.180400  0.824000  1
  C  C440  1  0.510500  0.819600  0.176000  1
  C  C441  1  0.511400  0.195500  0.885600  1
  C  C442  1  0.488600  0.804500  0.114400  1
  C  C443  1  0.588800  0.207200  0.902500  1
  C  C444  1  0.411200  0.792800  0.097500  1
  C  C445  1  0.967600  0.405600  0.125700  1
  C  C446  1  0.032400  0.594400  0.874300  1
  C  C447  1  0.970100  0.470000  0.159100  1
  C  C448  1  0.029900  0.530000  0.840900  1
  C  C449  1  0.968000  0.489600  0.222400  1
  C  C450  1  0.032000  0.510400  0.777600  1
  C  C451  1  0.963900  0.441700  0.245700  1
  C  C452  1  0.036100  0.558300  0.754300  1
  C  C453  1  0.965900  0.379900  0.212900  1
  C  C454  1  0.034100  0.620100  0.787100  1
  C  C455  1  0.970600  0.361600  0.149700  1
  C  C456  1  0.029400  0.638400  0.850300  1
  N  N457  1  0.318100  0.147900  0.202100  1
  N  N458  1  0.681900  0.852100  0.797900  1
  N  N459  1  0.210500  0.400000  0.377500  1
  N  N460  1  0.789500  0.600000  0.622500  1
  N  N461  1  0.855500  0.285500  0.320200  1
  N  N462  1  0.144500  0.714500  0.679800  1
  N  N463  1  0.973000  0.698800  0.397800  1
  N  N464  1  0.027000  0.301200  0.602200  1
  N  N465  1  0.220400  0.519900  0.361900  1
  N  N466  1  0.779600  0.480100  0.638100  1
  N  N467  1  0.245300  0.454600  0.080200  1
  N  N468  1  0.754700  0.545400  0.919800  1
  N  N469  1  0.745800  0.255200  0.977400  1
  N  N470  1  0.254200  0.744800  0.022600  1
  N  N471  1  0.758700  0.335700  0.264900  1
  N  N472  1  0.241300  0.664300  0.735100  1
  N  N473  1  0.830500  0.647400  0.361200  1
  N  N474  1  0.169500  0.352600  0.638800  1
  N  N475  1  0.857900  0.224300  0.904900  1
  N  N476  1  0.142100  0.775700  0.095100  1
  N  N477  1  0.206400  0.332100  0.986200  1
  N  N478  1  0.793600  0.667900  0.013800  1
  N  N479  1  0.302600  0.117100  0.081300  1
  N  N480  1  0.697400  0.882900  0.918700  1
  N  N481  1  0.351100  0.572700  0.456300  1
  N  N482  1  0.648900  0.427300  0.543700  1
  N  N483  1  0.332300  0.467600  0.481200  1
  N  N484  1  0.667700  0.532400  0.518800  1
  N  N485  1  0.926200  0.823000  0.463900  1
  N  N486  1  0.073800  0.177000  0.536100  1
  N  N487  1  0.793800  0.777300  0.431700  1
  N  N488  1  0.206200  0.222700  0.568300  1
  N  N489  1  0.284500  0.393700  0.906300  1
  N  N490  1  0.715500  0.606300  0.093700  1
  N  N491  1  0.320200  0.506400  0.991300  1
  N  N492  1  0.679800  0.493600  0.008700  1
  N  N493  1  0.727200  0.209300  0.350100  1
  N  N494  1  0.272800  0.790700  0.649900  1
  N  N495  1  0.637800  0.268200  0.311100  1
  N  N496  1  0.362200  0.731800  0.688900  1
  N  N497  1  0.394000  0.015400  0.068800  1
  N  N498  1  0.606000  0.984600  0.931200  1
  N  N499  1  0.418100  0.052200  0.185500  1
  N  N500  1  0.581900  0.947800  0.814500  1
  N  N501  1  0.744100  0.184900  0.795500  1
  N  N502  1  0.255900  0.815100  0.204500  1
  N  N503  1  0.640800  0.203700  0.864800  1
  N  N504  1  0.359200  0.796300  0.135200  1
  N  N505  1  0.259300  0.659100  0.175700  1
  N  N506  1  0.740700  0.340900  0.824300  1
  N  N507  1  0.142500  0.486100  0.934900  1
  N  N508  1  0.857500  0.513900  0.065100  1
  N  N509  1  0.412200  0.444800  0.323800  1
  N  N510  1  0.587800  0.555200  0.676200  1
  N  N511  1  0.444900  0.821300  0.837100  1
  N  N512  1  0.555100  0.178700  0.162900  1
  N  N513  1  0.157300  0.314300  0.184000  1
  N  N514  1  0.842700  0.685700  0.816000  1
  N  N515  1  0.013300  0.196000  0.393800  1
  N  N516  1  0.986700  0.804000  0.606200  1
  N  N517  1  0.583600  0.441300  0.235600  1
  N  N518  1  0.416400  0.558700  0.764400  1
  N  N519  1  0.877300  0.841100  0.339000  1
  N  N520  1  0.122700  0.158900  0.661000  1
  N  N521  1  0.830500  0.149700  0.093100  1
  N  N522  1  0.169500  0.850300  0.906900  1
  N  N523  1  0.319600  0.208000  0.401000  1
  N  N524  1  0.680400  0.792000  0.599000  1
  N  N525  1  0.895400  0.515600  0.486300  1
  N  N526  1  0.104600  0.484400  0.513700  1
  N  N527  1  0.275700  0.944300  0.159100  1
  N  N528  1  0.724300  0.055700  0.840900  1
  Cl  Cl529  1  0.975200  0.384000  0.049300  1
  Cl  Cl530  1  0.024800  0.616000  0.950700  1
  Cl  Cl531  1  0.959700  0.465900  0.323500  1
  Cl  Cl532  1  0.040300  0.534100  0.676500  1
  O  O533  1  0.328000  0.660800  0.179100  1
  O  O534  1  0.672000  0.339200  0.820900  1
  O  O535  1  0.228000  0.668200  0.222200  1
  O  O536  1  0.772000  0.331800  0.777800  1
  O  O537  1  0.223300  0.647900  0.126300  1
  O  O538  1  0.776700  0.352100  0.873700  1
  O  O539  1  0.094100  0.438100  0.934300  1
  O  O540  1  0.905900  0.561900  0.065700  1
  O  O541  1  0.159200  0.535300  0.980000  1
  O  O542  1  0.840800  0.464700  0.020000  1
  O  O543  1  0.171500  0.480700  0.887600  1
  O  O544  1  0.828500  0.519300  0.112400  1
  O  O545  1  0.383400  0.427100  0.269500  1
  O  O546  1  0.616600  0.572900  0.730500  1
  O  O547  1  0.426700  0.503500  0.352400  1
  O  O548  1  0.573300  0.496500  0.647600  1
  O  O549  1  0.417100  0.405900  0.349500  1
  O  O550  1  0.582900  0.594100  0.650500  1
  O  O551  1  0.433500  0.855300  0.805300  1
  O  O552  1  0.566500  0.144700  0.194700  1
  O  O553  1  0.390500  0.796300  0.854200  1
  O  O554  1  0.609500  0.203700  0.145800  1
  O  O555  1  0.507900  0.815300  0.852200  1
  O  O556  1  0.492100  0.184700  0.147800  1
  O  O557  1  0.195000  0.363400  0.227200  1
  O  O558  1  0.805000  0.636600  0.772800  1
  O  O559  1  0.180800  0.295500  0.135000  1
  O  O560  1  0.819200  0.704500  0.865000  1
  O  O561  1  0.095600  0.285100  0.188900  1
  O  O562  1  0.904400  0.714900  0.811100  1
  O  O563  1  0.070200  0.175500  0.372800  1
  O  O564  1  0.929800  0.824500  0.627200  1
  O  O565  1  0.028100  0.246500  0.438600  1
  O  O566  1  0.971900  0.753500  0.561400  1
  O  O567  1  0.948400  0.165200  0.378000  1
  O  O568  1  0.051600  0.834800  0.622000  1
  O  O569  1  0.562100  0.487200  0.224800  1
  O  O570  1  0.437900  0.512800  0.775200  1
  O  O571  1  0.602000  0.449600  0.288300  1
  O  O572  1  0.398000  0.550400  0.711700  1
  O  O573  1  0.571000  0.386200  0.195800  1
  O  O574  1  0.429000  0.613800  0.804200  1
  O  O575  1  0.921900  0.802600  0.325000  1
  O  O576  1  0.078100  0.197400  0.675000  1
  O  O577  1  0.811400  0.822600  0.321500  1
  O  O578  1  0.188600  0.177400  0.678500  1
  O  O579  1  0.899000  0.898400  0.373900  1
  O  O580  1  0.101000  0.101600  0.626100  1
  O  O581  1  0.768000  0.119000  0.096000  1
  O  O582  1  0.232000  0.881000  0.904000  1
  O  O583  1  0.864000  0.128600  0.050200  1
  O  O584  1  0.136000  0.871400  0.949800  1
  O  O585  1  0.859300  0.203600  0.131700  1
  O  O586  1  0.140700  0.796400  0.868300  1
  O  O587  1  0.354900  0.162400  0.377700  1
  O  O588  1  0.645100  0.837600  0.622300  1
  O  O589  1  0.253900  0.195200  0.407800  1
  O  O590  1  0.746100  0.804800  0.592200  1
  O  O591  1  0.351400  0.265200  0.419900  1
  O  O592  1  0.648600  0.734800  0.580100  1
  O  O593  1  0.882000  0.465000  0.502000  1
  O  O594  1  0.118000  0.535000  0.498000  1
  O  O595  1  0.841000  0.527000  0.463000  1
  O  O596  1  0.159000  0.473000  0.537000  1
  O  O597  1  0.957700  0.542400  0.486100  1
  O  O598  1  0.042300  0.457600  0.513900  1
  O  O599  1  0.316000  0.938300  0.201200  1
  O  O600  1  0.684000  0.061700  0.798800  1
  O  O601  1  0.223800  0.971300  0.174400  1
  O  O602  1  0.776200  0.028700  0.825600  1
  O  O603  1  0.282800  0.916600  0.105700  1
  O  O604  1  0.717200  0.083400  0.894300  1
  O  O605  1  0.029100  0.184000  0.096200  1
  O  O606  1  0.970900  0.816000  0.903800  1
  O  O607  1  0.090600  0.229600  0.802200  1
  O  O608  1  0.909400  0.770400  0.197800  1
  O  O609  1  0.174400  0.289000  0.467600  1
  O  O610  1  0.825600  0.711000  0.532400  1
  O  O611  1  0.052000  0.887000  0.351000  1
  O  O612  1  0.948000  0.113000  0.649000  1
  O  O613  1  0.501700  0.174200  0.632500  1
  O  O614  1  0.498300  0.825800  0.367500  1
  O  O615  1  0.315700  0.172000  0.725100  1
  O  O616  1  0.684300  0.828000  0.274900  1
  O  O617  1  0.699700  0.008400  0.230000  1
  O  O618  1  0.300300  0.991600  0.770000  1
  O  O619  1  0.613500  0.038800  0.508100  1
  O  O620  1  0.386500  0.961200  0.491900  1
  O  O621  1  0.429500  0.418800  0.033400  1
  O  O622  1  0.570500  0.581200  0.966600  1
  O  O623  1  0.569000  0.158000  0.535100  1
  O  O624  1  0.431000  0.842000  0.464900  1
  O  O625  1  0.199000  0.071500  0.349200  1
  O  O626  1  0.801000  0.928500  0.650800  1
  O  O627  1  0.335000  0.332400  0.154500  1
  O  O628  1  0.665000  0.667600  0.845500  1
  O  O629  1  0.464400  0.135800  0.440800  1
  O  O630  1  0.535600  0.864200  0.559200  1
  O  O631  1  0.071000  0.354400  0.804400  1
  O  O632  1  0.929000  0.645600  0.195600  1
  O  O633  1  0.765300  0.050500  0.505600  1
  O  O634  1  0.234700  0.949500  0.494400  1
  O  O635  1  0.526600  0.236200  0.038200  1
  O  O636  1  0.473400  0.763800  0.961800  1
  O  O637  1  0.055900  0.555200  0.064200  1
  O  O638  1  0.944100  0.444800  0.935800  1
  O  O639  1  0.076900  0.628700  0.184100  1
  O  O640  1  0.923100  0.371300  0.815900  1
  O  O641  1  0.323800  0.673100  0.323100  1
  O  O642  1  0.676200  0.326900  0.676900  1
  O  O643  1  0.236100  0.020200  0.929700  1
  O  O644  1  0.763900  0.979800  0.070300  1
  O  O645  1  0.181800  0.963900  0.398300  1
  O  O646  1  0.818200  0.036100  0.601700  1
  O  O647  1  0.331900  0.042900  0.685500  1
  O  O648  1  0.668100  0.957100  0.314500  1
  O  O649  1  0.295400  0.996000  0.322600  1
  O  O650  1  0.704600  0.004000  0.677400  1
  O  O651  1  0.039900  0.119400  0.192000  1
  O  O652  1  0.960100  0.880600  0.808000  1
  O  O653  1  0.752000  0.407500  0.436000  1
  O  O654  1  0.248000  0.592500  0.564000  1
  O  O655  1  0.350400  0.078900  0.884600  1
  O  O656  1  0.649600  0.921100  0.115400  1
  O  O657  1  0.702500  0.247200  0.569200  1
  O  O658  1  0.297500  0.752800  0.430800  1
  O  O659  1  0.452400  0.336000  0.093100  1
  O  O660  1  0.547600  0.664000  0.906900  1
  O  O661  1  0.424700  0.591800  0.296100  1
  O  O662  1  0.575300  0.408200  0.703900  1
  O  O663  1  0.296200  0.870200  0.793000  1
  O  O664  1  0.703800  0.129800  0.207000  1
  O  O665  1  0.427200  0.255500  0.712100  1
  O  O666  1  0.572800  0.744500  0.287900  1
  O  O667  1  0.767900  0.314400  0.492000  1
  O  O668  1  0.232100  0.685600  0.508000  1
  O  O669  1  0.418400  0.004100  0.400800  1
  O  O670  1  0.581600  0.995900  0.599200  1
  O  O671  1  0.199200  0.016000  0.602800  1
  O  O672  1  0.800800  0.984000  0.397200  1
  O  O673  1  0.322700  0.199900  0.884200  1
  O  O674  1  0.677300  0.800100  0.115800  1
  O  O675  1  0.883000  0.251900  0.482800  1
  O  O676  1  0.117000  0.748100  0.517200  1
  O  O677  1  0.446600  0.036700  0.612300  1
  O  O678  1  0.553400  0.963300  0.387700  1
  O  O679  1  0.825200  0.185600  0.548700  1
  O  O680  1  0.174800  0.814400  0.451300  1
  O  O681  1  0.400400  0.379200  0.669700  1
  O  O682  1  0.599600  0.620800  0.330300  1
  O  O683  1  0.193000  0.161800  0.824600  1
  O  O684  1  0.807000  0.838200  0.175400  1
  O  O685  1  0.184000  0.964000  0.065000  1
  O  O686  1  0.816000  0.036000  0.935000  1
  O  O687  1  0.484700  0.653600  0.183200  1
  O  O688  1  0.515300  0.346400  0.816800  1
  O  O689  1  0.575200  0.680100  0.087500  1
  O  O690  1  0.424800  0.319900  0.912500  1
  O  O691  1  0.959600  0.144400  0.782300  1
  O  O692  1  0.040400  0.855600  0.217700  1
  O  O693  1  0.470400  0.535200  0.176300  1
  O  O694  1  0.529600  0.464800  0.823700  1
  O  O695  1  0.103000  0.065000  0.888000  1
  O  O696  1  0.897000  0.935000  0.112000  1
  O  O697  1  0.496300  0.471200  0.964500  1
  O  O698  1  0.503700  0.528800  0.035500  1
