# generated using pymatgen
data_Fe4H123C149N31(Cl2O13)5
_symmetry_space_group_name_H-M   'P 1'
_cell_length_a   20.49400000
_cell_length_b   21.09500000
_cell_length_c   22.71000000
_cell_angle_alpha   68.23100000
_cell_angle_beta   65.48500000
_cell_angle_gamma   82.91000000
_symmetry_Int_Tables_number   1
_chemical_formula_structural   Fe4H123C149N31(Cl2O13)5
_chemical_formula_sum   'Fe8 H246 C298 N62 Cl20 O130'
_cell_volume   8290.51245396
_cell_formula_units_Z   2
loop_
 _symmetry_equiv_pos_site_id
 _symmetry_equiv_pos_as_xyz
  1  'x, y, z'
loop_
 _atom_site_type_symbol
 _atom_site_label
 _atom_site_symmetry_multiplicity
 _atom_site_fract_x
 _atom_site_fract_y
 _atom_site_fract_z
 _atom_site_occupancy
  Fe  Fe1  1  0.516150  0.568840  0.293760  1
  Fe  Fe2  1  0.483850  0.431160  0.706240  1
  Fe  Fe3  1  0.077240  0.684880  0.674960  1
  Fe  Fe4  1  0.922760  0.315120  0.325040  1
  Fe  Fe5  1  0.422150  0.084540  0.278140  1
  Fe  Fe6  1  0.577850  0.915460  0.721860  1
  Fe  Fe7  1  0.104240  0.832500  0.159590  1
  Fe  Fe8  1  0.895760  0.167500  0.840410  1
  H  H9  1  0.665000  0.578800  0.173000  1
  H  H10  1  0.335000  0.421200  0.827000  1
  H  H11  1  0.783000  0.609000  0.147100  1
  H  H12  1  0.217000  0.391000  0.852900  1
  H  H13  1  0.806700  0.633400  0.227500  1
  H  H14  1  0.193300  0.366600  0.772500  1
  H  H15  1  0.711200  0.633300  0.333200  1
  H  H16  1  0.288800  0.366700  0.666800  1
  H  H17  1  0.573200  0.616200  0.406700  1
  H  H18  1  0.426800  0.383800  0.593300  1
  H  H19  1  0.409600  0.495200  0.478700  1
  H  H20  1  0.590400  0.504800  0.521300  1
  H  H21  1  0.307200  0.508700  0.565100  1
  H  H22  1  0.692800  0.491300  0.434900  1
  H  H23  1  0.467600  0.694800  0.409800  1
  H  H24  1  0.532400  0.305200  0.590200  1
  H  H25  1  0.387300  0.771200  0.468800  1
  H  H26  1  0.612700  0.228800  0.531200  1
  H  H27  1  0.282900  0.785800  0.555500  1
  H  H28  1  0.717100  0.214200  0.444500  1
  H  H29  1  0.223400  0.585700  0.626600  1
  H  H30  1  0.776600  0.414300  0.373400  1
  H  H31  1  0.239000  0.720800  0.693300  1
  H  H32  1  0.761000  0.279200  0.306700  1
  H  H33  1  0.175700  0.765800  0.797800  1
  H  H34  1  0.824300  0.234200  0.202200  1
  H  H35  1  0.067600  0.782000  0.881300  1
  H  H36  1  0.932400  0.218000  0.118700  1
  H  H37  1  0.960500  0.758300  0.880800  1
  H  H38  1  0.039500  0.241700  0.119200  1
  H  H39  1  0.959300  0.711100  0.802900  1
  H  H40  1  0.040700  0.288900  0.197100  1
  H  H41  1  0.535600  0.457200  0.228100  1
  H  H42  1  0.464400  0.542800  0.771900  1
  H  H43  1  0.559000  0.460200  0.118400  1
  H  H44  1  0.441000  0.539800  0.881600  1
  H  H45  1  0.563400  0.563000  0.029000  1
  H  H46  1  0.436600  0.437000  0.971000  1
  H  H47  1  0.548300  0.665300  0.052800  1
  H  H48  1  0.451700  0.334700  0.947200  1
  H  H49  1  0.527000  0.722300  0.144700  1
  H  H50  1  0.473000  0.277700  0.855300  1
  H  H51  1  0.445800  0.951100  0.426200  1
  H  H52  1  0.554200  0.048900  0.573800  1
  H  H53  1  0.434000  0.026600  0.500500  1
  H  H54  1  0.566000  0.973400  0.499500  1
  H  H55  1  0.421000  0.135500  0.507500  1
  H  H56  1  0.579000  0.864500  0.492500  1
  H  H57  1  0.404300  0.226400  0.418200  1
  H  H58  1  0.595700  0.773600  0.581800  1
  H  H59  1  0.403000  0.209500  0.323900  1
  H  H60  1  0.597000  0.790500  0.676100  1
  H  H61  1  0.629200  0.459000  0.315400  1
  H  H62  1  0.370800  0.541000  0.684600  1
  H  H63  1  0.626700  0.342700  0.368400  1
  H  H64  1  0.373300  0.657300  0.631600  1
  H  H65  1  0.515500  0.282000  0.438400  1
  H  H66  1  0.484500  0.718000  0.561600  1
  H  H67  1  0.411500  0.340200  0.440900  1
  H  H68  1  0.588500  0.659800  0.559100  1
  H  H69  1  0.352500  0.458500  0.392800  1
  H  H70  1  0.647500  0.541500  0.607200  1
  H  H71  1  0.300200  0.577000  0.420100  1
  H  H72  1  0.699800  0.423000  0.579900  1
  H  H73  1  0.200700  0.635200  0.403100  1
  H  H74  1  0.799300  0.364800  0.596900  1
  H  H75  1  0.393100  0.591500  0.219900  1
  H  H76  1  0.606900  0.408500  0.780100  1
  H  H77  1  0.328600  0.649300  0.140700  1
  H  H78  1  0.671400  0.350700  0.859300  1
  H  H79  1  0.225700  0.699200  0.127500  1
  H  H80  1  0.774300  0.300800  0.872500  1
  H  H81  1  0.134600  0.689000  0.326400  1
  H  H82  1  0.865400  0.311000  0.673600  1
  H  H83  1  0.047100  0.654800  0.276800  1
  H  H84  1  0.952900  0.345200  0.723200  1
  H  H85  1  0.911900  0.663600  0.307000  1
  H  H86  1  0.088100  0.336400  0.693000  1
  H  H87  1  0.813600  0.733000  0.292500  1
  H  H88  1  0.186400  0.267000  0.707500  1
  H  H89  1  0.841600  0.848500  0.220800  1
  H  H90  1  0.158400  0.151500  0.779200  1
  H  H91  1  0.957300  0.887000  0.159500  1
  H  H92  1  0.042700  0.113000  0.840500  1
  H  H93  1  0.944400  0.580700  0.771800  1
  H  H94  1  0.055600  0.419300  0.228200  1
  H  H95  1  0.825000  0.582500  0.788900  1
  H  H96  1  0.175000  0.417500  0.211100  1
  H  H97  1  0.781200  0.678200  0.722500  1
  H  H98  1  0.218800  0.321800  0.277500  1
  H  H99  1  0.856100  0.773700  0.651400  1
  H  H100  1  0.143900  0.226300  0.348600  1
  H  H101  1  0.981300  0.832500  0.602200  1
  H  H102  1  0.018700  0.167500  0.397800  1
  H  H103  1  0.150000  0.844100  0.641200  1
  H  H104  1  0.850000  0.155900  0.358800  1
  H  H105  1  0.230800  0.933600  0.563800  1
  H  H106  1  0.769200  0.066400  0.436200  1
  H  H107  1  0.081800  0.852200  0.494300  1
  H  H108  1  0.918200  0.147800  0.505700  1
  H  H109  1  0.290500  0.018600  0.442000  1
  H  H110  1  0.709500  0.981400  0.558000  1
  H  H111  1  0.225000  0.019000  0.296400  1
  H  H112  1  0.775000  0.981000  0.703600  1
  H  H113  1  0.142000  0.933000  0.374900  1
  H  H114  1  0.858000  0.067000  0.625100  1
  H  H115  1  0.240800  0.138400  0.290200  1
  H  H116  1  0.759200  0.861600  0.709800  1
  H  H117  1  0.511400  0.218400  0.166400  1
  H  H118  1  0.488600  0.781600  0.833600  1
  H  H119  1  0.483800  0.321100  0.095500  1
  H  H120  1  0.516200  0.678900  0.904500  1
  H  H121  1  0.365000  0.342000  0.107100  1
  H  H122  1  0.635000  0.658000  0.892900  1
  H  H123  1  0.273800  0.260200  0.189700  1
  H  H124  1  0.726200  0.739800  0.810300  1
  H  H125  1  0.086000  0.581200  0.810500  1
  H  H126  1  0.914000  0.418800  0.189500  1
  H  H127  1  0.075700  0.461500  0.862900  1
  H  H128  1  0.924300  0.538500  0.137100  1
  H  H129  1  0.061600  0.396300  0.807900  1
  H  H130  1  0.938400  0.603700  0.192100  1
  H  H131  1  0.064700  0.448600  0.696900  1
  H  H132  1  0.935300  0.551400  0.303100  1
  H  H133  1  0.077700  0.563500  0.592600  1
  H  H134  1  0.922300  0.436500  0.407400  1
  H  H135  1  0.999300  0.675900  0.539900  1
  H  H136  1  0.000700  0.324100  0.460100  1
  H  H137  1  0.203500  0.722200  0.499200  1
  H  H138  1  0.796500  0.277800  0.500800  1
  H  H139  1  0.221200  0.792400  0.387200  1
  H  H140  1  0.778800  0.207600  0.612800  1
  H  H141  1  0.174000  0.844100  0.294300  1
  H  H142  1  0.826000  0.155900  0.705700  1
  H  H143  1  0.969700  0.797800  0.335000  1
  H  H144  1  0.030300  0.202200  0.665000  1
  H  H145  1  0.952000  0.727600  0.447000  1
  H  H146  1  0.048000  0.272400  0.553000  1
  H  H147  1  0.054800  0.948600  0.258200  1
  H  H148  1  0.945200  0.051400  0.741800  1
  H  H149  1  0.098800  0.933400  0.018100  1
  H  H150  1  0.901200  0.066600  0.981900  1
  H  H151  1  0.075100  0.049500  0.978300  1
  H  H152  1  0.924900  0.950500  0.021700  1
  H  H153  1  0.047500  0.113000  0.050500  1
  H  H154  1  0.952500  0.887000  0.949500  1
  H  H155  1  0.043600  0.060400  0.162600  1
  H  H156  1  0.956400  0.939600  0.837400  1
  H  H157  1  0.552300  0.124100  0.293300  1
  H  H158  1  0.447700  0.875900  0.706700  1
  H  H159  1  0.677400  0.113900  0.247500  1
  H  H160  1  0.322600  0.886100  0.752500  1
  H  H161  1  0.729300  0.085300  0.149100  1
  H  H162  1  0.270700  0.914700  0.850900  1
  H  H163  1  0.651900  0.062000  0.103100  1
  H  H164  1  0.348100  0.938000  0.896900  1
  H  H165  1  0.522100  0.042400  0.120300  1
  H  H166  1  0.477900  0.957600  0.879700  1
  H  H167  1  0.430900  0.934000  0.198300  1
  H  H168  1  0.569100  0.066000  0.801700  1
  H  H169  1  0.258800  0.074500  0.130900  1
  H  H170  1  0.741200  0.925500  0.869100  1
  H  H171  1  0.331500  0.116300  0.161200  1
  H  H172  1  0.668500  0.883700  0.838800  1
  H  H173  1  0.385800  0.838000  0.185800  1
  H  H174  1  0.614200  0.162000  0.814200  1
  H  H175  1  0.305100  0.793100  0.161300  1
  H  H176  1  0.694900  0.206900  0.838700  1
  H  H177  1  0.210600  0.975500  0.122000  1
  H  H178  1  0.789400  0.024500  0.878000  1
  H  H179  1  0.292600  0.849800  0.035800  1
  H  H180  1  0.707400  0.150200  0.964200  1
  H  H181  1  0.039000  0.777100  0.088900  1
  H  H182  1  0.961000  0.222900  0.911100  1
  H  H183  1  0.082800  0.743100  0.991500  1
  H  H184  1  0.917200  0.256900  0.008500  1
  H  H185  1  0.206700  0.748200  0.926700  1
  H  H186  1  0.793300  0.251800  0.073300  1
  H  H187  1  0.283100  0.792100  0.955200  1
  H  H188  1  0.716900  0.207900  0.044800  1
  H  H189  1  0.616300  0.740400  0.222600  1
  H  H190  1  0.383700  0.259600  0.777400  1
  H  H191  1  0.398800  0.724300  0.291100  1
  H  H192  1  0.601200  0.275700  0.708900  1
  H  H193  1  0.603900  0.832400  0.257200  1
  H  H194  1  0.396100  0.167600  0.742800  1
  H  H195  1  0.532500  0.924500  0.295800  1
  H  H196  1  0.467500  0.075500  0.704200  1
  H  H197  1  0.315400  0.912200  0.363900  1
  H  H198  1  0.684600  0.087800  0.636100  1
  H  H199  1  0.324500  0.811000  0.341700  1
  H  H200  1  0.675500  0.189000  0.658300  1
  H  H201  1  0.937400  0.998200  0.515300  1
  H  H202  1  0.062600  0.001800  0.484700  1
  H  H203  1  0.977400  0.931900  0.545000  1
  H  H204  1  0.022600  0.068100  0.455000  1
  H  H205  1  0.891700  0.930900  0.574000  1
  H  H206  1  0.108300  0.069100  0.426000  1
  H  H207  1  0.780400  0.547700  0.022000  1
  H  H208  1  0.219600  0.452300  0.978000  1
  H  H209  1  0.801100  0.620400  0.017900  1
  H  H210  1  0.198900  0.379600  0.982100  1
  H  H211  1  0.860400  0.579200  0.975000  1
  H  H212  1  0.139600  0.420800  0.025000  1
  H  H213  1  0.758900  0.946600  0.306900  1
  H  H214  1  0.241100  0.053400  0.693100  1
  H  H215  1  0.710000  0.914000  0.387800  1
  H  H216  1  0.290000  0.086000  0.612200  1
  H  H217  1  0.712600  0.994800  0.348600  1
  H  H218  1  0.287400  0.005200  0.651400  1
  H  H219  1  0.735200  0.919600  0.146400  1
  H  H220  1  0.264800  0.080400  0.853600  1
  H  H221  1  0.796600  0.877000  0.107500  1
  H  H222  1  0.203400  0.123000  0.892500  1
  H  H223  1  0.713900  0.857600  0.132500  1
  H  H224  1  0.286100  0.142400  0.867500  1
  H  H225  1  0.752700  0.924800  0.510600  1
  H  H226  1  0.247300  0.075200  0.489400  1
  H  H227  1  0.725600  0.881500  0.479700  1
  H  H228  1  0.274400  0.118500  0.520300  1
  H  H229  1  0.808600  0.904400  0.446900  1
  H  H230  1  0.191400  0.095600  0.553100  1
  H  H231  1  0.793300  0.761700  0.937400  1
  H  H232  1  0.206700  0.238300  0.062600  1
  H  H233  1  0.804000  0.807200  0.975700  1
  H  H234  1  0.196000  0.192800  0.024300  1
  H  H235  1  0.751700  0.831200  0.935800  1
  H  H236  1  0.248300  0.168800  0.064200  1
  H  H237  1  0.571400  0.956100  0.286300  1
  H  H238  1  0.428600  0.043900  0.713700  1
  H  H239  1  0.609900  0.860900  0.247800  1
  H  H240  1  0.390100  0.139100  0.752200  1
  H  H241  1  0.362400  0.897100  0.363000  1
  H  H242  1  0.637600  0.102900  0.637000  1
  H  H243  1  0.370000  0.696800  0.321200  1
  H  H244  1  0.630000  0.303200  0.678800  1
  H  H245  1  0.335500  0.790700  0.355400  1
  H  H246  1  0.664500  0.209300  0.644600  1
  H  H247  1  0.579400  0.757200  0.237500  1
  H  H248  1  0.420600  0.242800  0.762500  1
  H  H249  1  0.993000  0.625500  0.364600  1
  H  H250  1  0.007000  0.374500  0.635400  1
  H  H251  1  0.913100  0.592900  0.409200  1
  H  H252  1  0.086900  0.407100  0.590800  1
  H  H253  1  0.973600  0.554800  0.363600  1
  H  H254  1  0.026400  0.445200  0.636400  1
  C  C255  1  0.674300  0.590200  0.205600  1
  C  C256  1  0.325700  0.409800  0.794400  1
  C  C257  1  0.745400  0.607700  0.189900  1
  C  C258  1  0.254600  0.392300  0.810100  1
  C  C259  1  0.758900  0.622700  0.236900  1
  C  C260  1  0.241100  0.377300  0.763100  1
  C  C261  1  0.702700  0.622500  0.299800  1
  C  C262  1  0.297300  0.377500  0.700200  1
  C  C263  1  0.635000  0.605900  0.310000  1
  C  C264  1  0.365000  0.394100  0.690000  1
  C  C265  1  0.570200  0.604900  0.371200  1
  C  C266  1  0.429800  0.395100  0.628800  1
  C  C267  1  0.446600  0.595800  0.433100  1
  C  C268  1  0.553400  0.404200  0.566900  1
  C  C269  1  0.398800  0.539200  0.482100  1
  C  C270  1  0.601200  0.460800  0.517900  1
  C  C271  1  0.338400  0.547200  0.533300  1
  C  C272  1  0.661600  0.452800  0.466700  1
  C  C273  1  0.319900  0.611300  0.541400  1
  C  C274  1  0.680100  0.388700  0.458600  1
  C  C275  1  0.369200  0.668700  0.493800  1
  C  C276  1  0.630800  0.331300  0.506200  1
  C  C277  1  0.433600  0.658000  0.440400  1
  C  C278  1  0.566400  0.342000  0.559600  1
  C  C279  1  0.354400  0.733700  0.500100  1
  C  C280  1  0.645600  0.266300  0.499900  1
  C  C281  1  0.292800  0.742100  0.551300  1
  C  C282  1  0.707200  0.257900  0.448700  1
  C  C283  1  0.242900  0.686200  0.598600  1
  C  C284  1  0.757100  0.313800  0.401400  1
  C  C285  1  0.256600  0.622700  0.594100  1
  C  C286  1  0.743400  0.377300  0.405900  1
  C  C287  1  0.191500  0.716000  0.697600  1
  C  C288  1  0.808500  0.284000  0.302400  1
  C  C289  1  0.129800  0.729700  0.752300  1
  C  C290  1  0.870200  0.270300  0.247700  1
  C  C291  1  0.131300  0.755200  0.799100  1
  C  C292  1  0.868700  0.244800  0.200900  1
  C  C293  1  0.067800  0.765000  0.847900  1
  C  C294  1  0.932200  0.235000  0.152100  1
  C  C295  1  0.004700  0.750100  0.848000  1
  C  C296  1  0.995300  0.249900  0.152000  1
  C  C297  1  0.003800  0.722700  0.800600  1
  C  C298  1  0.996200  0.277300  0.199400  1
  C  C299  1  0.539200  0.500000  0.192200  1
  C  C300  1  0.460800  0.500000  0.807800  1
  C  C301  1  0.552200  0.501900  0.126900  1
  C  C302  1  0.447800  0.498100  0.873100  1
  C  C303  1  0.555500  0.562400  0.073500  1
  C  C304  1  0.444500  0.437600  0.926500  1
  C  C305  1  0.546800  0.622400  0.087600  1
  C  C306  1  0.453200  0.377600  0.912400  1
  C  C307  1  0.536100  0.618700  0.152300  1
  C  C308  1  0.463900  0.381300  0.847700  1
  C  C309  1  0.523700  0.676800  0.176000  1
  C  C310  1  0.476300  0.323200  0.824000  1
  C  C311  1  0.436000  0.991900  0.395300  1
  C  C312  1  0.564000  0.008100  0.604700  1
  C  C313  1  0.427300  0.057500  0.408200  1
  C  C314  1  0.572700  0.942500  0.591800  1
  C  C315  1  0.428000  0.064900  0.464600  1
  C  C316  1  0.572000  0.935100  0.535400  1
  C  C317  1  0.420000  0.128400  0.469000  1
  C  C318  1  0.580000  0.871600  0.531000  1
  C  C319  1  0.410300  0.181800  0.416000  1
  C  C320  1  0.589700  0.818200  0.584000  1
  C  C321  1  0.409300  0.171800  0.360100  1
  C  C322  1  0.590700  0.828200  0.639900  1
  C  C323  1  0.584100  0.435000  0.340100  1
  C  C324  1  0.415900  0.565000  0.659900  1
  C  C325  1  0.583000  0.365900  0.372900  1
  C  C326  1  0.417000  0.634100  0.627100  1
  C  C327  1  0.517500  0.329600  0.412900  1
  C  C328  1  0.482500  0.670400  0.587100  1
  C  C329  1  0.456900  0.363800  0.414600  1
  C  C330  1  0.543100  0.636200  0.585400  1
  C  C331  1  0.461300  0.434900  0.377200  1
  C  C332  1  0.538700  0.565100  0.622800  1
  C  C333  1  0.400200  0.477100  0.370100  1
  C  C334  1  0.599800  0.522900  0.629900  1
  C  C335  1  0.354700  0.578200  0.320800  1
  C  C336  1  0.645300  0.421800  0.679200  1
  C  C337  1  0.298200  0.591400  0.376100  1
  C  C338  1  0.701800  0.408600  0.623900  1
  C  C339  1  0.238900  0.625800  0.365900  1
  C  C340  1  0.761100  0.374200  0.634100  1
  C  C341  1  0.235400  0.646600  0.301300  1
  C  C342  1  0.764600  0.353400  0.698700  1
  C  C343  1  0.293200  0.634300  0.245000  1
  C  C344  1  0.706800  0.365700  0.755000  1
  C  C345  1  0.353500  0.599600  0.257000  1
  C  C346  1  0.646500  0.400400  0.743000  1
  C  C347  1  0.289400  0.656100  0.178900  1
  C  C348  1  0.710600  0.343900  0.821100  1
  C  C349  1  0.229200  0.686800  0.170800  1
  C  C350  1  0.770800  0.313200  0.829200  1
  C  C351  1  0.172500  0.700000  0.226200  1
  C  C352  1  0.827500  0.300000  0.773800  1
  C  C353  1  0.174200  0.680400  0.289600  1
  C  C354  1  0.825800  0.319600  0.710400  1
  C  C355  1  0.050500  0.701700  0.248700  1
  C  C356  1  0.949500  0.298300  0.751300  1
  C  C357  1  0.988700  0.738400  0.241100  1
  C  C358  1  0.011300  0.261600  0.758900  1
  C  C359  1  0.920100  0.710100  0.277200  1
  C  C360  1  0.079900  0.289900  0.722800  1
  C  C361  1  0.861600  0.750900  0.269300  1
  C  C362  1  0.138400  0.249100  0.730700  1
  C  C363  1  0.878800  0.818100  0.226000  1
  C  C364  1  0.121200  0.181900  0.774000  1
  C  C365  1  0.947700  0.841200  0.191000  1
  C  C366  1  0.052300  0.158800  0.809000  1
  C  C367  1  0.926600  0.620600  0.747100  1
  C  C368  1  0.073400  0.379400  0.252900  1
  C  C369  1  0.855900  0.621200  0.756500  1
  C  C370  1  0.144100  0.378800  0.243500  1
  C  C371  1  0.829100  0.678300  0.718700  1
  C  C372  1  0.170900  0.321700  0.281300  1
  C  C373  1  0.873600  0.733700  0.676500  1
  C  C374  1  0.126400  0.266300  0.323500  1
  C  C375  1  0.944200  0.733500  0.669100  1
  C  C376  1  0.055800  0.266500  0.330900  1
  C  C377  1  0.995100  0.789500  0.626600  1
  C  C378  1  0.004900  0.210500  0.373400  1
  C  C379  1  0.108900  0.836900  0.573900  1
  C  C380  1  0.891100  0.163100  0.426100  1
  C  C381  1  0.153800  0.863700  0.594800  1
  C  C382  1  0.846200  0.136300  0.405200  1
  C  C383  1  0.201800  0.916900  0.548900  1
  C  C384  1  0.798200  0.083100  0.451100  1
  C  C385  1  0.208900  0.947700  0.478800  1
  C  C386  1  0.791100  0.052300  0.521200  1
  C  C387  1  0.163800  0.920400  0.458400  1
  C  C388  1  0.836200  0.079600  0.541600  1
  C  C389  1  0.113600  0.867400  0.507500  1
  C  C390  1  0.886400  0.132600  0.492500  1
  C  C391  1  0.259900  0.001200  0.429100  1
  C  C392  1  0.740100  0.998800  0.570900  1
  C  C393  1  0.264700  0.027800  0.362200  1
  C  C394  1  0.735300  0.972200  0.637800  1
  C  C395  1  0.220500  0.000900  0.343000  1
  C  C396  1  0.779500  0.999100  0.657000  1
  C  C397  1  0.171700  0.949600  0.389500  1
  C  C398  1  0.828300  0.050400  0.610500  1
  C  C399  1  0.290900  0.136000  0.279300  1
  C  C400  1  0.709100  0.864000  0.720700  1
  C  C401  1  0.338400  0.190700  0.227100  1
  C  C402  1  0.661600  0.809300  0.772900  1
  C  C403  1  0.463100  0.226800  0.171100  1
  C  C404  1  0.536900  0.773200  0.828900  1
  C  C405  1  0.446800  0.287900  0.129000  1
  C  C406  1  0.553200  0.712100  0.871000  1
  C  C407  1  0.376200  0.300300  0.135900  1
  C  C408  1  0.623800  0.699700  0.864100  1
  C  C409  1  0.322100  0.251700  0.184900  1
  C  C410  1  0.677900  0.748300  0.815100  1
  C  C411  1  0.081100  0.554900  0.786500  1
  C  C412  1  0.918900  0.445100  0.213500  1
  C  C413  1  0.074800  0.482700  0.818400  1
  C  C414  1  0.925200  0.517300  0.181600  1
  C  C415  1  0.067600  0.444600  0.786000  1
  C  C416  1  0.932400  0.555400  0.214000  1
  C  C417  1  0.068900  0.475300  0.721000  1
  C  C418  1  0.931100  0.524700  0.279000  1
  C  C419  1  0.076300  0.544300  0.691000  1
  C  C420  1  0.923700  0.455700  0.309000  1
  C  C421  1  0.081000  0.584600  0.621700  1
  C  C422  1  0.919000  0.415400  0.378300  1
  C  C423  1  0.043900  0.699700  0.508600  1
  C  C424  1  0.956100  0.300300  0.491400  1
  C  C425  1  0.098900  0.692400  0.530000  1
  C  C426  1  0.901100  0.307600  0.470000  1
  C  C427  1  0.165700  0.727500  0.484100  1
  C  C428  1  0.834300  0.272500  0.515900  1
  C  C429  1  0.176100  0.769100  0.417600  1
  C  C430  1  0.823900  0.230900  0.582400  1
  C  C431  1  0.120400  0.777700  0.393800  1
  C  C432  1  0.879600  0.222300  0.606200  1
  C  C433  1  0.129300  0.820300  0.325600  1
  C  C434  1  0.870700  0.179700  0.674400  1
  C  C435  1  0.074300  0.827600  0.304200  1
  C  C436  1  0.925700  0.172400  0.695800  1
  C  C437  1  0.007500  0.792500  0.350100  1
  C  C438  1  0.992500  0.207500  0.649900  1
  C  C439  1  0.997100  0.750900  0.416600  1
  C  C440  1  0.002900  0.249100  0.583400  1
  C  C441  1  0.052800  0.742300  0.440400  1
  C  C442  1  0.947200  0.257700  0.559600  1
  C  C443  1  0.066900  0.928300  0.224200  1
  C  C444  1  0.933100  0.071700  0.775800  1
  C  C445  1  0.068900  0.965700  0.157000  1
  C  C446  1  0.931100  0.034300  0.843000  1
  C  C447  1  0.087600  0.959200  0.047500  1
  C  C448  1  0.912400  0.040800  0.952500  1
  C  C449  1  0.073500  0.028100  0.023800  1
  C  C450  1  0.926500  0.971900  0.976200  1
  C  C451  1  0.057100  0.065800  0.066700  1
  C  C452  1  0.942900  0.934200  0.933300  1
  C  C453  1  0.054800  0.034600  0.133300  1
  C  C454  1  0.945200  0.965400  0.866700  1
  C  C455  1  0.573000  0.108200  0.255500  1
  C  C456  1  0.427000  0.891800  0.744500  1
  C  C457  1  0.649100  0.104600  0.227200  1
  C  C458  1  0.350900  0.895400  0.772800  1
  C  C459  1  0.678700  0.087500  0.171100  1
  C  C460  1  0.321300  0.912500  0.828900  1
  C  C461  1  0.632100  0.072200  0.144400  1
  C  C462  1  0.367900  0.927800  0.855600  1
  C  C463  1  0.558300  0.072400  0.179200  1
  C  C464  1  0.441700  0.927600  0.820800  1
  C  C465  1  0.507200  0.054200  0.160400  1
  C  C466  1  0.492800  0.945800  0.839600  1
  C  C467  1  0.389500  0.028500  0.182400  1
  C  C468  1  0.610500  0.971500  0.817600  1
  C  C469  1  0.394800  0.961200  0.186100  1
  C  C470  1  0.605200  0.038800  0.813900  1
  C  C471  1  0.347000  0.933000  0.171800  1
  C  C472  1  0.653000  0.067000  0.828200  1
  C  C473  1  0.293500  0.975100  0.152900  1
  C  C474  1  0.706500  0.024900  0.847100  1
  C  C475  1  0.291900  0.045500  0.146800  1
  C  C476  1  0.708100  0.954500  0.853200  1
  C  C477  1  0.335500  0.070500  0.162700  1
  C  C478  1  0.664500  0.929500  0.837300  1
  C  C479  1  0.350300  0.866300  0.173600  1
  C  C480  1  0.649700  0.133700  0.826400  1
  C  C481  1  0.303100  0.839400  0.158000  1
  C  C482  1  0.696900  0.160600  0.842000  1
  C  C483  1  0.252400  0.882700  0.137300  1
  C  C484  1  0.747600  0.117300  0.862700  1
  C  C485  1  0.246100  0.947800  0.135100  1
  C  C486  1  0.753900  0.052200  0.864900  1
  C  C487  1  0.242300  0.840900  0.060400  1
  C  C488  1  0.757700  0.159100  0.939600  1
  C  C489  1  0.202800  0.812700  0.036300  1
  C  C490  1  0.797200  0.187300  0.963700  1
  C  C491  1  0.089100  0.781300  0.061300  1
  C  C492  1  0.910900  0.218700  0.938700  1
  C  C493  1  0.115000  0.759800  0.003300  1
  C  C494  1  0.885000  0.240200  0.996700  1
  C  C495  1  0.187900  0.763700  0.964700  1
  C  C496  1  0.812100  0.236300  0.035300  1
  C  C497  1  0.232600  0.789700  0.980900  1
  C  C498  1  0.767400  0.210300  0.019100  1
  C  C499  1  0.570100  0.757000  0.242400  1
  C  C500  1  0.429900  0.243000  0.757600  1
  C  C501  1  0.509500  0.726000  0.252500  1
  C  C502  1  0.490500  0.274000  0.747500  1
  C  C503  1  0.440100  0.748000  0.282600  1
  C  C504  1  0.559900  0.252000  0.717400  1
  C  C505  1  0.434300  0.807900  0.300200  1
  C  C506  1  0.565700  0.192100  0.699800  1
  C  C507  1  0.497100  0.842000  0.287300  1
  C  C508  1  0.502900  0.158000  0.712700  1
  C  C509  1  0.562100  0.812600  0.261700  1
  C  C510  1  0.437900  0.187400  0.738300  1
  C  C511  1  0.490600  0.902100  0.303600  1
  C  C512  1  0.509400  0.097900  0.696400  1
  C  C513  1  0.426400  0.927400  0.329800  1
  C  C514  1  0.573600  0.072600  0.670200  1
  C  C515  1  0.361000  0.894100  0.344900  1
  C  C516  1  0.639000  0.105900  0.655100  1
  C  C517  1  0.367000  0.834700  0.330700  1
  C  C518  1  0.633000  0.165300  0.669300  1
  C  C519  1  0.936000  0.948200  0.532800  1
  C  C520  1  0.064000  0.051800  0.467200  1
  C  C521  1  0.809500  0.590000  0.991800  1
  C  C522  1  0.190500  0.410000  0.008200  1
  C  C523  1  0.713700  0.950100  0.344200  1
  C  C524  1  0.286300  0.049900  0.655800  1
  C  C525  1  0.748800  0.895300  0.113900  1
  C  C526  1  0.251200  0.104700  0.886100  1
  C  C527  1  0.765300  0.889400  0.489900  1
  C  C528  1  0.234700  0.110600  0.510100  1
  C  C529  1  0.769600  0.791700  0.963800  1
  C  C530  1  0.230400  0.208300  0.036200  1
  C  C531  1  0.467200  0.932800  0.323000  1
  C  C532  1  0.532800  0.067200  0.677000  1
  C  C533  1  0.537400  0.924600  0.293000  1
  C  C534  1  0.462600  0.075400  0.707000  1
  C  C535  1  0.560200  0.866800  0.271100  1
  C  C536  1  0.439800  0.133200  0.728900  1
  C  C537  1  0.510300  0.820000  0.283600  1
  C  C538  1  0.489700  0.180000  0.716400  1
  C  C539  1  0.411600  0.889500  0.339900  1
  C  C540  1  0.588400  0.110500  0.660100  1
  C  C541  1  0.437500  0.829900  0.317900  1
  C  C542  1  0.562500  0.170100  0.682100  1
  C  C543  1  0.405800  0.729200  0.309400  1
  C  C544  1  0.594200  0.270800  0.690600  1
  C  C545  1  0.478300  0.718500  0.269800  1
  C  C546  1  0.521700  0.281500  0.730200  1
  C  C547  1  0.384800  0.784200  0.331500  1
  C  C548  1  0.615200  0.215800  0.668500  1
  C  C549  1  0.529900  0.764200  0.260300  1
  C  C550  1  0.470100  0.235800  0.739700  1
  C  C551  1  0.964200  0.582700  0.392300  1
  C  C552  1  0.035800  0.417300  0.607700  1
  N  N553  1  0.619800  0.588900  0.264300  1
  N  N554  1  0.380200  0.411100  0.735700  1
  N  N555  1  0.509300  0.588400  0.376300  1
  N  N556  1  0.490700  0.411600  0.623700  1
  N  N557  1  0.179300  0.696700  0.654100  1
  N  N558  1  0.820700  0.303300  0.345900  1
  N  N559  1  0.064700  0.713100  0.752700  1
  N  N560  1  0.935300  0.286900  0.247300  1
  N  N561  1  0.531700  0.558300  0.205600  1
  N  N562  1  0.468300  0.441700  0.794400  1
  N  N563  1  0.508500  0.664600  0.239300  1
  N  N564  1  0.491500  0.335400  0.760700  1
  N  N565  1  0.430000  0.992300  0.341600  1
  N  N566  1  0.570000  0.007700  0.658400  1
  N  N567  1  0.417100  0.109000  0.356000  1
  N  N568  1  0.582900  0.891000  0.644000  1
  N  N569  1  0.525500  0.470700  0.340700  1
  N  N570  1  0.474500  0.529300  0.659300  1
  N  N571  1  0.414700  0.539400  0.332100  1
  N  N572  1  0.585300  0.460600  0.667900  1
  N  N573  1  0.110800  0.736000  0.215200  1
  N  N574  1  0.889200  0.264000  0.784800  1
  N  N575  1  0.002400  0.804300  0.197600  1
  N  N576  1  0.997600  0.195700  0.802400  1
  N  N577  1  0.971100  0.675300  0.703700  1
  N  N578  1  0.028900  0.324700  0.296300  1
  N  N579  1  0.059500  0.780300  0.622100  1
  N  N580  1  0.940500  0.219700  0.377900  1
  N  N581  1  0.316700  0.083400  0.311300  1
  N  N582  1  0.683300  0.916600  0.688700  1
  N  N583  1  0.080500  0.586400  0.725200  1
  N  N584  1  0.919500  0.413600  0.274800  1
  N  N585  1  0.089900  0.650900  0.600600  1
  N  N586  1  0.910100  0.349100  0.399400  1
  N  N587  1  0.082400  0.866100  0.235600  1
  N  N588  1  0.917600  0.133900  0.764400  1
  N  N589  1  0.527900  0.091600  0.234400  1
  N  N590  1  0.472100  0.908400  0.765600  1
  N  N591  1  0.440100  0.054100  0.199100  1
  N  N592  1  0.559900  0.945900  0.800900  1
  N  N593  1  0.207800  0.853700  0.116600  1
  N  N594  1  0.792200  0.146300  0.883400  1
  N  N595  1  0.130100  0.806300  0.078500  1
  N  N596  1  0.869900  0.193700  0.921500  1
  N  N597  1  0.409000  0.178200  0.220200  1
  N  N598  1  0.591000  0.821800  0.779800  1
  N  N599  1  0.085300  0.928000  0.114000  1
  N  N600  1  0.914700  0.072000  0.886000  1
  N  N601  1  0.939000  0.924800  0.482100  1
  N  N602  1  0.061000  0.075200  0.517900  1
  N  N603  1  0.789400  0.624000  0.932600  1
  N  N604  1  0.210600  0.376000  0.067400  1
  N  N605  1  0.653000  0.942600  0.328200  1
  N  N606  1  0.347000  0.057400  0.671800  1
  N  N607  1  0.749800  0.941800  0.048300  1
  N  N608  1  0.250200  0.058200  0.951700  1
  N  N609  1  0.778700  0.827200  0.537300  1
  N  N610  1  0.221300  0.172800  0.462700  1
  N  N611  1  0.700900  0.748700  0.036300  1
  N  N612  1  0.299100  0.251300  0.963700  1
  N  N613  1  0.983300  0.545400  0.451000  1
  N  N614  1  0.016700  0.454600  0.549000  1
  Cl  Cl615  1  0.645900  0.751200  0.403300  1
  Cl  Cl616  1  0.354100  0.248800  0.596700  1
  Cl  Cl617  1  0.641830  0.136240  0.389510  1
  Cl  Cl618  1  0.358170  0.863760  0.610490  1
  Cl  Cl619  1  0.763510  0.430390  0.163900  1
  Cl  Cl620  1  0.236490  0.569610  0.836100  1
  Cl  Cl621  1  0.091600  0.111600  0.242900  1
  Cl  Cl622  1  0.908400  0.888400  0.757100  1
  Cl  Cl623  1  0.453500  0.798500  0.009500  1
  Cl  Cl624  1  0.546500  0.201500  0.990500  1
  Cl  Cl625  1  0.364440  0.364660  0.297020  1
  Cl  Cl626  1  0.635560  0.635340  0.702980  1
  Cl  Cl627  1  0.907300  0.735100  0.060140  1
  Cl  Cl628  1  0.092700  0.264900  0.939860  1
  Cl  Cl629  1  0.862100  0.050500  0.135000  1
  Cl  Cl630  1  0.137900  0.949500  0.865000  1
  Cl  Cl631  1  0.778200  0.597900  0.450000  1
  Cl  Cl632  1  0.221800  0.402100  0.550000  1
  Cl  Cl633  1  0.110100  0.112700  0.271600  1
  Cl  Cl634  1  0.889900  0.887300  0.728400  1
  O  O635  1  0.574100  0.758100  0.420500  1
  O  O636  1  0.425900  0.241900  0.579500  1
  O  O637  1  0.667800  0.770700  0.443200  1
  O  O638  1  0.332200  0.229300  0.556800  1
  O  O639  1  0.686300  0.773900  0.333500  1
  O  O640  1  0.313700  0.226100  0.666500  1
  O  O641  1  0.657000  0.676400  0.427800  1
  O  O642  1  0.343000  0.323600  0.572200  1
  O  O643  1  0.632400  0.118800  0.458100  1
  O  O644  1  0.367600  0.881200  0.541900  1
  O  O645  1  0.714300  0.147100  0.343500  1
  O  O646  1  0.285700  0.852900  0.656500  1
  O  O647  1  0.593300  0.181300  0.366000  1
  O  O648  1  0.406700  0.818700  0.634000  1
  O  O649  1  0.616800  0.074600  0.391800  1
  O  O650  1  0.383200  0.925400  0.608200  1
  O  O651  1  0.701900  0.460700  0.153800  1
  O  O652  1  0.298100  0.539300  0.846200  1
  O  O653  1  0.825700  0.474700  0.117500  1
  O  O654  1  0.174300  0.525300  0.882500  1
  O  O655  1  0.773700  0.365900  0.153500  1
  O  O656  1  0.226300  0.634100  0.846500  1
  O  O657  1  0.755900  0.429300  0.233200  1
  O  O658  1  0.244100  0.570700  0.766800  1
  O  O659  1  0.013200  0.116700  0.278300  1
  O  O660  1  0.986800  0.883300  0.721700  1
  O  O661  1  0.105600  0.134800  0.168700  1
  O  O662  1  0.894400  0.865200  0.831300  1
  O  O663  1  0.098000  0.036700  0.266300  1
  O  O664  1  0.902000  0.963300  0.733700  1
  O  O665  1  0.154100  0.153100  0.229600  1
  O  O666  1  0.845900  0.846900  0.770400  1
  O  O667  1  0.440100  0.764500  0.080400  1
  O  O668  1  0.559900  0.235500  0.919600  1
  O  O669  1  0.527500  0.800600  0.966900  1
  O  O670  1  0.472500  0.199400  0.033100  1
  O  O671  1  0.429900  0.872600  0.001100  1
  O  O672  1  0.570100  0.127400  0.998900  1
  O  O673  1  0.401500  0.772100  0.992200  1
  O  O674  1  0.598500  0.227900  0.007800  1
  O  O675  1  0.373200  0.437100  0.269500  1
  O  O676  1  0.626800  0.562900  0.730500  1
  O  O677  1  0.435500  0.342500  0.282100  1
  O  O678  1  0.564500  0.657500  0.717900  1
  O  O679  1  0.326300  0.346400  0.371500  1
  O  O680  1  0.673700  0.653600  0.628500  1
  O  O681  1  0.334600  0.354300  0.254800  1
  O  O682  1  0.665400  0.645700  0.745200  1
  O  O683  1  0.956500  0.770800  0.995700  1
  O  O684  1  0.043500  0.229200  0.004300  1
  O  O685  1  0.899600  0.671000  0.054900  1
  O  O686  1  0.100400  0.329000  0.945100  1
  O  O687  1  0.918600  0.716400  0.119300  1
  O  O688  1  0.081400  0.283600  0.880700  1
  O  O689  1  0.831800  0.754200  0.084100  1
  O  O690  1  0.168200  0.245800  0.915900  1
  O  O691  1  0.832900  0.092900  0.178800  1
  O  O692  1  0.167100  0.907100  0.821200  1
  O  O693  1  0.918800  0.107100  0.082100  1
  O  O694  1  0.081200  0.892900  0.917900  1
  O  O695  1  0.822500  0.045800  0.093000  1
  O  O696  1  0.177500  0.954200  0.907000  1
  O  O697  1  0.836000  0.981200  0.176000  1
  O  O698  1  0.164000  0.018800  0.824000  1
  O  O699  1  0.964500  0.982800  0.419300  1
  O  O700  1  0.035500  0.017200  0.580700  1
  O  O701  1  0.940100  0.867300  0.494300  1
  O  O702  1  0.059900  0.132700  0.505700  1
  O  O703  1  0.819600  0.677700  0.885000  1
  O  O704  1  0.180400  0.322300  0.115000  1
  O  O705  1  0.734200  0.598400  0.935300  1
  O  O706  1  0.265800  0.401600  0.064700  1
  O  O707  1  0.596900  0.946100  0.367600  1
  O  O708  1  0.403100  0.053900  0.632400  1
  O  O709  1  0.665300  0.937100  0.267800  1
  O  O710  1  0.334700  0.062900  0.732200  1
  O  O711  1  0.746200  0.003800  0.031300  1
  O  O712  1  0.253800  0.996200  0.968700  1
  O  O713  1  0.769900  0.916800  0.998600  1
  O  O714  1  0.230100  0.083200  0.001400  1
  O  O715  1  0.762600  0.817000  0.599000  1
  O  O716  1  0.237400  0.183000  0.401000  1
  O  O717  1  0.797100  0.778300  0.527800  1
  O  O718  1  0.202900  0.221700  0.472200  1
  O  O719  1  0.703600  0.693600  0.046100  1
  O  O720  1  0.296400  0.306400  0.953900  1
  O  O721  1  0.668000  0.764000  0.077900  1
  O  O722  1  0.332000  0.236000  0.922100  1
  O  O723  1  0.803900  0.588700  0.389900  1
  O  O724  1  0.196100  0.411300  0.610100  1
  O  O725  1  0.756300  0.544600  0.509400  1
  O  O726  1  0.243700  0.455400  0.490600  1
  O  O727  1  0.802800  0.652500  0.458000  1
  O  O728  1  0.197200  0.347500  0.542000  1
  O  O729  1  0.707000  0.614000  0.458100  1
  O  O730  1  0.293000  0.386000  0.541900  1
  O  O731  1  0.630600  0.207900  0.372700  1
  O  O732  1  0.369400  0.792100  0.627300  1
  O  O733  1  0.596600  0.101600  0.377500  1
  O  O734  1  0.403400  0.898400  0.622500  1
  O  O735  1  0.743200  0.400500  0.237000  1
  O  O736  1  0.256800  0.599500  0.763000  1
  O  O737  1  0.137000  0.144000  0.195300  1
  O  O738  1  0.863000  0.856000  0.804700  1
  O  O739  1  0.035900  0.127600  0.280100  1
  O  O740  1  0.964100  0.872400  0.719900  1
  O  O741  1  0.111600  0.100400  0.338400  1
  O  O742  1  0.888400  0.899600  0.661600  1
  O  O743  1  0.132500  0.046700  0.252400  1
  O  O744  1  0.867500  0.953300  0.747600  1
  O  O745  1  0.411600  0.826500  0.965700  1
  O  O746  1  0.588400  0.173500  0.034300  1
  O  O747  1  0.430000  0.729300  0.013000  1
  O  O748  1  0.570000  0.270700  0.987000  1
  O  O749  1  0.330500  0.315000  0.288600  1
  O  O750  1  0.669500  0.685000  0.711400  1
  O  O751  1  0.918200  0.678800  0.112100  1
  O  O752  1  0.081800  0.321200  0.887900  1
  O  O753  1  0.905000  0.798200  0.076000  1
  O  O754  1  0.095000  0.201800  0.924000  1
  O  O755  1  0.844400  0.730500  0.049400  1
  O  O756  1  0.155600  0.269500  0.950600  1
  O  O757  1  0.830600  0.999700  0.129600  1
  O  O758  1  0.169400  0.000300  0.870400  1
  O  O759  1  0.895800  0.998200  0.174300  1
  O  O760  1  0.104200  0.001800  0.825700  1
  O  O761  1  0.045400  0.560200  0.446800  1
  O  O762  1  0.954600  0.439800  0.553200  1
  O  O763  1  0.942200  0.492300  0.496200  1
  O  O764  1  0.057800  0.507700  0.503800  1
