# generated using pymatgen
data_Fe4H117C175S10N27O29F27
_symmetry_space_group_name_H-M   'P 1'
_cell_length_a   18.80000000
_cell_length_b   18.90300000
_cell_length_c   27.05100000
_cell_angle_alpha   101.66200000
_cell_angle_beta   94.88500000
_cell_angle_gamma   94.90500000
_symmetry_Int_Tables_number   1
_chemical_formula_structural   Fe4H117C175S10N27O29F27
_chemical_formula_sum   'Fe8 H234 C350 S20 N54 O58 F54'
_cell_volume   9328.52604334
_cell_formula_units_Z   2
loop_
 _symmetry_equiv_pos_site_id
 _symmetry_equiv_pos_as_xyz
  1  'x, y, z'
loop_
 _atom_site_type_symbol
 _atom_site_label
 _atom_site_symmetry_multiplicity
 _atom_site_fract_x
 _atom_site_fract_y
 _atom_site_fract_z
 _atom_site_occupancy
  Fe  Fe1  1  0.302110  0.597330  0.437350  1
  Fe  Fe2  1  0.697890  0.402670  0.562650  1
  Fe  Fe3  1  0.769160  0.859830  0.807600  1
  Fe  Fe4  1  0.230840  0.140170  0.192400  1
  Fe  Fe5  1  0.209730  0.167450  0.711200  1
  Fe  Fe6  1  0.790270  0.832550  0.288800  1
  Fe  Fe7  1  0.158930  0.636620  0.899290  1
  Fe  Fe8  1  0.841070  0.363380  0.100710  1
  H  H9  1  0.164100  0.518200  0.372100  1
  H  H10  1  0.835900  0.481800  0.627900  1
  H  H11  1  0.097300  0.405600  0.364500  1
  H  H12  1  0.902700  0.594400  0.635500  1
  H  H13  1  0.130700  0.328000  0.416800  1
  H  H14  1  0.869300  0.672000  0.583200  1
  H  H15  1  0.232000  0.365000  0.475700  1
  H  H16  1  0.768000  0.635000  0.524300  1
  H  H17  1  0.337700  0.462500  0.514700  1
  H  H18  1  0.662300  0.537500  0.485300  1
  H  H19  1  0.486400  0.573300  0.466700  1
  H  H20  1  0.513600  0.426700  0.533300  1
  H  H21  1  0.585800  0.625600  0.520500  1
  H  H22  1  0.414200  0.374400  0.479500  1
  H  H23  1  0.364000  0.585800  0.583300  1
  H  H24  1  0.636000  0.414200  0.416700  1
  H  H25  1  0.639200  0.689000  0.607100  1
  H  H26  1  0.360800  0.311000  0.392900  1
  H  H27  1  0.420400  0.639700  0.671400  1
  H  H28  1  0.579600  0.360300  0.328600  1
  H  H29  1  0.696400  0.741600  0.695700  1
  H  H30  1  0.303600  0.258400  0.304300  1
  H  H31  1  0.576800  0.735100  0.812700  1
  H  H32  1  0.423200  0.264900  0.187300  1
  H  H33  1  0.475800  0.690300  0.758500  1
  H  H34  1  0.524200  0.309700  0.241500  1
  H  H35  1  0.698200  0.677600  0.819900  1
  H  H36  1  0.301800  0.322400  0.180100  1
  H  H37  1  0.779800  0.664700  0.898300  1
  H  H38  1  0.220200  0.335300  0.101700  1
  H  H39  1  0.868800  0.722800  0.964900  1
  H  H40  1  0.131200  0.277200  0.035100  1
  H  H41  1  0.925900  0.834800  0.961200  1
  H  H42  1  0.074100  0.165200  0.038800  1
  H  H43  1  0.892400  0.891400  0.896800  1
  H  H44  1  0.107600  0.108600  0.103200  1
  H  H45  1  0.303300  0.460000  0.351800  1
  H  H46  1  0.696700  0.540000  0.648200  1
  H  H47  1  0.376500  0.422800  0.289700  1
  H  H48  1  0.623500  0.577200  0.710300  1
  H  H49  1  0.480100  0.496800  0.283400  1
  H  H50  1  0.519900  0.503200  0.716600  1
  H  H51  1  0.505000  0.609700  0.339900  1
  H  H52  1  0.495000  0.390300  0.660100  1
  H  H53  1  0.464600  0.703200  0.412700  1
  H  H54  1  0.535400  0.296800  0.587300  1
  H  H55  1  0.302900  0.788200  0.443300  1
  H  H56  1  0.697100  0.211800  0.556700  1
  H  H57  1  0.481700  0.834500  0.581500  1
  H  H58  1  0.518300  0.165500  0.418500  1
  H  H59  1  0.472600  0.728500  0.522000  1
  H  H60  1  0.527400  0.271500  0.478000  1
  H  H61  1  0.254800  0.904600  0.476600  1
  H  H62  1  0.745200  0.095400  0.523400  1
  H  H63  1  0.426900  0.945600  0.618100  1
  H  H64  1  0.573100  0.054400  0.381900  1
  H  H65  1  0.203600  0.017700  0.513000  1
  H  H66  1  0.796400  0.982300  0.487000  1
  H  H67  1  0.201700  0.115300  0.578300  1
  H  H68  1  0.798300  0.884700  0.421700  1
  H  H69  1  0.372000  0.055500  0.656300  1
  H  H70  1  0.628000  0.944500  0.343700  1
  H  H71  1  0.378900  0.199500  0.655700  1
  H  H72  1  0.621100  0.800500  0.344300  1
  H  H73  1  0.434300  0.315900  0.719200  1
  H  H74  1  0.565700  0.684100  0.280800  1
  H  H75  1  0.422900  0.404800  0.791500  1
  H  H76  1  0.577100  0.595200  0.208500  1
  H  H77  1  0.316900  0.397300  0.831300  1
  H  H78  1  0.683100  0.602700  0.168700  1
  H  H79  1  0.229300  0.302500  0.801000  1
  H  H80  1  0.770700  0.697500  0.199000  1
  H  H81  1  0.274300  0.609400  0.325000  1
  H  H82  1  0.725700  0.390600  0.675000  1
  H  H83  1  0.197900  0.666800  0.279900  1
  H  H84  1  0.802100  0.333200  0.720100  1
  H  H85  1  0.117300  0.739100  0.321400  1
  H  H86  1  0.882700  0.260900  0.678600  1
  H  H87  1  0.113000  0.746700  0.408800  1
  H  H88  1  0.887000  0.253300  0.591200  1
  H  H89  1  0.161800  0.705700  0.489800  1
  H  H90  1  0.838200  0.294300  0.510200  1
  H  H91  1  0.197200  0.559600  0.543900  1
  H  H92  1  0.802800  0.440400  0.456100  1
  H  H93  1  0.319300  0.774500  0.643600  1
  H  H94  1  0.680700  0.225500  0.356400  1
  H  H95  1  0.302500  0.758300  0.556600  1
  H  H96  1  0.697500  0.241700  0.443400  1
  H  H97  1  0.173600  0.516200  0.622600  1
  H  H98  1  0.826400  0.483800  0.377400  1
  H  H99  1  0.303300  0.727100  0.721900  1
  H  H100  1  0.696700  0.272900  0.278100  1
  H  H101  1  0.152200  0.472400  0.700800  1
  H  H102  1  0.847800  0.527600  0.299200  1
  H  H103  1  0.163900  0.490000  0.787500  1
  H  H104  1  0.836100  0.510000  0.212500  1
  H  H105  1  0.285100  0.680600  0.799200  1
  H  H106  1  0.714900  0.319400  0.200800  1
  H  H107  1  0.318600  0.552200  0.857100  1
  H  H108  1  0.681400  0.447800  0.142900  1
  H  H109  1  0.379300  0.539000  0.944600  1
  H  H110  1  0.620700  0.461000  0.055400  1
  H  H111  1  0.370800  0.552100  0.033300  1
  H  H112  1  0.629200  0.447900  0.966700  1
  H  H113  1  0.273300  0.603400  0.066700  1
  H  H114  1  0.726700  0.396600  0.933300  1
  H  H115  1  0.184300  0.636300  0.013900  1
  H  H116  1  0.815700  0.363700  0.986100  1
  H  H117  1  0.882200  0.750500  0.789100  1
  H  H118  1  0.117800  0.249500  0.210900  1
  H  H119  1  0.957600  0.717500  0.727400  1
  H  H120  1  0.042400  0.282500  0.272600  1
  H  H121  1  0.959800  0.776500  0.660000  1
  H  H122  1  0.040200  0.223500  0.340000  1
  H  H123  1  0.872400  0.855800  0.649100  1
  H  H124  1  0.127600  0.144200  0.350900  1
  H  H125  1  0.762600  0.918600  0.686100  1
  H  H126  1  0.237400  0.081400  0.313900  1
  H  H127  1  0.740500  0.041300  0.766000  1
  H  H128  1  0.259500  0.958700  0.234000  1
  H  H129  1  0.652600  0.117600  0.769300  1
  H  H130  1  0.347400  0.882400  0.230700  1
  H  H131  1  0.594900  0.865300  0.732800  1
  H  H132  1  0.405100  0.134700  0.267200  1
  H  H133  1  0.522600  0.136000  0.768200  1
  H  H134  1  0.477400  0.864000  0.231800  1
  H  H135  1  0.465300  0.883500  0.727700  1
  H  H136  1  0.534700  0.116500  0.272300  1
  H  H137  1  0.393500  0.153000  0.768700  1
  H  H138  1  0.606500  0.847000  0.231300  1
  H  H139  1  0.247000  0.976600  0.747300  1
  H  H140  1  0.753000  0.023400  0.252700  1
  H  H141  1  0.335400  0.899400  0.731700  1
  H  H142  1  0.664600  0.100600  0.268300  1
  H  H143  1  0.242000  0.100700  0.829600  1
  H  H144  1  0.758000  0.899300  0.170400  1
  H  H145  1  0.134300  0.152300  0.874400  1
  H  H146  1  0.865700  0.847700  0.125600  1
  H  H147  1  0.032000  0.212800  0.872000  1
  H  H148  1  0.968000  0.787200  0.128000  1
  H  H149  1  0.000600  0.256300  0.798600  1
  H  H150  1  0.999400  0.743700  0.201400  1
  H  H151  1  0.072300  0.240600  0.733300  1
  H  H152  1  0.927700  0.759400  0.266700  1
  H  H153  1  0.208400  0.312700  0.676300  1
  H  H154  1  0.791600  0.687300  0.323700  1
  H  H155  1  0.137300  0.356000  0.616300  1
  H  H156  1  0.862700  0.644000  0.383700  1
  H  H157  1  0.036900  0.283800  0.570300  1
  H  H158  1  0.963100  0.716200  0.429700  1
  H  H159  1  0.012000  0.167200  0.583500  1
  H  H160  1  0.988000  0.832800  0.416500  1
  H  H161  1  0.051600  0.065500  0.629200  1
  H  H162  1  0.948400  0.934500  0.370800  1
  H  H163  1  0.081900  0.038200  0.747300  1
  H  H164  1  0.918100  0.961800  0.252700  1
  H  H165  1  0.180100  0.850600  0.642900  1
  H  H166  1  0.819900  0.149400  0.357100  1
  H  H167  1  0.183800  0.965200  0.624700  1
  H  H168  1  0.816200  0.034800  0.375300  1
  H  H169  1  0.053300  0.956900  0.805200  1
  H  H170  1  0.946700  0.043100  0.194800  1
  H  H171  1  0.151800  0.769400  0.701300  1
  H  H172  1  0.848200  0.230600  0.298700  1
  H  H173  1  0.024600  0.877200  0.864100  1
  H  H174  1  0.975400  0.122800  0.135900  1
  H  H175  1  0.029600  0.767700  0.886300  1
  H  H176  1  0.970400  0.232300  0.113700  1
  H  H177  1  0.127200  0.688500  0.762500  1
  H  H178  1  0.872800  0.311500  0.237500  1
  H  H179  1  0.001800  0.606000  0.804100  1
  H  H180  1  0.998200  0.394000  0.195900  1
  H  H181  1  0.953700  0.475800  0.809600  1
  H  H182  1  0.046300  0.524200  0.190400  1
  H  H183  1  0.969200  0.374300  0.846900  1
  H  H184  1  0.030800  0.625700  0.153100  1
  H  H185  1  0.073600  0.378100  0.900900  1
  H  H186  1  0.926400  0.621900  0.099100  1
  H  H187  1  0.151200  0.482500  0.925300  1
  H  H188  1  0.848800  0.517500  0.074700  1
  H  H189  1  0.914700  0.940800  0.792000  1
  H  H190  1  0.085300  0.059200  0.208000  1
  H  H191  1  0.969300  0.058100  0.819200  1
  H  H192  1  0.030700  0.941900  0.180800  1
  H  H193  1  0.919100  0.142100  0.875900  1
  H  H194  1  0.080900  0.857900  0.124100  1
  H  H195  1  0.809500  0.107400  0.904800  1
  H  H196  1  0.190500  0.892600  0.095200  1
  H  H197  1  0.707500  0.005500  0.900900  1
  H  H198  1  0.292500  0.994500  0.099100  1
  H  H199  1  0.699400  0.824900  0.921200  1
  H  H200  1  0.300600  0.175100  0.078800  1
  H  H201  1  0.599600  0.768900  0.946900  1
  H  H202  1  0.400400  0.231100  0.053100  1
  H  H203  1  0.575300  0.929800  0.836600  1
  H  H204  1  0.424700  0.070200  0.163400  1
  H  H205  1  0.466500  0.742600  0.939100  1
  H  H206  1  0.533500  0.257400  0.060900  1
  H  H207  1  0.442300  0.910700  0.835700  1
  H  H208  1  0.557700  0.089300  0.164300  1
  H  H209  1  0.335400  0.719600  0.935800  1
  H  H210  1  0.664600  0.280400  0.064200  1
  H  H211  1  0.209700  0.831600  0.858800  1
  H  H212  1  0.790300  0.168400  0.141200  1
  H  H213  1  0.311200  0.890000  0.833300  1
  H  H214  1  0.688800  0.110000  0.166700  1
  H  H215  1  0.186800  0.831000  0.959300  1
  H  H216  1  0.813200  0.169000  0.040700  1
  H  H217  1  0.077800  0.839200  0.013100  1
  H  H218  1  0.922200  0.160800  0.986900  1
  H  H219  1  0.980900  0.776100  0.040100  1
  H  H220  1  0.019100  0.223900  0.959900  1
  H  H221  1  0.960000  0.650700  0.012300  1
  H  H222  1  0.040000  0.349300  0.987700  1
  H  H223  1  0.030500  0.592300  0.955100  1
  H  H224  1  0.969500  0.407700  0.044900  1
  H  H225  1  0.934100  0.454400  0.669200  1
  H  H226  1  0.065900  0.545600  0.330800  1
  H  H227  1  0.002600  0.440800  0.638700  1
  H  H228  1  0.997400  0.559200  0.361300  1
  H  H229  1  0.008400  0.504000  0.688600  1
  H  H230  1  0.991600  0.496000  0.311400  1
  H  H231  1  0.798800  0.863900  0.514800  1
  H  H232  1  0.201200  0.136100  0.485200  1
  H  H233  1  0.801700  0.778800  0.494000  1
  H  H234  1  0.198300  0.221200  0.506000  1
  H  H235  1  0.858800  0.822600  0.539400  1
  H  H236  1  0.141200  0.177400  0.460600  1
  H  H237  1  0.804700  0.544200  0.944400  1
  H  H238  1  0.195300  0.455800  0.055600  1
  H  H239  1  0.830400  0.489500  0.897700  1
  H  H240  1  0.169600  0.510500  0.102300  1
  H  H241  1  0.866900  0.571600  0.913700  1
  H  H242  1  0.133100  0.428400  0.086300  1
  C  C243  1  0.178400  0.486700  0.393500  1
  C  C244  1  0.821600  0.513300  0.606500  1
  C  C245  1  0.138100  0.419400  0.388900  1
  C  C246  1  0.861900  0.580600  0.611100  1
  C  C247  1  0.157500  0.373800  0.419300  1
  C  C248  1  0.842500  0.626200  0.580700  1
  C  C249  1  0.217300  0.396000  0.454000  1
  C  C250  1  0.782700  0.604000  0.546000  1
  C  C251  1  0.255400  0.461000  0.457500  1
  C  C252  1  0.744600  0.539000  0.542500  1
  C  C253  1  0.319700  0.488200  0.490400  1
  C  C254  1  0.680300  0.511800  0.509600  1
  C  C255  1  0.415500  0.577600  0.521000  1
  C  C256  1  0.584500  0.422400  0.479000  1
  C  C257  1  0.482600  0.588100  0.502000  1
  C  C258  1  0.517400  0.411900  0.498000  1
  C  C259  1  0.541100  0.619000  0.533700  1
  C  C260  1  0.458900  0.381000  0.466300  1
  C  C261  1  0.536900  0.641800  0.586800  1
  C  C262  1  0.463100  0.358200  0.413200  1
  C  C263  1  0.469300  0.628700  0.605900  1
  C  C264  1  0.530700  0.371300  0.394100  1
  C  C265  1  0.409000  0.595500  0.571100  1
  C  C266  1  0.591000  0.404500  0.428900  1
  C  C267  1  0.595200  0.677600  0.620000  1
  C  C268  1  0.404800  0.322400  0.380000  1
  C  C269  1  0.590500  0.697400  0.672500  1
  C  C270  1  0.409500  0.302600  0.327500  1
  C  C271  1  0.523200  0.682300  0.690900  1
  C  C272  1  0.476800  0.317700  0.309100  1
  C  C273  1  0.464700  0.649100  0.658300  1
  C  C274  1  0.535300  0.350900  0.341700  1
  C  C275  1  0.651900  0.729200  0.707600  1
  C  C276  1  0.348100  0.270800  0.292400  1
  C  C277  1  0.645300  0.741100  0.757900  1
  C  C278  1  0.354700  0.258900  0.242100  1
  C  C279  1  0.579300  0.726000  0.777100  1
  C  C280  1  0.420700  0.274000  0.222900  1
  C  C281  1  0.520200  0.698800  0.745200  1
  C  C282  1  0.479800  0.301200  0.254800  1
  C  C283  1  0.724000  0.724100  0.823700  1
  C  C284  1  0.276000  0.275900  0.176300  1
  C  C285  1  0.782400  0.749100  0.862000  1
  C  C286  1  0.217600  0.250900  0.138000  1
  C  C287  1  0.802100  0.712000  0.899100  1
  C  C288  1  0.197900  0.288000  0.100900  1
  C  C289  1  0.855600  0.745600  0.937800  1
  C  C290  1  0.144400  0.254400  0.062200  1
  C  C291  1  0.888400  0.811900  0.935800  1
  C  C292  1  0.111600  0.188100  0.064200  1
  C  C293  1  0.868000  0.845600  0.897700  1
  C  C294  1  0.132000  0.154400  0.102300  1
  C  C295  1  0.344900  0.491000  0.349600  1
  C  C296  1  0.655100  0.509000  0.650400  1
  C  C297  1  0.388400  0.468400  0.312500  1
  C  C298  1  0.611600  0.531600  0.687500  1
  C  C299  1  0.449100  0.511900  0.308500  1
  C  C300  1  0.550900  0.488100  0.691500  1
  C  C301  1  0.463800  0.578000  0.341900  1
  C  C302  1  0.536200  0.422000  0.658100  1
  C  C303  1  0.418300  0.597400  0.377900  1
  C  C304  1  0.581700  0.402600  0.622100  1
  C  C305  1  0.425900  0.667500  0.412700  1
  C  C306  1  0.574100  0.332500  0.587300  1
  C  C307  1  0.384800  0.748200  0.477900  1
  C  C308  1  0.615200  0.251800  0.522100  1
  C  C309  1  0.337700  0.797700  0.472100  1
  C  C310  1  0.662300  0.202300  0.527900  1
  C  C311  1  0.340200  0.862400  0.508400  1
  C  C312  1  0.659800  0.137600  0.491600  1
  C  C313  1  0.391300  0.876100  0.551900  1
  C  C314  1  0.608700  0.123900  0.448100  1
  C  C315  1  0.443900  0.824500  0.554700  1
  C  C316  1  0.556100  0.175500  0.445300  1
  C  C317  1  0.439100  0.762800  0.519200  1
  C  C318  1  0.560900  0.237200  0.480800  1
  C  C319  1  0.289300  0.912800  0.505500  1
  C  C320  1  0.710700  0.087200  0.494500  1
  C  C321  1  0.288300  0.973600  0.543700  1
  C  C322  1  0.711700  0.026400  0.456300  1
  C  C323  1  0.340200  0.986100  0.587400  1
  C  C324  1  0.659800  0.013900  0.412600  1
  C  C325  1  0.391400  0.936800  0.589800  1
  C  C326  1  0.608600  0.063200  0.410200  1
  C  C327  1  0.237700  0.024400  0.542000  1
  C  C328  1  0.762300  0.975600  0.458000  1
  C  C329  1  0.236400  0.082100  0.580400  1
  C  C330  1  0.763600  0.917900  0.419600  1
  C  C331  1  0.287800  0.092900  0.624300  1
  C  C332  1  0.712200  0.907100  0.375700  1
  C  C333  1  0.337800  0.047000  0.627200  1
  C  C334  1  0.662200  0.953000  0.372800  1
  C  C335  1  0.339600  0.201700  0.675700  1
  C  C336  1  0.660400  0.798300  0.324300  1
  C  C337  1  0.337900  0.260300  0.719300  1
  C  C338  1  0.662100  0.739700  0.280700  1
  C  C339  1  0.392400  0.314300  0.736300  1
  C  C340  1  0.607600  0.685700  0.263700  1
  C  C341  1  0.385800  0.366500  0.778700  1
  C  C342  1  0.614200  0.633500  0.221300  1
  C  C343  1  0.323300  0.361600  0.802300  1
  C  C344  1  0.676700  0.638400  0.197700  1
  C  C345  1  0.271100  0.305700  0.783800  1
  C  C346  1  0.728900  0.694300  0.216200  1
  C  C347  1  0.240900  0.637500  0.342400  1
  C  C348  1  0.759100  0.362500  0.657600  1
  C  C349  1  0.196100  0.671800  0.315400  1
  C  C350  1  0.803900  0.328200  0.684600  1
  C  C351  1  0.148100  0.713800  0.339600  1
  C  C352  1  0.851900  0.286200  0.660400  1
  C  C353  1  0.145800  0.718300  0.391000  1
  C  C354  1  0.854200  0.281700  0.609000  1
  C  C355  1  0.191200  0.681300  0.415700  1
  C  C356  1  0.808800  0.318700  0.584300  1
  C  C357  1  0.194500  0.681600  0.469100  1
  C  C358  1  0.805500  0.318400  0.530900  1
  C  C359  1  0.249600  0.656200  0.543200  1
  C  C360  1  0.750400  0.343800  0.456800  1
  C  C361  1  0.221700  0.602800  0.564700  1
  C  C362  1  0.778300  0.397200  0.435300  1
  C  C363  1  0.229100  0.611000  0.617700  1
  C  C364  1  0.770900  0.389000  0.382300  1
  C  C365  1  0.268400  0.676600  0.649000  1
  C  C366  1  0.731600  0.323400  0.351000  1
  C  C367  1  0.294500  0.730500  0.624100  1
  C  C368  1  0.705500  0.269500  0.375900  1
  C  C369  1  0.285000  0.720800  0.572600  1
  C  C370  1  0.715000  0.279200  0.427400  1
  C  C371  1  0.200100  0.559100  0.642500  1
  C  C372  1  0.799900  0.440900  0.357500  1
  C  C373  1  0.208300  0.567400  0.694600  1
  C  C374  1  0.791700  0.432600  0.305400  1
  C  C375  1  0.249100  0.630700  0.725000  1
  C  C376  1  0.750900  0.369300  0.275000  1
  C  C377  1  0.277300  0.684200  0.701600  1
  C  C378  1  0.722700  0.315800  0.298400  1
  C  C379  1  0.178300  0.515700  0.720300  1
  C  C380  1  0.821700  0.484300  0.279700  1
  C  C381  1  0.185300  0.525500  0.771400  1
  C  C382  1  0.814700  0.474500  0.228600  1
  C  C383  1  0.224400  0.588200  0.800200  1
  C  C384  1  0.775600  0.411800  0.199800  1
  C  C385  1  0.257000  0.639300  0.778600  1
  C  C386  1  0.743000  0.360700  0.221400  1
  C  C387  1  0.282700  0.573500  0.876100  1
  C  C388  1  0.717300  0.426500  0.123900  1
  C  C389  1  0.285100  0.579700  0.930100  1
  C  C390  1  0.714900  0.420300  0.069900  1
  C  C391  1  0.339400  0.558700  0.959400  1
  C  C392  1  0.660600  0.441300  0.040600  1
  C  C393  1  0.334700  0.566900  0.012000  1
  C  C394  1  0.665300  0.433100  0.988000  1
  C  C395  1  0.277300  0.596500  0.031300  1
  C  C396  1  0.722700  0.403500  0.968700  1
  C  C397  1  0.224600  0.616600  0.999700  1
  C  C398  1  0.775400  0.383400  0.000300  1
  C  C399  1  0.880100  0.772500  0.760500  1
  C  C400  1  0.119900  0.227500  0.239500  1
  C  C401  1  0.925900  0.753400  0.724300  1
  C  C402  1  0.074100  0.246600  0.275700  1
  C  C403  1  0.925700  0.786200  0.683800  1
  C  C404  1  0.074300  0.213800  0.316200  1
  C  C405  1  0.875100  0.834000  0.677800  1
  C  C406  1  0.124900  0.166000  0.322200  1
  C  C407  1  0.828700  0.848900  0.714500  1
  C  C408  1  0.171300  0.151100  0.285500  1
  C  C409  1  0.771000  0.894100  0.713100  1
  C  C410  1  0.229000  0.105900  0.286900  1
  C  C411  1  0.673800  0.945800  0.749700  1
  C  C412  1  0.326200  0.054200  0.250300  1
  C  C413  1  0.691600  0.021800  0.760300  1
  C  C414  1  0.308400  0.978200  0.239700  1
  C  C415  1  0.639700  0.066600  0.762400  1
  C  C416  1  0.360300  0.933400  0.237600  1
  C  C417  1  0.565400  0.038900  0.754400  1
  C  C418  1  0.434600  0.961100  0.245600  1
  C  C419  1  0.547800  0.962500  0.743000  1
  C  C420  1  0.452200  0.037500  0.257000  1
  C  C421  1  0.605600  0.916600  0.740700  1
  C  C422  1  0.394400  0.083400  0.259300  1
  C  C423  1  0.510700  0.084800  0.760200  1
  C  C424  1  0.489300  0.915200  0.239800  1
  C  C425  1  0.438100  0.055900  0.754100  1
  C  C426  1  0.561900  0.944100  0.245900  1
  C  C427  1  0.421200  0.978700  0.742200  1
  C  C428  1  0.578800  0.021300  0.257800  1
  C  C429  1  0.476800  0.934700  0.736400  1
  C  C430  1  0.523200  0.065300  0.263600  1
  C  C431  1  0.382400  0.101800  0.761000  1
  C  C432  1  0.617600  0.898200  0.239000  1
  C  C433  1  0.312900  0.072200  0.756500  1
  C  C434  1  0.687100  0.927800  0.243500  1
  C  C435  1  0.295400  0.996100  0.747600  1
  C  C436  1  0.704600  0.003900  0.252400  1
  C  C437  1  0.347900  0.950500  0.739400  1
  C  C438  1  0.652100  0.049500  0.260600  1
  C  C439  1  0.223700  0.121600  0.802600  1
  C  C440  1  0.776300  0.878400  0.197400  1
  C  C441  1  0.160200  0.161100  0.805800  1
  C  C442  1  0.839800  0.838900  0.194200  1
  C  C443  1  0.120300  0.170700  0.845300  1
  C  C444  1  0.879700  0.829300  0.154700  1
  C  C445  1  0.060300  0.206200  0.844300  1
  C  C446  1  0.939700  0.793800  0.155700  1
  C  C447  1  0.042400  0.231900  0.801300  1
  C  C448  1  0.957600  0.768100  0.198700  1
  C  C449  1  0.085100  0.222000  0.762600  1
  C  C450  1  0.914900  0.778000  0.237400  1
  C  C451  1  0.168700  0.282100  0.656900  1
  C  C452  1  0.831300  0.717900  0.343100  1
  C  C453  1  0.125700  0.308300  0.621500  1
  C  C454  1  0.874300  0.691700  0.378500  1
  C  C455  1  0.066800  0.265800  0.594000  1
  C  C456  1  0.933200  0.734200  0.406000  1
  C  C457  1  0.052600  0.197800  0.601600  1
  C  C458  1  0.947400  0.802200  0.398400  1
  C  C459  1  0.098300  0.172900  0.636500  1
  C  C460  1  0.901700  0.827100  0.363500  1
  C  C461  1  0.090700  0.100000  0.645100  1
  C  C462  1  0.909300  0.900000  0.354900  1
  C  C463  1  0.135100  0.012100  0.685800  1
  C  C464  1  0.864900  0.987900  0.314200  1
  C  C465  1  0.103000  0.000000  0.727100  1
  C  C466  1  0.897000  0.000000  0.272900  1
  C  C467  1  0.100800  0.931600  0.740100  1
  C  C468  1  0.899200  0.068400  0.259900  1
  C  C469  1  0.161000  0.888600  0.664800  1
  C  C470  1  0.839000  0.111400  0.335200  1
  C  C471  1  0.163100  0.956200  0.654000  1
  C  C472  1  0.836900  0.043800  0.346000  1
  C  C473  1  0.073200  0.918700  0.784200  1
  C  C474  1  0.926800  0.081300  0.215800  1
  C  C475  1  0.104700  0.795200  0.767100  1
  C  C476  1  0.895300  0.204800  0.232900  1
  C  C477  1  0.131900  0.807500  0.722500  1
  C  C478  1  0.868100  0.192500  0.277500  1
  C  C479  1  0.045900  0.839800  0.843200  1
  C  C480  1  0.954100  0.160200  0.156800  1
  C  C481  1  0.049400  0.775600  0.856500  1
  C  C482  1  0.950600  0.224400  0.143500  1
  C  C483  1  0.081600  0.720100  0.827300  1
  C  C484  1  0.918400  0.279900  0.172700  1
  C  C485  1  0.107500  0.727600  0.782800  1
  C  C486  1  0.892500  0.272400  0.217200  1
  C  C487  1  0.039600  0.602100  0.828700  1
  C  C488  1  0.960400  0.397900  0.171300  1
  C  C489  1  0.043500  0.536800  0.848400  1
  C  C490  1  0.956500  0.463200  0.151600  1
  C  C491  1  0.993600  0.476200  0.833700  1
  C  C492  1  0.006400  0.523800  0.166300  1
  C  C493  1  0.003300  0.416100  0.854800  1
  C  C494  1  0.996700  0.583900  0.145200  1
  C  C495  1  0.063900  0.419500  0.887600  1
  C  C496  1  0.936100  0.580500  0.112400  1
  C  C497  1  0.110900  0.481200  0.901400  1
  C  C498  1  0.889100  0.518800  0.098600  1
  C  C499  1  0.073800  0.852600  0.798200  1
  C  C500  1  0.926200  0.147400  0.201800  1
  C  C501  1  0.130200  0.874500  0.708500  1
  C  C502  1  0.869800  0.125500  0.291500  1
  C  C503  1  0.892300  0.974900  0.814800  1
  C  C504  1  0.107700  0.025100  0.185200  1
  C  C505  1  0.925300  0.044700  0.831300  1
  C  C506  1  0.074700  0.955300  0.168700  1
  C  C507  1  0.895900  0.094200  0.864400  1
  C  C508  1  0.104100  0.905800  0.135600  1
  C  C509  1  0.831600  0.074100  0.881300  1
  C  C510  1  0.168400  0.925900  0.118700  1
  C  C511  1  0.800900  0.004300  0.863100  1
  C  C512  1  0.199100  0.995700  0.136900  1
  C  C513  1  0.733200  0.976100  0.877400  1
  C  C514  1  0.266800  0.023900  0.122600  1
  C  C515  1  0.644900  0.880800  0.874600  1
  C  C516  1  0.355100  0.119200  0.125400  1
  C  C517  1  0.652800  0.833500  0.908800  1
  C  C518  1  0.347200  0.166500  0.091200  1
  C  C519  1  0.593800  0.800500  0.923900  1
  C  C520  1  0.406200  0.199500  0.076100  1
  C  C521  1  0.524400  0.812500  0.906100  1
  C  C522  1  0.475600  0.187500  0.093900  1
  C  C523  1  0.516600  0.863300  0.873100  1
  C  C524  1  0.483400  0.136700  0.126900  1
  C  C525  1  0.579300  0.896300  0.858300  1
  C  C526  1  0.420700  0.103700  0.141700  1
  C  C527  1  0.462100  0.777100  0.918200  1
  C  C528  1  0.537900  0.222900  0.081800  1
  C  C529  1  0.394500  0.790100  0.901100  1
  C  C530  1  0.605500  0.209900  0.098900  1
  C  C531  1  0.386000  0.840900  0.869500  1
  C  C532  1  0.614000  0.159100  0.130500  1
  C  C533  1  0.447500  0.876200  0.856600  1
  C  C534  1  0.552500  0.123800  0.143400  1
  C  C535  1  0.331000  0.754600  0.915200  1
  C  C536  1  0.669000  0.245400  0.084800  1
  C  C537  1  0.265900  0.770200  0.899800  1
  C  C538  1  0.734100  0.229800  0.100200  1
  C  C539  1  0.256500  0.821000  0.869200  1
  C  C540  1  0.743500  0.179000  0.130800  1
  C  C541  1  0.317000  0.855700  0.854200  1
  C  C542  1  0.683000  0.144300  0.145800  1
  C  C543  1  0.170700  0.780700  0.949200  1
  C  C544  1  0.829300  0.219300  0.050800  1
  C  C545  1  0.109200  0.749800  0.969000  1
  C  C546  1  0.890800  0.250200  0.031000  1
  C  C547  1  0.067600  0.788100  0.001700  1
  C  C548  1  0.932400  0.211900  0.998300  1
  C  C549  1  0.010800  0.750800  0.017600  1
  C  C550  1  0.989200  0.249200  0.982400  1
  C  C551  1  0.997900  0.677600  0.000800  1
  C  C552  1  0.002100  0.322400  0.999200  1
  C  C553  1  0.040700  0.643300  0.967100  1
  C  C554  1  0.959300  0.356700  0.032900  1
  C  C555  1  0.198200  0.748600  0.180900  1
  C  C556  1  0.801800  0.251400  0.819100  1
  C  C557  1  0.228100  0.489100  0.207700  1
  C  C558  1  0.771900  0.510900  0.792300  1
  C  C559  1  0.438700  0.415900  0.106200  1
  C  C560  1  0.561300  0.584100  0.893800  1
  C  C561  1  0.105000  0.927800  0.320500  1
  C  C562  1  0.895000  0.072200  0.679500  1
  C  C563  1  0.709680  0.648000  0.009710  1
  C  C564  1  0.290320  0.352000  0.990290  1
  C  C565  1  0.977400  0.139900  0.446100  1
  C  C566  1  0.022600  0.860100  0.553900  1
  C  C567  1  0.684400  0.598080  0.387130  1
  C  C568  1  0.315600  0.401920  0.612870  1
  C  C569  1  0.641000  0.160800  0.890100  1
  C  C570  1  0.359000  0.839200  0.109900  1
  C  C571  1  0.653900  0.163400  0.944800  1
  C  C572  1  0.346100  0.836600  0.055200  1
  C  C573  1  0.620700  0.074900  0.990200  1
  C  C574  1  0.379300  0.925100  0.009800  1
  C  C575  1  0.573300  0.009800  0.993900  1
  C  C576  1  0.426700  0.990200  0.006100  1
  C  C577  1  0.006600  0.406200  0.702100  1
  C  C578  1  0.993400  0.593800  0.297900  1
  C  C579  1  0.986400  0.455000  0.672500  1
  C  C580  1  0.013600  0.545000  0.327500  1
  C  C581  1  0.758100  0.801200  0.563000  1
  C  C582  1  0.241900  0.198800  0.437000  1
  C  C583  1  0.809000  0.818100  0.524300  1
  C  C584  1  0.191000  0.181900  0.475700  1
  C  C585  1  0.902100  0.507500  0.962400  1
  C  C586  1  0.097900  0.492500  0.037600  1
  C  C587  1  0.846000  0.530200  0.926300  1
  C  C588  1  0.154000  0.469800  0.073700  1
  C  C589  1  0.773570  0.672750  0.059690  1
  C  C590  1  0.226430  0.327250  0.940310  1
  C  C591  1  0.669380  0.717100  0.440680  1
  C  C592  1  0.330620  0.282900  0.559320  1
  S  S593  1  0.151430  0.712670  0.118990  1
  S  S594  1  0.848570  0.287330  0.881010  1
  S  S595  1  0.176000  0.430810  0.239410  1
  S  S596  1  0.824000  0.569190  0.760590  1
  S  S597  1  0.517010  0.443440  0.154180  1
  S  S598  1  0.482990  0.556560  0.845820  1
  S  S599  1  0.133900  0.959720  0.384370  1
  S  S600  1  0.866100  0.040280  0.615630  1
  S  S601  1  0.775720  0.669050  0.066830  1
  S  S602  1  0.224280  0.330950  0.933170  1
  S  S603  1  0.973800  0.227100  0.459400  1
  S  S604  1  0.026200  0.772900  0.540600  1
  S  S605  1  0.662220  0.687200  0.421450  1
  S  S606  1  0.337780  0.312800  0.578550  1
  S  S607  1  0.718000  0.744600  0.046870  1
  S  S608  1  0.282000  0.255400  0.953130  1
  S  S609  1  0.902200  0.168100  0.487300  1
  S  S610  1  0.097800  0.831900  0.512700  1
  S  S611  1  0.662570  0.622900  0.403110  1
  S  S612  1  0.337430  0.377100  0.596890  1
  N  N613  1  0.236300  0.508000  0.427270  1
  N  N614  1  0.763700  0.492000  0.572730  1
  N  N615  1  0.352100  0.548500  0.485910  1
  N  N616  1  0.647900  0.451500  0.514090  1
  N  N617  1  0.708000  0.767200  0.794630  1
  N  N618  1  0.292000  0.232800  0.205370  1
  N  N619  1  0.814000  0.816200  0.861050  1
  N  N620  1  0.186000  0.183800  0.138950  1
  N  N621  1  0.358200  0.554300  0.382570  1
  N  N622  1  0.641800  0.445700  0.617430  1
  N  N623  1  0.378200  0.679000  0.443520  1
  N  N624  1  0.621800  0.321000  0.556480  1
  N  N625  1  0.285900  0.153100  0.665320  1
  N  N626  1  0.714100  0.846900  0.334680  1
  N  N627  1  0.276800  0.254500  0.742000  1
  N  N628  1  0.723200  0.745500  0.258000  1
  N  N629  1  0.240100  0.641400  0.392400  1
  N  N630  1  0.759900  0.358600  0.607600  1
  N  N631  1  0.243200  0.648300  0.487350  1
  N  N632  1  0.756800  0.351700  0.512650  1
  N  N633  1  0.229700  0.598000  0.854970  1
  N  N634  1  0.770300  0.402000  0.145030  1
  N  N635  1  0.228000  0.609300  0.950100  1
  N  N636  1  0.772000  0.390700  0.049900  1
  N  N637  1  0.833000  0.820200  0.757300  1
  N  N638  1  0.167000  0.179800  0.242700  1
  N  N639  1  0.731400  0.900100  0.749800  1
  N  N640  1  0.268600  0.099900  0.250200  1
  N  N641  1  0.253100  0.116700  0.761300  1
  N  N642  1  0.746900  0.883300  0.238700  1
  N  N643  1  0.143600  0.187700  0.764100  1
  N  N644  1  0.856400  0.812300  0.235900  1
  N  N645  1  0.829600  0.953900  0.830200  1
  N  N646  1  0.170400  0.046100  0.169800  1
  N  N647  1  0.709400  0.910500  0.857400  1
  N  N648  1  0.290600  0.089500  0.142600  1
  N  N649  1  0.202700  0.738600  0.917800  1
  N  N650  1  0.797300  0.261400  0.082200  1
  N  N651  1  0.095600  0.676700  0.949900  1
  N  N652  1  0.904400  0.323300  0.050100  1
  N  N653  1  0.154800  0.214300  0.664100  1
  N  N654  1  0.845200  0.785700  0.335900  1
  N  N655  1  0.140700  0.084700  0.675900  1
  N  N656  1  0.859300  0.915300  0.324100  1
  N  N657  1  0.087700  0.653200  0.845200  1
  N  N658  1  0.912300  0.346800  0.154800  1
  N  N659  1  0.101200  0.540800  0.881600  1
  N  N660  1  0.898800  0.459200  0.118400  1
  N  N661  1  0.025400  0.363500  0.721700  1
  N  N662  1  0.974600  0.636500  0.278300  1
  N  N663  1  0.731900  0.789800  0.599200  1
  N  N664  1  0.268100  0.210200  0.400800  1
  N  N665  1  0.941400  0.498700  0.983600  1
  N  N666  1  0.058600  0.501300  0.016400  1
  O  O667  1  0.081100  0.731200  0.126900  1
  O  O668  1  0.918900  0.268800  0.873100  1
  O  O669  1  0.158900  0.637000  0.109500  1
  O  O670  1  0.841100  0.363000  0.890500  1
  O  O671  1  0.186400  0.752800  0.087260  1
  O  O672  1  0.813600  0.247200  0.912740  1
  O  O673  1  0.143200  0.480200  0.274500  1
  O  O674  1  0.856800  0.519800  0.725500  1
  O  O675  1  0.228100  0.391900  0.260000  1
  O  O676  1  0.771900  0.608100  0.740000  1
  O  O677  1  0.126200  0.387800  0.199600  1
  O  O678  1  0.873800  0.612200  0.800400  1
  O  O679  1  0.483100  0.480100  0.196200  1
  O  O680  1  0.516900  0.519900  0.803800  1
  O  O681  1  0.545000  0.377500  0.158700  1
  O  O682  1  0.455000  0.622500  0.841300  1
  O  O683  1  0.563100  0.491300  0.132500  1
  O  O684  1  0.436900  0.508700  0.867500  1
  O  O685  1  0.178900  0.024800  0.385700  1
  O  O686  1  0.821100  0.975200  0.614300  1
  O  O687  1  0.069300  0.966200  0.406900  1
  O  O688  1  0.930700  0.033800  0.593100  1
  O  O689  1  0.169900  0.900200  0.396100  1
  O  O690  1  0.830100  0.099800  0.603900  1
  O  O691  1  0.839610  0.696300  0.047580  1
  O  O692  1  0.160390  0.303700  0.952420  1
  O  O693  1  0.767200  0.622500  0.096480  1
  O  O694  1  0.232800  0.377500  0.903520  1
  O  O695  1  0.735400  0.741900  0.100830  1
  O  O696  1  0.264600  0.258100  0.899170  1
  O  O697  1  0.947600  0.238800  0.508400  1
  O  O698  1  0.052400  0.761200  0.491600  1
  O  O699  1  0.930700  0.259700  0.415300  1
  O  O700  1  0.069300  0.740300  0.584700  1
  O  O701  1  0.047800  0.250500  0.458200  1
  O  O702  1  0.952200  0.749500  0.541800  1
  O  O703  1  0.595280  0.695350  0.393740  1
  O  O704  1  0.404720  0.304650  0.606260  1
  O  O705  1  0.723180  0.735720  0.415660  1
  O  O706  1  0.276820  0.264280  0.584340  1
  O  O707  1  0.657000  0.675320  0.472200  1
  O  O708  1  0.343000  0.324680  0.527800  1
  O  O709  1  0.683800  0.111500  0.966200  1
  O  O710  1  0.316200  0.888500  0.033800  1
  O  O711  1  0.725300  0.743400  0.994000  1
  O  O712  1  0.274700  0.256600  0.006000  1
  O  O713  1  0.752900  0.808280  0.082300  1
  O  O714  1  0.247100  0.191720  0.917700  1
  O  O715  1  0.648000  0.718300  0.057900  1
  O  O716  1  0.352000  0.281700  0.942100  1
  O  O717  1  0.599880  0.589080  0.420020  1
  O  O718  1  0.400120  0.410920  0.579980  1
  O  O719  1  0.730210  0.598930  0.418880  1
  O  O720  1  0.269790  0.401070  0.581120  1
  O  O721  1  0.654200  0.633340  0.351550  1
  O  O722  1  0.345800  0.366660  0.648450  1
  O  O723  1  0.625600  0.089000  0.941300  1
  O  O724  1  0.374400  0.911000  0.058700  1
  F  F725  1  0.160900  0.721100  0.215600  1
  F  F726  1  0.839100  0.278900  0.784400  1
  F  F727  1  0.262000  0.730700  0.186500  1
  F  F728  1  0.738000  0.269300  0.813500  1
  F  F729  1  0.203100  0.821300  0.195000  1
  F  F730  1  0.796900  0.178700  0.805000  1
  F  F731  1  0.278500  0.533500  0.239700  1
  F  F732  1  0.721500  0.466500  0.760300  1
  F  F733  1  0.262800  0.453200  0.172160  1
  F  F734  1  0.737200  0.546800  0.827840  1
  F  F735  1  0.188700  0.532900  0.187500  1
  F  F736  1  0.811300  0.467100  0.812500  1
  F  F737  1  0.391900  0.372100  0.121300  1
  F  F738  1  0.608100  0.627900  0.878700  1
  F  F739  1  0.460700  0.381600  0.062510  1
  F  F740  1  0.539300  0.618400  0.937490  1
  F  F741  1  0.408800  0.473600  0.097300  1
  F  F742  1  0.591200  0.526400  0.902700  1
  F  F743  1  0.158400  0.916900  0.291100  1
  F  F744  1  0.841600  0.083100  0.708900  1
  F  F745  1  0.062300  0.867200  0.309200  1
  F  F746  1  0.937700  0.132800  0.690800  1
  F  F747  1  0.068300  0.978600  0.301400  1
  F  F748  1  0.931700  0.021400  0.698600  1
  F  F749  1  0.730700  0.598600  0.972520  1
  F  F750  1  0.269300  0.401400  0.027480  1
  F  F751  1  0.645410  0.621500  0.019700  1
  F  F752  1  0.354590  0.378500  0.980300  1
  F  F753  1  0.699600  0.707000  0.990770  1
  F  F754  1  0.300400  0.293000  0.009230  1
  F  F755  1  0.029400  0.114400  0.483500  1
  F  F756  1  0.970600  0.885600  0.516500  1
  F  F757  1  0.001300  0.109000  0.403500  1
  F  F758  1  0.998700  0.891000  0.596500  1
  F  F759  1  0.918700  0.099700  0.460100  1
  F  F760  1  0.081300  0.900300  0.539900  1
  F  F761  1  0.746000  0.580050  0.407330  1
  F  F762  1  0.254000  0.419950  0.592670  1
  F  F763  1  0.633400  0.544530  0.388040  1
  F  F764  1  0.366600  0.455470  0.611960  1
  F  F765  1  0.691700  0.597680  0.338280  1
  F  F766  1  0.308300  0.402320  0.661720  1
  F  F767  1  0.774000  0.665000  0.107820  1
  F  F768  1  0.226000  0.335000  0.892180  1
  F  F769  1  0.749600  0.607970  0.030100  1
  F  F770  1  0.250400  0.392030  0.969900  1
  F  F771  1  0.842000  0.687200  0.051520  1
  F  F772  1  0.158000  0.312800  0.948480  1
  F  F773  1  0.725390  0.758350  0.430370  1
  F  F774  1  0.274610  0.241650  0.569630  1
  F  F775  1  0.610690  0.749680  0.431380  1
  F  F776  1  0.389310  0.250320  0.568620  1
  F  F777  1  0.677600  0.719400  0.490630  1
  F  F778  1  0.322400  0.280600  0.509370  1
