# generated using pymatgen
data_Co4B11H117C139N31(O7F23)2
_symmetry_space_group_name_H-M   'P 1'
_cell_length_a   16.47600000
_cell_length_b   21.24600000
_cell_length_c   27.80700000
_cell_angle_alpha   95.51000000
_cell_angle_beta   97.03000000
_cell_angle_gamma   111.25000000
_symmetry_Int_Tables_number   1
_chemical_formula_structural   Co4B11H117C139N31(O7F23)2
_chemical_formula_sum   'Co8 B22 H234 C278 N62 O28 F92'
_cell_volume   8899.50384103
_cell_formula_units_Z   2
loop_
 _symmetry_equiv_pos_site_id
 _symmetry_equiv_pos_as_xyz
  1  'x, y, z'
loop_
 _atom_site_type_symbol
 _atom_site_label
 _atom_site_symmetry_multiplicity
 _atom_site_fract_x
 _atom_site_fract_y
 _atom_site_fract_z
 _atom_site_occupancy
  Co  Co1  1  0.493470  0.955700  0.171030  1
  Co  Co2  1  0.506530  0.044300  0.828970  1
  Co  Co3  1  0.747010  0.480240  0.183900  1
  Co  Co4  1  0.252990  0.519760  0.816100  1
  Co  Co5  1  0.885630  0.292600  0.508620  1
  Co  Co6  1  0.114370  0.707400  0.491380  1
  Co  Co7  1  0.172010  0.191370  0.199530  1
  Co  Co8  1  0.827990  0.808630  0.800470  1
  B  B9  1  0.680900  0.656700  0.068800  1
  B  B10  1  0.319100  0.343300  0.931200  1
  B  B11  1  0.625900  0.452900  0.403400  1
  B  B12  1  0.374100  0.547100  0.596600  1
  B  B13  1  0.150200  0.666900  0.304800  1
  B  B14  1  0.849800  0.333100  0.695200  1
  B  B15  1  0.402700  0.457300  0.213900  1
  B  B16  1  0.597300  0.542700  0.786100  1
  B  B17  1  0.549700  0.188600  0.015300  1
  B  B18  1  0.450300  0.811400  0.984700  1
  B  B19  1  0.021800  0.707900  0.989100  1
  B  B20  1  0.978200  0.292100  0.010900  1
  B  B21  1  0.901200  0.917400  0.247300  1
  B  B22  1  0.098800  0.082600  0.752700  1
  B  B23  1  0.235300  0.051700  0.350300  1
  B  B24  1  0.764700  0.948300  0.649700  1
  B  B25  1  0.558200  0.202400  0.018700  1
  B  B26  1  0.441800  0.797600  0.981300  1
  B  B27  1  0.020200  0.728300  0.998900  1
  B  B28  1  0.979800  0.271700  0.001100  1
  B  B29  1  0.269200  0.056200  0.351700  1
  B  B30  1  0.730800  0.943800  0.648300  1
  H  H31  1  0.474200  0.824400  0.095700  1
  H  H32  1  0.525800  0.175600  0.904300  1
  H  H33  1  0.548500  0.749300  0.087500  1
  H  H34  1  0.451500  0.250700  0.912500  1
  H  H35  1  0.659400  0.757000  0.150800  1
  H  H36  1  0.340600  0.243000  0.849200  1
  H  H37  1  0.701700  0.842300  0.216900  1
  H  H38  1  0.298300  0.157700  0.783100  1
  H  H39  1  0.683000  0.946200  0.259700  1
  H  H40  1  0.317000  0.053800  0.740300  1
  H  H41  1  0.691500  0.119900  0.217800  1
  H  H42  1  0.308500  0.880100  0.782200  1
  H  H43  1  0.746400  0.214500  0.276700  1
  H  H44  1  0.253600  0.785500  0.723300  1
  H  H45  1  0.598100  0.998300  0.318200  1
  H  H46  1  0.401900  0.001700  0.681800  1
  H  H47  1  0.626100  0.057600  0.406200  1
  H  H48  1  0.373900  0.942400  0.593800  1
  H  H49  1  0.673100  0.155100  0.457900  1
  H  H50  1  0.326900  0.844900  0.542100  1
  H  H51  1  0.775400  0.270000  0.362900  1
  H  H52  1  0.224600  0.730000  0.637100  1
  H  H53  1  0.679400  0.314600  0.445800  1
  H  H54  1  0.320600  0.685400  0.554200  1
  H  H55  1  0.679800  0.414200  0.504300  1
  H  H56  1  0.320200  0.585800  0.495700  1
  H  H57  1  0.745400  0.490400  0.579300  1
  H  H58  1  0.254600  0.509600  0.420700  1
  H  H59  1  0.868400  0.486000  0.625400  1
  H  H60  1  0.131600  0.514000  0.374600  1
  H  H61  1  0.930500  0.414300  0.596500  1
  H  H62  1  0.069500  0.585700  0.403500  1
  H  H63  1  0.408400  0.806900  0.202200  1
  H  H64  1  0.591600  0.193100  0.797800  1
  H  H65  1  0.302800  0.752900  0.248300  1
  H  H66  1  0.697200  0.247100  0.751700  1
  H  H67  1  0.237900  0.815400  0.291900  1
  H  H68  1  0.762100  0.184600  0.708100  1
  H  H69  1  0.281000  0.932400  0.286900  1
  H  H70  1  0.719000  0.067600  0.713100  1
  H  H71  1  0.375800  0.036000  0.253800  1
  H  H72  1  0.624200  0.964000  0.746200  1
  H  H73  1  0.514600  0.135600  0.274700  1
  H  H74  1  0.485400  0.864400  0.725300  1
  H  H75  1  0.489300  0.205000  0.120700  1
  H  H76  1  0.510700  0.795000  0.879300  1
  H  H77  1  0.440800  0.090800  0.127300  1
  H  H78  1  0.559200  0.909200  0.872700  1
  H  H79  1  0.570600  0.326700  0.159800  1
  H  H80  1  0.429400  0.673300  0.840200  1
  H  H81  1  0.646600  0.373000  0.306300  1
  H  H82  1  0.353400  0.627000  0.693700  1
  H  H83  1  0.592300  0.257600  0.313800  1
  H  H84  1  0.407700  0.742400  0.686200  1
  H  H85  1  0.581900  0.455600  0.272200  1
  H  H86  1  0.418100  0.544400  0.727800  1
  H  H87  1  0.598700  0.577900  0.297800  1
  H  H88  1  0.401300  0.422100  0.702200  1
  H  H89  1  0.666300  0.693900  0.291600  1
  H  H90  1  0.333700  0.306100  0.708400  1
  H  H91  1  0.768500  0.726000  0.238800  1
  H  H92  1  0.231500  0.274000  0.761200  1
  H  H93  1  0.804300  0.643700  0.196100  1
  H  H94  1  0.195700  0.356300  0.803900  1
  H  H95  1  0.778500  0.551100  0.086100  1
  H  H96  1  0.221500  0.448900  0.913900  1
  H  H97  1  0.896000  0.629300  0.057500  1
  H  H98  1  0.104000  0.370700  0.942500  1
  H  H99  1  0.036500  0.665600  0.103600  1
  H  H100  1  0.963500  0.334400  0.896400  1
  H  H101  1  0.059600  0.622100  0.175900  1
  H  H102  1  0.940400  0.377900  0.824100  1
  H  H103  1  0.992100  0.550200  0.238800  1
  H  H104  1  0.007900  0.449800  0.761200  1
  H  H105  1  0.962300  0.436100  0.263800  1
  H  H106  1  0.037700  0.563900  0.736200  1
  H  H107  1  0.814100  0.479200  0.387000  1
  H  H108  1  0.185900  0.520800  0.613000  1
  H  H109  1  0.791700  0.512300  0.312300  1
  H  H110  1  0.208300  0.487700  0.687700  1
  H  H111  1  0.029700  0.373100  0.318000  1
  H  H112  1  0.970300  0.626900  0.682000  1
  H  H113  1  0.053100  0.341200  0.393600  1
  H  H114  1  0.946900  0.658800  0.606400  1
  H  H115  1  0.883600  0.420200  0.442500  1
  H  H116  1  0.116400  0.579800  0.557500  1
  H  H117  1  0.108100  0.400900  0.480400  1
  H  H118  1  0.891900  0.599100  0.519600  1
  H  H119  1  0.210900  0.401300  0.557200  1
  H  H120  1  0.789100  0.598700  0.442800  1
  H  H121  1  0.227100  0.368400  0.634900  1
  H  H122  1  0.772900  0.631600  0.365100  1
  H  H123  1  0.101000  0.309100  0.665300  1
  H  H124  1  0.899000  0.690900  0.334700  1
  H  H125  1  0.963000  0.278900  0.616300  1
  H  H126  1  0.037000  0.721100  0.383700  1
  H  H127  1  0.745800  0.266900  0.582000  1
  H  H128  1  0.254200  0.733100  0.418000  1
  H  H129  1  0.661100  0.174600  0.618800  1
  H  H130  1  0.338900  0.825400  0.381200  1
  H  H131  1  0.677200  0.070800  0.603700  1
  H  H132  1  0.322800  0.929200  0.396300  1
  H  H133  1  0.769500  0.059500  0.550500  1
  H  H134  1  0.230500  0.940500  0.449500  1
  H  H135  1  0.878800  0.110000  0.493200  1
  H  H136  1  0.121200  0.890000  0.506800  1
  H  H137  1  0.849800  0.146800  0.392000  1
  H  H138  1  0.150200  0.853200  0.608000  1
  H  H139  1  0.157500  0.237800  0.420700  1
  H  H140  1  0.842500  0.762200  0.579300  1
  H  H141  1  0.076700  0.243900  0.483900  1
  H  H142  1  0.923300  0.756100  0.516100  1
  H  H143  1  0.853900  0.110200  0.307200  1
  H  H144  1  0.146100  0.889800  0.692800  1
  H  H145  1  0.928800  0.096800  0.243300  1
  H  H146  1  0.071200  0.903200  0.756700  1
  H  H147  1  0.161200  0.197300  0.335400  1
  H  H148  1  0.838800  0.802700  0.664600  1
  H  H149  1  0.081000  0.038700  0.266700  1
  H  H150  1  0.919000  0.961300  0.733300  1
  H  H151  1  0.120700  0.949600  0.216800  1
  H  H152  1  0.879300  0.050400  0.783200  1
  H  H153  1  0.191900  0.925400  0.154400  1
  H  H154  1  0.808100  0.074600  0.845600  1
  H  H155  1  0.260600  0.009700  0.107900  1
  H  H156  1  0.739400  0.990300  0.892100  1
  H  H157  1  0.260100  0.117800  0.128100  1
  H  H158  1  0.739900  0.882200  0.871900  1
  H  H159  1  0.366700  0.282700  0.181200  1
  H  H160  1  0.633300  0.717300  0.818800  1
  H  H161  1  0.429800  0.337300  0.119000  1
  H  H162  1  0.570200  0.662700  0.881000  1
  H  H163  1  0.345100  0.323900  0.044500  1
  H  H164  1  0.654900  0.676100  0.955500  1
  H  H165  1  0.189800  0.262600  0.034700  1
  H  H166  1  0.810200  0.737400  0.965300  1
  H  H167  1  0.057200  0.190100  0.071400  1
  H  H168  1  0.942800  0.809900  0.928600  1
  H  H169  1  0.939800  0.206000  0.114500  1
  H  H170  1  0.060200  0.794000  0.885500  1
  H  H171  1  0.842200  0.981200  0.147100  1
  H  H172  1  0.157800  0.018800  0.852900  1
  H  H173  1  0.992100  0.042500  0.148900  1
  H  H174  1  0.007900  0.957500  0.851100  1
  H  H175  1  0.784100  0.200000  0.103700  1
  H  H176  1  0.215900  0.800000  0.896300  1
  H  H177  1  0.633700  0.136300  0.098600  1
  H  H178  1  0.366300  0.863700  0.901400  1
  H  H179  1  0.687100  0.974800  0.135800  1
  H  H180  1  0.312900  0.025200  0.864200  1
  H  H181  1  0.522200  0.029900  0.051400  1
  H  H182  1  0.477800  0.970100  0.948600  1
  H  H183  1  0.368700  0.975000  0.004900  1
  H  H184  1  0.631300  0.025000  0.995100  1
  H  H185  1  0.226500  0.891600  0.996600  1
  H  H186  1  0.773500  0.108400  0.003400  1
  H  H187  1  0.187600  0.832900  0.060900  1
  H  H188  1  0.812400  0.167100  0.939100  1
  H  H189  1  0.291100  0.852200  0.130300  1
  H  H190  1  0.708900  0.147800  0.869700  1
  H  H191  1  0.588600  0.517700  0.134600  1
  H  H192  1  0.411400  0.482300  0.865400  1
  H  H193  1  0.490900  0.485100  0.058000  1
  H  H194  1  0.509100  0.514900  0.942000  1
  H  H195  1  0.495900  0.401900  0.001000  1
  H  H196  1  0.504100  0.598100  0.999000  1
  H  H197  1  0.599000  0.349900  0.018400  1
  H  H198  1  0.401000  0.650100  0.981600  1
  H  H199  1  0.721800  0.341300  0.079400  1
  H  H200  1  0.278200  0.658700  0.920600  1
  H  H201  1  0.909200  0.403300  0.117000  1
  H  H202  1  0.090800  0.596700  0.883000  1
  H  H203  1  0.850700  0.259000  0.235500  1
  H  H204  1  0.149300  0.741000  0.764500  1
  H  H205  1  0.748300  0.309100  0.209800  1
  H  H206  1  0.251700  0.690900  0.790200  1
  H  H207  1  0.056700  0.397500  0.120800  1
  H  H208  1  0.943300  0.602500  0.879200  1
  H  H209  1  0.163900  0.362200  0.157100  1
  H  H210  1  0.836100  0.637800  0.842900  1
  H  H211  1  0.997100  0.257700  0.242800  1
  H  H212  1  0.002900  0.742300  0.757200  1
  H  H213  1  0.218500  0.365700  0.272400  1
  H  H214  1  0.781500  0.634300  0.727600  1
  H  H215  1  0.347700  0.375400  0.336400  1
  H  H216  1  0.652300  0.624600  0.663600  1
  H  H217  1  0.450000  0.329800  0.366500  1
  H  H218  1  0.550000  0.670200  0.633500  1
  H  H219  1  0.428000  0.219700  0.336700  1
  H  H220  1  0.572000  0.780300  0.663300  1
  H  H221  1  0.331600  0.168300  0.265600  1
  H  H222  1  0.668400  0.831700  0.734400  1
  H  H223  1  0.468000  0.146100  0.443700  1
  H  H224  1  0.532000  0.853900  0.556300  1
  H  H225  1  0.474000  0.074700  0.453200  1
  H  H226  1  0.526000  0.925300  0.546800  1
  H  H227  1  0.380400  0.078100  0.433600  1
  H  H228  1  0.619600  0.921900  0.566400  1
  H  H229  1  0.708900  0.551800  0.908600  1
  H  H230  1  0.291100  0.448200  0.091400  1
  H  H231  1  0.804500  0.547800  0.917500  1
  H  H232  1  0.195500  0.452200  0.082500  1
  H  H233  1  0.781500  0.599200  0.954100  1
  H  H234  1  0.218500  0.400800  0.045900  1
  H  H235  1  0.263800  0.123100  0.939100  1
  H  H236  1  0.736200  0.876900  0.060900  1
  H  H237  1  0.355400  0.173200  0.972100  1
  H  H238  1  0.644600  0.826800  0.027900  1
  H  H239  1  0.265300  0.182000  0.980100  1
  H  H240  1  0.734700  0.818000  0.019900  1
  H  H241  1  0.370800  0.323400  0.435100  1
  H  H242  1  0.629200  0.676600  0.564900  1
  H  H243  1  0.283700  0.313100  0.397500  1
  H  H244  1  0.716300  0.686900  0.602500  1
  H  H245  1  0.275300  0.282600  0.447900  1
  H  H246  1  0.724700  0.717400  0.552100  1
  H  H247  1  0.106900  0.883900  0.315300  1
  H  H248  1  0.893100  0.116100  0.684700  1
  H  H249  1  0.070600  0.814700  0.338300  1
  H  H250  1  0.929400  0.185300  0.661700  1
  H  H251  1  0.006100  0.853200  0.323200  1
  H  H252  1  0.993900  0.146800  0.676800  1
  H  H253  1  0.304600  0.676500  0.047400  1
  H  H254  1  0.695400  0.323500  0.952600  1
  H  H255  1  0.214100  0.687500  0.033300  1
  H  H256  1  0.785900  0.312500  0.966700  1
  H  H257  1  0.212500  0.617100  0.050100  1
  H  H258  1  0.787500  0.382900  0.949900  1
  H  H259  1  0.019300  0.469400  0.093700  1
  H  H260  1  0.980700  0.530600  0.906300  1
  H  H261  1  0.063600  0.544800  0.080500  1
  H  H262  1  0.936400  0.455200  0.919500  1
  H  H263  1  0.079800  0.482500  0.052000  1
  H  H264  1  0.920200  0.517500  0.948000  1
  C  C265  1  0.522100  0.829100  0.120400  1
  C  C266  1  0.477900  0.170900  0.879600  1
  C  C267  1  0.564800  0.783200  0.115600  1
  C  C268  1  0.435200  0.216800  0.884400  1
  C  C269  1  0.630600  0.788500  0.152600  1
  C  C270  1  0.369400  0.211500  0.847400  1
  C  C271  1  0.655000  0.838000  0.191400  1
  C  C272  1  0.345000  0.162000  0.808600  1
  C  C273  1  0.611300  0.882900  0.194000  1
  C  C274  1  0.388700  0.117100  0.806000  1
  C  C275  1  0.639500  0.941400  0.232300  1
  C  C276  1  0.360500  0.058600  0.767700  1
  C  C277  1  0.641800  0.049400  0.266500  1
  C  C278  1  0.358200  0.950600  0.733500  1
  C  C279  1  0.685700  0.116300  0.251100  1
  C  C280  1  0.314300  0.883700  0.748900  1
  C  C281  1  0.716500  0.170400  0.284800  1
  C  C282  1  0.283500  0.829600  0.715200  1
  C  C283  1  0.704100  0.161800  0.333400  1
  C  C284  1  0.295900  0.838200  0.666600  1
  C  C285  1  0.658500  0.108300  0.349200  1
  C  C286  1  0.341500  0.891700  0.650800  1
  C  C287  1  0.627200  0.042300  0.309800  1
  C  C288  1  0.372800  0.957700  0.690200  1
  C  C289  1  0.651800  0.100700  0.395700  1
  C  C290  1  0.348200  0.899300  0.604300  1
  C  C291  1  0.683800  0.157900  0.425200  1
  C  C292  1  0.316200  0.842100  0.574800  1
  C  C293  1  0.730000  0.220800  0.416200  1
  C  C294  1  0.270000  0.779200  0.583800  1
  C  C295  1  0.743000  0.226900  0.371700  1
  C  C296  1  0.257000  0.773100  0.628300  1
  C  C297  1  0.731300  0.317200  0.466400  1
  C  C298  1  0.268700  0.682800  0.533600  1
  C  C299  1  0.768600  0.368500  0.510100  1
  C  C300  1  0.231400  0.631500  0.489900  1
  C  C301  1  0.730800  0.413400  0.523900  1
  C  C302  1  0.269200  0.586600  0.476100  1
  C  C303  1  0.770200  0.458800  0.568300  1
  C  C304  1  0.229800  0.541200  0.431700  1
  C  C305  1  0.842700  0.457000  0.594800  1
  C  C306  1  0.157300  0.543000  0.405200  1
  C  C307  1  0.878100  0.413900  0.577700  1
  C  C308  1  0.121900  0.586100  0.422300  1
  C  C309  1  0.382300  0.833000  0.219600  1
  C  C310  1  0.617700  0.167000  0.780400  1
  C  C311  1  0.319200  0.800400  0.247200  1
  C  C312  1  0.680800  0.199600  0.752800  1
  C  C313  1  0.281000  0.836700  0.272600  1
  C  C314  1  0.719000  0.163300  0.727400  1
  C  C315  1  0.306600  0.905600  0.269600  1
  C  C316  1  0.693400  0.094400  0.730400  1
  C  C317  1  0.369500  0.935300  0.241600  1
  C  C318  1  0.630500  0.064700  0.758400  1
  C  C319  1  0.396500  0.006900  0.235100  1
  C  C320  1  0.603500  0.993100  0.764900  1
  C  C321  1  0.474200  0.102800  0.201600  1
  C  C322  1  0.525800  0.897200  0.798400  1
  C  C323  1  0.511800  0.150300  0.243600  1
  C  C324  1  0.488200  0.849700  0.756400  1
  C  C325  1  0.545900  0.220600  0.240400  1
  C  C326  1  0.454100  0.779400  0.759600  1
  C  C327  1  0.538100  0.242300  0.194100  1
  C  C328  1  0.461900  0.757700  0.805900  1
  C  C329  1  0.496400  0.191500  0.152000  1
  C  C330  1  0.503600  0.808500  0.848000  1
  C  C331  1  0.466800  0.123900  0.155900  1
  C  C332  1  0.533200  0.876100  0.844100  1
  C  C333  1  0.573800  0.312400  0.191100  1
  C  C334  1  0.426200  0.687600  0.808900  1
  C  C335  1  0.612500  0.360000  0.231200  1
  C  C336  1  0.387500  0.640000  0.768800  1
  C  C337  1  0.619500  0.339600  0.277900  1
  C  C338  1  0.380500  0.660400  0.722100  1
  C  C339  1  0.587000  0.271100  0.282300  1
  C  C340  1  0.413000  0.728900  0.717700  1
  C  C341  1  0.625200  0.472300  0.251900  1
  C  C342  1  0.374800  0.527700  0.748100  1
  C  C343  1  0.662500  0.544400  0.249700  1
  C  C344  1  0.337500  0.455600  0.750300  1
  C  C345  1  0.641000  0.592100  0.276700  1
  C  C346  1  0.359000  0.407900  0.723300  1
  C  C347  1  0.680700  0.660600  0.273100  1
  C  C348  1  0.319300  0.339400  0.726900  1
  C  C349  1  0.740900  0.679400  0.242400  1
  C  C350  1  0.259100  0.320600  0.757600  1
  C  C351  1  0.761100  0.630100  0.216700  1
  C  C352  1  0.238900  0.369900  0.783300  1
  C  C353  1  0.835900  0.567000  0.105200  1
  C  C354  1  0.164100  0.433000  0.894800  1
  C  C355  1  0.905500  0.612900  0.087500  1
  C  C356  1  0.094500  0.387100  0.912500  1
  C  C357  1  0.987700  0.633600  0.114600  1
  C  C358  1  0.012300  0.366400  0.885400  1
  C  C359  1  0.001600  0.608900  0.158000  1
  C  C360  1  0.998400  0.391100  0.842000  1
  C  C361  1  0.929600  0.564700  0.174700  1
  C  C362  1  0.070400  0.435300  0.825300  1
  C  C363  1  0.935500  0.539500  0.219900  1
  C  C364  1  0.064500  0.460500  0.780100  1
  C  C365  1  0.878400  0.478700  0.280800  1
  C  C366  1  0.121600  0.521300  0.719200  1
  C  C367  1  0.932200  0.444300  0.289200  1
  C  C368  1  0.067800  0.555700  0.710800  1
  C  C369  1  0.946000  0.420200  0.333700  1
  C  C370  1  0.054000  0.579800  0.666300  1
  C  C371  1  0.899300  0.434900  0.371800  1
  C  C372  1  0.100700  0.565100  0.628200  1
  C  C373  1  0.844300  0.469500  0.362100  1
  C  C374  1  0.155700  0.530500  0.637900  1
  C  C375  1  0.831900  0.490100  0.318100  1
  C  C376  1  0.168100  0.509900  0.681900  1
  C  C377  1  0.001100  0.384200  0.343300  1
  C  C378  1  0.998900  0.615800  0.656700  1
  C  C379  1  0.014600  0.364800  0.387800  1
  C  C380  1  0.985400  0.635200  0.612200  1
  C  C381  1  0.969700  0.380400  0.426100  1
  C  C382  1  0.030300  0.619600  0.573900  1
  C  C383  1  0.914400  0.412200  0.417300  1
  C  C384  1  0.085600  0.587800  0.582700  1
  C  C385  1  0.059600  0.376600  0.495300  1
  C  C386  1  0.940400  0.623400  0.504700  1
  C  C387  1  0.076700  0.359400  0.544200  1
  C  C388  1  0.923300  0.640600  0.455800  1
  C  C389  1  0.160300  0.376500  0.570500  1
  C  C390  1  0.839700  0.623500  0.429500  1
  C  C391  1  0.170100  0.357100  0.616300  1
  C  C392  1  0.829900  0.642900  0.383700  1
  C  C393  1  0.096900  0.322100  0.633600  1
  C  C394  1  0.903100  0.677900  0.366400  1
  C  C395  1  0.014400  0.304800  0.604200  1
  C  C396  1  0.985600  0.695200  0.395800  1
  C  C397  1  0.750900  0.223900  0.575400  1
  C  C398  1  0.249100  0.776100  0.424600  1
  C  C399  1  0.700100  0.169000  0.597900  1
  C  C400  1  0.299900  0.831000  0.402100  1
  C  C401  1  0.709000  0.108400  0.588600  1
  C  C402  1  0.291000  0.891600  0.411400  1
  C  C403  1  0.763600  0.102100  0.557800  1
  C  C404  1  0.236400  0.897900  0.442200  1
  C  C405  1  0.810700  0.157100  0.536900  1
  C  C406  1  0.189300  0.842900  0.463100  1
  C  C407  1  0.869600  0.151200  0.500700  1
  C  C408  1  0.130400  0.848800  0.499300  1
  C  C409  1  0.959000  0.197400  0.443500  1
  C  C410  1  0.041000  0.802600  0.556500  1
  C  C411  1  0.912600  0.165000  0.397700  1
  C  C412  1  0.087400  0.835000  0.602300  1
  C  C413  1  0.960000  0.158900  0.358500  1
  C  C414  1  0.040000  0.841100  0.641500  1
  C  C415  1  0.052000  0.185900  0.368000  1
  C  C416  1  0.948000  0.814100  0.632000  1
  C  C417  1  0.094800  0.218100  0.414000  1
  C  C418  1  0.905200  0.781900  0.586000  1
  C  C419  1  0.046000  0.222500  0.451800  1
  C  C420  1  0.954000  0.777500  0.548200  1
  C  C421  1  0.916600  0.127000  0.313300  1
  C  C422  1  0.083400  0.873000  0.686700  1
  C  C423  1  0.960300  0.117900  0.275300  1
  C  C424  1  0.039700  0.882100  0.724700  1
  C  C425  1  0.054300  0.141300  0.285900  1
  C  C426  1  0.945700  0.858700  0.714100  1
  C  C427  1  0.098400  0.177400  0.329900  1
  C  C428  1  0.901600  0.822600  0.670100  1
  C  C429  1  0.105700  0.069300  0.244800  1
  C  C430  1  0.894300  0.930700  0.755200  1
  C  C431  1  0.150800  0.048600  0.206900  1
  C  C432  1  0.849200  0.951400  0.793100  1
  C  C433  1  0.149500  0.983700  0.198100  1
  C  C434  1  0.850500  0.016300  0.801900  1
  C  C435  1  0.191300  0.969900  0.161300  1
  C  C436  1  0.808700  0.030100  0.838700  1
  C  C437  1  0.232500  0.019300  0.133900  1
  C  C438  1  0.767500  0.980700  0.866100  1
  C  C439  1  0.231000  0.082800  0.146000  1
  C  C440  1  0.769000  0.917200  0.854000  1
  C  C441  1  0.329900  0.278400  0.151000  1
  C  C442  1  0.670100  0.721600  0.849000  1
  C  C443  1  0.368200  0.310500  0.113700  1
  C  C444  1  0.631800  0.689500  0.886300  1
  C  C445  1  0.319000  0.303900  0.070700  1
  C  C446  1  0.681000  0.696100  0.929300  1
  C  C447  1  0.227400  0.266800  0.064600  1
  C  C448  1  0.772600  0.733200  0.935400  1
  C  C449  1  0.194400  0.236900  0.103000  1
  C  C450  1  0.805600  0.763100  0.897000  1
  C  C451  1  0.098100  0.195300  0.100100  1
  C  C452  1  0.901900  0.804700  0.899900  1
  C  C453  1  0.978200  0.130100  0.133000  1
  C  C454  1  0.021800  0.869900  0.867000  1
  C  C455  1  0.919100  0.160600  0.121600  1
  C  C456  1  0.080900  0.839400  0.878400  1
  C  C457  1  0.828200  0.125200  0.120500  1
  C  C458  1  0.171800  0.874800  0.879500  1
  C  C459  1  0.798800  0.056000  0.131500  1
  C  C460  1  0.201200  0.944000  0.868500  1
  C  C461  1  0.861300  0.027200  0.141100  1
  C  C462  1  0.138700  0.972800  0.858900  1
  C  C463  1  0.950500  0.063300  0.142100  1
  C  C464  1  0.049500  0.936700  0.857900  1
  C  C465  1  0.765200  0.154000  0.109600  1
  C  C466  1  0.234800  0.846000  0.890400  1
  C  C467  1  0.675800  0.116600  0.107400  1
  C  C468  1  0.324200  0.883400  0.892600  1
  C  C469  1  0.647800  0.049400  0.118200  1
  C  C470  1  0.352200  0.950600  0.881800  1
  C  C471  1  0.707600  0.020600  0.129300  1
  C  C472  1  0.292400  0.979400  0.870700  1
  C  C473  1  0.502000  0.004500  0.076800  1
  C  C474  1  0.498000  0.995500  0.923200  1
  C  C475  1  0.409800  0.959600  0.072000  1
  C  C476  1  0.590200  0.040400  0.928000  1
  C  C477  1  0.351700  0.949100  0.030500  1
  C  C478  1  0.648300  0.050900  0.969500  1
  C  C479  1  0.268000  0.900500  0.025800  1
  C  C480  1  0.732000  0.099500  0.974200  1
  C  C481  1  0.245800  0.865700  0.063000  1
  C  C482  1  0.754200  0.134300  0.937000  1
  C  C483  1  0.307600  0.877800  0.104500  1
  C  C484  1  0.692400  0.122200  0.895500  1
  C  C485  1  0.591000  0.483500  0.110800  1
  C  C486  1  0.409000  0.516500  0.889200  1
  C  C487  1  0.531900  0.463800  0.064700  1
  C  C488  1  0.468100  0.536200  0.935300  1
  C  C489  1  0.534900  0.415300  0.031500  1
  C  C490  1  0.465100  0.584700  0.968500  1
  C  C491  1  0.595700  0.384200  0.041700  1
  C  C492  1  0.404300  0.615800  0.958300  1
  C  C493  1  0.651400  0.405200  0.087300  1
  C  C494  1  0.348600  0.594800  0.912700  1
  C  C495  1  0.713800  0.374400  0.101800  1
  C  C496  1  0.286200  0.625600  0.898200  1
  C  C497  1  0.822000  0.361600  0.160600  1
  C  C498  1  0.178000  0.638400  0.839400  1
  C  C499  1  0.898500  0.376600  0.142800  1
  C  C500  1  0.101500  0.623400  0.857200  1
  C  C501  1  0.962000  0.352300  0.162700  1
  C  C502  1  0.038000  0.647700  0.837300  1
  C  C503  1  0.945600  0.310800  0.198500  1
  C  C504  1  0.054400  0.689200  0.801500  1
  C  C505  1  0.864600  0.291500  0.213500  1
  C  C506  1  0.135400  0.708500  0.786500  1
  C  C507  1  0.801700  0.318900  0.197000  1
  C  C508  1  0.198300  0.681100  0.803000  1
  C  C509  1  0.045000  0.370500  0.146300  1
  C  C510  1  0.955000  0.629500  0.853700  1
  C  C511  1  0.107900  0.348800  0.167300  1
  C  C512  1  0.892100  0.651200  0.832700  1
  C  C513  1  0.089500  0.306100  0.204800  1
  C  C514  1  0.910500  0.693900  0.795200  1
  C  C515  1  0.010100  0.287300  0.218900  1
  C  C516  1  0.989900  0.712700  0.781100  1
  C  C517  1  0.216200  0.321600  0.260400  1
  C  C518  1  0.783800  0.678400  0.739600  1
  C  C519  1  0.280900  0.297600  0.281300  1
  C  C520  1  0.719100  0.702400  0.718700  1
  C  C521  1  0.344200  0.332100  0.321400  1
  C  C522  1  0.655800  0.667900  0.678600  1
  C  C523  1  0.403100  0.304300  0.340400  1
  C  C524  1  0.596900  0.695700  0.659600  1
  C  C525  1  0.393400  0.242100  0.321700  1
  C  C526  1  0.606600  0.757900  0.678300  1
  C  C527  1  0.333700  0.211000  0.280900  1
  C  C528  1  0.666300  0.789000  0.719100  1
  C  C529  1  0.444000  0.097000  0.432200  1
  C  C530  1  0.556000  0.903000  0.567800  1
  C  C531  1  0.757900  0.554300  0.933500  1
  C  C532  1  0.242100  0.445700  0.066500  1
  C  C533  1  0.292100  0.148900  0.971800  1
  C  C534  1  0.707900  0.851100  0.028200  1
  C  C535  1  0.309700  0.320600  0.432200  1
  C  C536  1  0.690300  0.679400  0.567800  1
  C  C537  1  0.055500  0.841700  0.314600  1
  C  C538  1  0.944500  0.158300  0.685400  1
  C  C539  1  0.245000  0.666667  0.055000  1
  C  C540  1  0.755000  0.333333  0.945000  1
  C  C541  1  0.037000  0.496000  0.067200  1
  C  C542  1  0.963000  0.504000  0.932800  1
  N  N543  1  0.545800  0.878600  0.157900  1
  N  N544  1  0.454200  0.121400  0.842100  1
  N  N545  1  0.605400  0.986800  0.228900  1
  N  N546  1  0.394600  0.013200  0.771100  1
  N  N547  1  0.768700  0.276100  0.456200  1
  N  N548  1  0.231300  0.723900  0.543800  1
  N  N549  1  0.844500  0.370500  0.536100  1
  N  N550  1  0.155500  0.629500  0.463900  1
  N  N551  1  0.408100  0.900000  0.216500  1
  N  N552  1  0.591900  0.100000  0.783500  1
  N  N553  1  0.446400  0.030700  0.205200  1
  N  N554  1  0.553600  0.969300  0.794800  1
  N  N555  1  0.649200  0.430800  0.227200  1
  N  N556  1  0.350800  0.569200  0.772800  1
  N  N557  1  0.722200  0.563400  0.219700  1
  N  N558  1  0.277800  0.436600  0.780300  1
  N  N559  1  0.845800  0.543600  0.148600  1
  N  N560  1  0.154200  0.456400  0.851400  1
  N  N561  1  0.868200  0.503600  0.235800  1
  N  N562  1  0.131800  0.496400  0.764200  1
  N  N563  1  0.983300  0.360100  0.472900  1
  N  N564  1  0.016700  0.639900  0.527100  1
  N  N565  1  0.004600  0.322700  0.560900  1
  N  N566  1  0.995400  0.677300  0.439100  1
  N  N567  1  0.805200  0.217600  0.545400  1
  N  N568  1  0.194800  0.782400  0.454600  1
  N  N569  1  0.906200  0.202200  0.480900  1
  N  N570  1  0.093800  0.797800  0.519100  1
  N  N571  1  0.099600  0.127000  0.248400  1
  N  N572  1  0.900400  0.873000  0.751600  1
  N  N573  1  0.190800  0.098500  0.181700  1
  N  N574  1  0.809200  0.901500  0.818300  1
  N  N575  1  0.244600  0.242000  0.146100  1
  N  N576  1  0.755400  0.758000  0.853900  1
  N  N577  1  0.071400  0.166900  0.136500  1
  N  N578  1  0.928600  0.833100  0.863500  1
  N  N579  1  0.556700  0.009400  0.116400  1
  N  N580  1  0.443300  0.990600  0.883600  1
  N  N581  1  0.389500  0.923900  0.109700  1
  N  N582  1  0.610500  0.076100  0.890300  1
  N  N583  1  0.648400  0.454700  0.120400  1
  N  N584  1  0.351600  0.545300  0.879600  1
  N  N585  1  0.757400  0.391900  0.144500  1
  N  N586  1  0.242600  0.608100  0.855500  1
  N  N587  1  0.154800  0.283300  0.225100  1
  N  N588  1  0.845200  0.716700  0.774900  1
  N  N589  1  0.276900  0.236700  0.260600  1
  N  N590  1  0.723100  0.763300  0.739400  1
  N  N591  1  0.459000  0.082400  0.374600  1
  N  N592  1  0.541000  0.917600  0.625400  1
  N  N593  1  0.728800  0.505500  0.961400  1
  N  N594  1  0.271200  0.494500  0.038600  1
  N  N595  1  0.279000  0.098400  0.010600  1
  N  N596  1  0.721000  0.901600  0.989400  1
  N  N597  1  0.308600  0.382500  0.455600  1
  N  N598  1  0.691400  0.617500  0.544400  1
  N  N599  1  0.030500  0.802500  0.266000  1
  N  N600  1  0.969500  0.197500  0.734000  1
  N  N601  1  0.250900  0.692400  0.101400  1
  N  N602  1  0.749100  0.307600  0.898600  1
  N  N603  1  0.970000  0.485000  0.035500  1
  N  N604  1  0.030000  0.515000  0.964500  1
  O  O605  1  0.484500  0.143200  0.369200  1
  O  O606  1  0.515500  0.856800  0.630800  1
  O  O607  1  0.444600  0.027800  0.359300  1
  O  O608  1  0.555400  0.972200  0.640700  1
  O  O609  1  0.648500  0.465200  0.943100  1
  O  O610  1  0.351500  0.534800  0.056900  1
  O  O611  1  0.772400  0.490200  0.993100  1
  O  O612  1  0.227600  0.509800  0.006900  1
  O  O613  1  0.307400  0.115700  0.047800  1
  O  O614  1  0.692600  0.884300  0.952200  1
  O  O615  1  0.248200  0.040600  0.986600  1
  O  O616  1  0.751800  0.959400  0.013400  1
  O  O617  1  0.243900  0.385400  0.455100  1
  O  O618  1  0.756100  0.614600  0.544900  1
  O  O619  1  0.397900  0.420700  0.479400  1
  O  O620  1  0.602100  0.579300  0.520600  1
  O  O621  1  0.068200  0.818400  0.229100  1
  O  O622  1  0.931800  0.181600  0.770900  1
  O  O623  1  0.968300  0.747000  0.254800  1
  O  O624  1  0.031700  0.253000  0.745200  1
  O  O625  1  0.213700  0.701000  0.134400  1
  O  O626  1  0.786300  0.299000  0.865600  1
  O  O627  1  0.333600  0.727700  0.115900  1
  O  O628  1  0.666400  0.272300  0.884100  1
  O  O629  1  0.898000  0.451400  0.037400  1
  O  O630  1  0.102000  0.548600  0.962600  1
  O  O631  1  0.008000  0.527000  0.004200  1
  O  O632  1  0.992000  0.473000  0.995800  1
  F  F633  1  0.719000  0.660600  0.112500  1
  F  F634  1  0.281000  0.339400  0.887500  1
  F  F635  1  0.675200  0.602500  0.036000  1
  F  F636  1  0.324800  0.397500  0.964000  1
  F  F637  1  0.690900  0.716600  0.052100  1
  F  F638  1  0.309100  0.283400  0.947900  1
  F  F639  1  0.591200  0.639600  0.076900  1
  F  F640  1  0.408800  0.360400  0.923100  1
  F  F641  1  0.645600  0.487300  0.367700  1
  F  F642  1  0.354400  0.512700  0.632300  1
  F  F643  1  0.550900  0.447400  0.421900  1
  F  F644  1  0.449100  0.552600  0.578100  1
  F  F645  1  0.627100  0.389200  0.396700  1
  F  F646  1  0.372900  0.610800  0.603300  1
  F  F647  1  0.691600  0.489700  0.443500  1
  F  F648  1  0.308400  0.510300  0.556500  1
  F  F649  1  0.236100  0.682800  0.327200  1
  F  F650  1  0.763900  0.317200  0.672800  1
  F  F651  1  0.143800  0.665200  0.255700  1
  F  F652  1  0.856200  0.334800  0.744300  1
  F  F653  1  0.130100  0.723100  0.323000  1
  F  F654  1  0.869900  0.276900  0.677000  1
  F  F655  1  0.090500  0.609300  0.315600  1
  F  F656  1  0.909500  0.390700  0.684400  1
  F  F657  1  0.316100  0.433100  0.191500  1
  F  F658  1  0.683900  0.566900  0.808500  1
  F  F659  1  0.424800  0.514800  0.243600  1
  F  F660  1  0.575200  0.485200  0.756400  1
  F  F661  1  0.459100  0.470100  0.183000  1
  F  F662  1  0.540900  0.529900  0.817000  1
  F  F663  1  0.414500  0.406900  0.234000  1
  F  F664  1  0.585500  0.593100  0.766000  1
  F  F665  1  0.592800  0.223400  0.060700  1
  F  F666  1  0.407200  0.776600  0.939300  1
  F  F667  1  0.607200  0.187300  0.983800  1
  F  F668  1  0.392800  0.812700  0.016200  1
  F  F669  1  0.497000  0.220600  0.995400  1
  F  F670  1  0.503000  0.779400  0.004600  1
  F  F671  1  0.500300  0.122900  0.019100  1
  F  F672  1  0.499700  0.877100  0.980900  1
  F  F673  1  0.010000  0.643100  0.979700  1
  F  F674  1  0.990000  0.356900  0.020300  1
  F  F675  1  0.943200  0.711200  0.981400  1
  F  F676  1  0.056800  0.288800  0.018600  1
  F  F677  1  0.079400  0.745000  0.965300  1
  F  F678  1  0.920600  0.255000  0.034700  1
  F  F679  1  0.061100  0.725300  0.039600  1
  F  F680  1  0.938900  0.274700  0.960400  1
  F  F681  1  0.840900  0.949200  0.248100  1
  F  F682  1  0.159100  0.050800  0.751900  1
  F  F683  1  0.853300  0.847300  0.243700  1
  F  F684  1  0.146700  0.152700  0.756300  1
  F  F685  1  0.940500  0.930900  0.207300  1
  F  F686  1  0.059500  0.069100  0.792700  1
  F  F687  1  0.962400  0.942200  0.289800  1
  F  F688  1  0.037600  0.057800  0.710200  1
  F  F689  1  0.265000  0.053300  0.305000  1
  F  F690  1  0.735000  0.946700  0.695000  1
  F  F691  1  0.256100  0.005100  0.377600  1
  F  F692  1  0.743900  0.994900  0.622400  1
  F  F693  1  0.141600  0.031200  0.342900  1
  F  F694  1  0.858400  0.968800  0.657100  1
  F  F695  1  0.275000  0.117800  0.378400  1
  F  F696  1  0.725000  0.882200  0.621600  1
  F  F697  1  0.755000  0.705700  0.054400  1
  F  F698  1  0.245000  0.294300  0.945600  1
  F  F699  1  0.624700  0.686500  0.051800  1
  F  F700  1  0.375300  0.313500  0.948200  1
  F  F701  1  0.625900  0.224700  0.058200  1
  F  F702  1  0.374100  0.775300  0.941800  1
  F  F703  1  0.582400  0.240200  0.981100  1
  F  F704  1  0.417600  0.759800  0.018900  1
  F  F705  1  0.485100  0.211900  0.032700  1
  F  F706  1  0.514900  0.788100  0.967300  1
  F  F707  1  0.538800  0.134500  0.001600  1
  F  F708  1  0.461200  0.865500  0.998400  1
  F  F709  1  0.070900  0.691500  0.004900  1
  F  F710  1  0.929100  0.308500  0.995100  1
  F  F711  1  0.952600  0.685600  0.966500  1
  F  F712  1  0.047400  0.314400  0.033500  1
  F  F713  1  0.062700  0.777100  0.977500  1
  F  F714  1  0.937300  0.222900  0.022500  1
  F  F715  1  0.029100  0.755000  0.044400  1
  F  F716  1  0.970900  0.245000  0.955600  1
  F  F717  1  0.338500  0.077800  0.324700  1
  F  F718  1  0.661500  0.922200  0.675300  1
  F  F719  1  0.329000  0.055700  0.392700  1
  F  F720  1  0.671000  0.944300  0.607300  1
  F  F721  1  0.205000  0.990200  0.332600  1
  F  F722  1  0.795000  0.009800  0.667400  1
  F  F723  1  0.231300  0.105600  0.360300  1
  F  F724  1  0.768700  0.894400  0.639700  1
