# generated using pymatgen
data_Co4B8H105C138N27F32
_symmetry_space_group_name_H-M   'P 1'
_cell_length_a   16.40500000
_cell_length_b   21.17500000
_cell_length_c   27.97800000
_cell_angle_alpha   95.86000000
_cell_angle_beta   97.14000000
_cell_angle_gamma   111.46000000
_symmetry_Int_Tables_number   1
_chemical_formula_structural   Co4B8H105C138N27F32
_chemical_formula_sum   'Co8 B16 H210 C276 N54 F64'
_cell_volume   8859.62390238
_cell_formula_units_Z   2
loop_
 _symmetry_equiv_pos_site_id
 _symmetry_equiv_pos_as_xyz
  1  'x, y, z'
loop_
 _atom_site_type_symbol
 _atom_site_label
 _atom_site_symmetry_multiplicity
 _atom_site_fract_x
 _atom_site_fract_y
 _atom_site_fract_z
 _atom_site_occupancy
  Co  Co1  1  0.483440  0.951120  0.176730  1
  Co  Co2  1  0.516560  0.048880  0.823270  1
  Co  Co3  1  0.732940  0.474800  0.180950  1
  Co  Co4  1  0.267060  0.525200  0.819050  1
  Co  Co5  1  0.162960  0.189680  0.197770  1
  Co  Co6  1  0.837040  0.810320  0.802230  1
  Co  Co7  1  0.887250  0.294480  0.509190  1
  Co  Co8  1  0.112750  0.705520  0.490810  1
  B  B9  1  0.689100  0.662700  0.071100  1
  B  B10  1  0.310900  0.337300  0.928900  1
  B  B11  1  0.572600  0.198200  0.014300  1
  B  B12  1  0.427400  0.801800  0.985700  1
  B  B13  1  0.391000  0.454300  0.219500  1
  B  B14  1  0.609000  0.545700  0.780500  1
  B  B15  1  0.059900  0.665500  0.290200  1
  B  B16  1  0.940100  0.334500  0.709800  1
  B  B17  1  0.292700  0.072500  0.352000  1
  B  B18  1  0.707300  0.927500  0.648000  1
  B  B19  1  0.609900  0.438000  0.406300  1
  B  B20  1  0.390100  0.562000  0.593700  1
  B  B21  1  0.903800  0.911200  0.232100  1
  B  B22  1  0.096200  0.088800  0.767900  1
  B  B23  1  0.024000  0.728100  0.989400  1
  B  B24  1  0.976000  0.271900  0.010600  1
  H  H25  1  0.405300  0.806200  0.210800  1
  H  H26  1  0.594700  0.193800  0.789200  1
  H  H27  1  0.297700  0.746700  0.254000  1
  H  H28  1  0.702300  0.253300  0.746000  1
  H  H29  1  0.221200  0.808600  0.293900  1
  H  H30  1  0.778800  0.191400  0.706100  1
  H  H31  1  0.275300  0.930900  0.294000  1
  H  H32  1  0.724700  0.069100  0.706000  1
  H  H33  1  0.361000  0.030000  0.256700  1
  H  H34  1  0.639000  0.970000  0.743300  1
  H  H35  1  0.438500  0.083900  0.130700  1
  H  H36  1  0.561500  0.916100  0.869300  1
  H  H37  1  0.480900  0.195200  0.122200  1
  H  H38  1  0.519100  0.804800  0.877800  1
  H  H39  1  0.496200  0.132200  0.277400  1
  H  H40  1  0.503800  0.867800  0.722600  1
  H  H41  1  0.577600  0.256200  0.315000  1
  H  H42  1  0.422400  0.743800  0.685000  1
  H  H43  1  0.630800  0.371600  0.307100  1
  H  H44  1  0.369200  0.628400  0.692900  1
  H  H45  1  0.562900  0.320700  0.159000  1
  H  H46  1  0.437100  0.679300  0.841000  1
  H  H47  1  0.572700  0.453700  0.271800  1
  H  H48  1  0.427300  0.546300  0.728200  1
  H  H49  1  0.596000  0.580900  0.300000  1
  H  H50  1  0.404000  0.419100  0.700000  1
  H  H51  1  0.664200  0.692900  0.290000  1
  H  H52  1  0.335800  0.307100  0.710000  1
  H  H53  1  0.764300  0.725100  0.241000  1
  H  H54  1  0.235700  0.274900  0.759000  1
  H  H55  1  0.790400  0.638800  0.190700  1
  H  H56  1  0.209600  0.361200  0.809300  1
  H  H57  1  0.464600  0.819300  0.104300  1
  H  H58  1  0.535400  0.180700  0.895700  1
  H  H59  1  0.540300  0.746800  0.094700  1
  H  H60  1  0.459700  0.253200  0.905300  1
  H  H61  1  0.656600  0.754400  0.154100  1
  H  H62  1  0.343400  0.245600  0.845900  1
  H  H63  1  0.705900  0.848500  0.221300  1
  H  H64  1  0.294100  0.151500  0.778700  1
  H  H65  1  0.683800  0.952300  0.262100  1
  H  H66  1  0.316200  0.047700  0.737900  1
  H  H67  1  0.685600  0.114000  0.223700  1
  H  H68  1  0.314400  0.886000  0.776300  1
  H  H69  1  0.733300  0.216500  0.280500  1
  H  H70  1  0.266700  0.783500  0.719500  1
  H  H71  1  0.581100  0.996200  0.323900  1
  H  H72  1  0.418900  0.003800  0.676100  1
  H  H73  1  0.596900  0.057300  0.404600  1
  H  H74  1  0.403100  0.942700  0.595400  1
  H  H75  1  0.661400  0.161700  0.467600  1
  H  H76  1  0.338600  0.838300  0.532400  1
  H  H77  1  0.772400  0.273800  0.367500  1
  H  H78  1  0.227600  0.726200  0.632500  1
  H  H79  1  0.684100  0.325000  0.450900  1
  H  H80  1  0.315900  0.675000  0.549100  1
  H  H81  1  0.695500  0.430400  0.507900  1
  H  H82  1  0.304500  0.569600  0.492100  1
  H  H83  1  0.758100  0.497500  0.587900  1
  H  H84  1  0.241900  0.502500  0.412100  1
  H  H85  1  0.888300  0.492700  0.630700  1
  H  H86  1  0.111700  0.507300  0.369300  1
  H  H87  1  0.948200  0.418900  0.596200  1
  H  H88  1  0.051800  0.581100  0.403800  1
  H  H89  1  0.280000  0.848300  0.141100  1
  H  H90  1  0.720000  0.151700  0.858900  1
  H  H91  1  0.173500  0.819100  0.075400  1
  H  H92  1  0.826500  0.180900  0.924600  1
  H  H93  1  0.203700  0.857400  0.004000  1
  H  H94  1  0.796300  0.142600  0.996000  1
  H  H95  1  0.347500  0.942800  0.003100  1
  H  H96  1  0.652500  0.057200  0.996900  1
  H  H97  1  0.507400  0.006300  0.050700  1
  H  H98  1  0.492600  0.993700  0.949300  1
  H  H99  1  0.621000  0.126300  0.100800  1
  H  H100  1  0.379000  0.873700  0.899200  1
  H  H101  1  0.768900  0.189200  0.098500  1
  H  H102  1  0.231100  0.810800  0.901500  1
  H  H103  1  0.678000  0.967300  0.136500  1
  H  H104  1  0.322000  0.032700  0.863500  1
  H  H105  1  0.835700  0.975600  0.151400  1
  H  H106  1  0.164300  0.024400  0.848600  1
  H  H107  1  0.983400  0.038900  0.151500  1
  H  H108  1  0.016600  0.961100  0.848500  1
  H  H109  1  0.923600  0.194600  0.106100  1
  H  H110  1  0.076400  0.805400  0.893900  1
  H  H111  1  0.049800  0.186300  0.068700  1
  H  H112  1  0.950200  0.813700  0.931300  1
  H  H113  1  0.176700  0.249000  0.032700  1
  H  H114  1  0.823300  0.751000  0.967300  1
  H  H115  1  0.337400  0.314600  0.040900  1
  H  H116  1  0.662600  0.685400  0.959100  1
  H  H117  1  0.421400  0.333700  0.118800  1
  H  H118  1  0.578600  0.666300  0.881200  1
  H  H119  1  0.358200  0.284500  0.181600  1
  H  H120  1  0.641800  0.715500  0.818400  1
  H  H121  1  0.976300  0.286800  0.616600  1
  H  H122  1  0.023700  0.713200  0.383400  1
  H  H123  1  0.124400  0.316100  0.657800  1
  H  H124  1  0.875600  0.683900  0.342200  1
  H  H125  1  0.244500  0.376200  0.623500  1
  H  H126  1  0.755500  0.623800  0.376500  1
  H  H127  1  0.218200  0.403900  0.542200  1
  H  H128  1  0.781800  0.596100  0.457800  1
  H  H129  1  0.107900  0.396100  0.470300  1
  H  H130  1  0.892100  0.603900  0.529700  1
  H  H131  1  0.881500  0.421300  0.440900  1
  H  H132  1  0.118500  0.578700  0.559100  1
  H  H133  1  0.008000  0.356200  0.311100  1
  H  H134  1  0.992000  0.643800  0.688900  1
  H  H135  1  0.038400  0.330800  0.385900  1
  H  H136  1  0.961600  0.669200  0.614100  1
  H  H137  1  0.809200  0.481700  0.384600  1
  H  H138  1  0.190800  0.518300  0.615400  1
  H  H139  1  0.784500  0.510600  0.307500  1
  H  H140  1  0.215500  0.489400  0.692500  1
  H  H141  1  0.948000  0.423200  0.260100  1
  H  H142  1  0.052000  0.576800  0.739900  1
  H  H143  1  0.983600  0.538000  0.233300  1
  H  H144  1  0.016400  0.462000  0.766700  1
  H  H145  1  0.050500  0.603800  0.170300  1
  H  H146  1  0.949500  0.396200  0.829700  1
  H  H147  1  0.028600  0.647400  0.095900  1
  H  H148  1  0.971400  0.352600  0.904100  1
  H  H149  1  0.880600  0.617000  0.055200  1
  H  H150  1  0.119400  0.383000  0.944800  1
  H  H151  1  0.763800  0.549400  0.086600  1
  H  H152  1  0.236200  0.450600  0.913400  1
  H  H153  1  0.757500  0.272400  0.588900  1
  H  H154  1  0.242500  0.727600  0.411100  1
  H  H155  1  0.662100  0.180400  0.619300  1
  H  H156  1  0.337900  0.819600  0.380700  1
  H  H157  1  0.659700  0.072800  0.596300  1
  H  H158  1  0.340300  0.927200  0.403700  1
  H  H159  1  0.754900  0.053500  0.542600  1
  H  H160  1  0.245100  0.946500  0.457400  1
  H  H161  1  0.855900  0.108800  0.486400  1
  H  H162  1  0.144100  0.891200  0.513600  1
  H  H163  1  0.074500  0.238100  0.483600  1
  H  H164  1  0.925500  0.761900  0.516400  1
  H  H165  1  0.154000  0.228500  0.422100  1
  H  H166  1  0.846000  0.771500  0.577900  1
  H  H167  1  0.841300  0.149800  0.389100  1
  H  H168  1  0.158700  0.850200  0.610900  1
  H  H169  1  0.156100  0.185000  0.335900  1
  H  H170  1  0.843900  0.815000  0.664100  1
  H  H171  1  0.920400  0.096800  0.244000  1
  H  H172  1  0.079600  0.903200  0.756000  1
  H  H173  1  0.847500  0.118400  0.299900  1
  H  H174  1  0.152500  0.881600  0.700100  1
  H  H175  1  0.076500  0.037200  0.265300  1
  H  H176  1  0.923500  0.962800  0.734700  1
  H  H177  1  0.116000  0.949800  0.217400  1
  H  H178  1  0.884000  0.050200  0.782600  1
  H  H179  1  0.185200  0.920600  0.156700  1
  H  H180  1  0.814800  0.079400  0.843300  1
  H  H181  1  0.260800  0.005200  0.112700  1
  H  H182  1  0.739200  0.994800  0.887300  1
  H  H183  1  0.256700  0.118200  0.127600  1
  H  H184  1  0.743300  0.881800  0.872400  1
  H  H185  1  0.577000  0.515900  0.132800  1
  H  H186  1  0.423000  0.484100  0.867200  1
  H  H187  1  0.478500  0.485800  0.059300  1
  H  H188  1  0.521500  0.514200  0.940700  1
  H  H189  1  0.482600  0.406000  0.996900  1
  H  H190  1  0.517400  0.594000  0.003100  1
  H  H191  1  0.577800  0.345400  0.017600  1
  H  H192  1  0.422200  0.654600  0.982400  1
  H  H193  1  0.701100  0.333700  0.075300  1
  H  H194  1  0.298900  0.666300  0.924700  1
  H  H195  1  0.724300  0.293400  0.197400  1
  H  H196  1  0.275700  0.706600  0.802600  1
  H  H197  1  0.825400  0.245900  0.224300  1
  H  H198  1  0.174600  0.754100  0.775700  1
  H  H199  1  0.894200  0.401700  0.114500  1
  H  H200  1  0.105800  0.598300  0.885500  1
  H  H201  1  0.048800  0.405000  0.127100  1
  H  H202  1  0.951200  0.595000  0.872900  1
  H  H203  1  0.151400  0.365200  0.155700  1
  H  H204  1  0.848600  0.634800  0.844300  1
  H  H205  1  0.981100  0.247700  0.234400  1
  H  H206  1  0.018900  0.752300  0.765600  1
  H  H207  1  0.199800  0.361900  0.271000  1
  H  H208  1  0.800200  0.638100  0.729000  1
  H  H209  1  0.313500  0.373800  0.340700  1
  H  H210  1  0.686500  0.626200  0.659300  1
  H  H211  1  0.420100  0.334900  0.375800  1
  H  H212  1  0.579900  0.665100  0.624200  1
  H  H213  1  0.427700  0.236700  0.338900  1
  H  H214  1  0.572300  0.763300  0.661100  1
  H  H215  1  0.320900  0.170200  0.264800  1
  H  H216  1  0.679100  0.829800  0.735200  1
  H  H217  1  0.381400  0.195700  0.986300  1
  H  H218  1  0.618600  0.804300  0.013700  1
  H  H219  1  0.275400  0.159200  0.973000  1
  H  H220  1  0.724600  0.840800  0.027000  1
  H  H221  1  0.336000  0.128100  0.946000  1
  H  H222  1  0.664000  0.871900  0.054000  1
  H  H223  1  0.270100  0.578600  0.239200  1
  H  H224  1  0.729900  0.421400  0.760800  1
  H  H225  1  0.166900  0.564400  0.223800  1
  H  H226  1  0.833100  0.435600  0.776200  1
  H  H227  1  0.207700  0.513900  0.199000  1
  H  H228  1  0.792300  0.486100  0.801000  1
  H  H229  1  0.971000  0.742500  0.232400  1
  H  H230  1  0.029000  0.257500  0.767600  1
  H  H231  1  0.933200  0.709800  0.176200  1
  H  H232  1  0.066800  0.290200  0.823800  1
  H  H233  1  0.941900  0.786300  0.195300  1
  H  H234  1  0.058100  0.213700  0.804700  1
  C  C235  1  0.376600  0.831200  0.227400  1
  C  C236  1  0.623400  0.168800  0.772600  1
  C  C237  1  0.311800  0.794100  0.253000  1
  C  C238  1  0.688200  0.205900  0.747000  1
  C  C239  1  0.268400  0.830900  0.277300  1
  C  C240  1  0.731600  0.169100  0.722700  1
  C  C241  1  0.298700  0.903100  0.275900  1
  C  C242  1  0.701300  0.096900  0.724100  1
  C  C243  1  0.361100  0.931800  0.248500  1
  C  C244  1  0.638900  0.068200  0.751500  1
  C  C245  1  0.384500  0.001300  0.239600  1
  C  C246  1  0.615500  0.998700  0.760400  1
  C  C247  1  0.464100  0.098400  0.205500  1
  C  C248  1  0.535900  0.901600  0.794500  1
  C  C249  1  0.460600  0.118200  0.158900  1
  C  C250  1  0.539400  0.881800  0.841100  1
  C  C251  1  0.487700  0.183600  0.153900  1
  C  C252  1  0.512300  0.816400  0.846100  1
  C  C253  1  0.527200  0.238000  0.195100  1
  C  C254  1  0.472800  0.762000  0.804900  1
  C  C255  1  0.532300  0.217900  0.243500  1
  C  C256  1  0.467700  0.782100  0.756500  1
  C  C257  1  0.496900  0.146500  0.246300  1
  C  C258  1  0.503100  0.853500  0.753700  1
  C  C259  1  0.572600  0.268800  0.283500  1
  C  C260  1  0.427400  0.731200  0.716500  1
  C  C261  1  0.605600  0.337200  0.279000  1
  C  C262  1  0.394400  0.662800  0.721000  1
  C  C263  1  0.601600  0.355900  0.231600  1
  C  C264  1  0.398400  0.644100  0.768400  1
  C  C265  1  0.563900  0.307300  0.190400  1
  C  C266  1  0.436100  0.692700  0.809600  1
  C  C267  1  0.615400  0.469000  0.251100  1
  C  C268  1  0.384600  0.531000  0.748900  1
  C  C269  1  0.656900  0.544900  0.248600  1
  C  C270  1  0.343100  0.455100  0.751400  1
  C  C271  1  0.636300  0.593600  0.277700  1
  C  C272  1  0.363700  0.406400  0.722300  1
  C  C273  1  0.677400  0.658500  0.271800  1
  C  C274  1  0.322600  0.341500  0.728200  1
  C  C275  1  0.734200  0.677800  0.242700  1
  C  C276  1  0.265800  0.322200  0.757300  1
  C  C277  1  0.750600  0.625900  0.213200  1
  C  C278  1  0.249400  0.374100  0.786800  1
  C  C279  1  0.514200  0.825200  0.128300  1
  C  C280  1  0.485800  0.174800  0.871700  1
  C  C281  1  0.558700  0.781000  0.122800  1
  C  C282  1  0.441300  0.219000  0.877200  1
  C  C283  1  0.627800  0.785900  0.156800  1
  C  C284  1  0.372200  0.214100  0.843200  1
  C  C285  1  0.655700  0.840900  0.197200  1
  C  C286  1  0.344300  0.159100  0.802800  1
  C  C287  1  0.605800  0.884600  0.200400  1
  C  C288  1  0.394200  0.115400  0.799600  1
  C  C289  1  0.636600  0.944700  0.236000  1
  C  C290  1  0.363400  0.055300  0.764000  1
  C  C291  1  0.630700  0.050400  0.270700  1
  C  C292  1  0.369300  0.949600  0.729300  1
  C  C293  1  0.675600  0.112500  0.256300  1
  C  C294  1  0.324400  0.887500  0.743700  1
  C  C295  1  0.706200  0.172900  0.290000  1
  C  C296  1  0.293800  0.827100  0.710000  1
  C  C297  1  0.695800  0.167000  0.336800  1
  C  C298  1  0.304200  0.833000  0.663200  1
  C  C299  1  0.645900  0.106400  0.351800  1
  C  C300  1  0.354100  0.893600  0.648200  1
  C  C301  1  0.612100  0.040100  0.315700  1
  C  C302  1  0.387900  0.959900  0.684300  1
  C  C303  1  0.631600  0.100500  0.396600  1
  C  C304  1  0.368400  0.899500  0.603400  1
  C  C305  1  0.671200  0.163700  0.434900  1
  C  C306  1  0.328800  0.836300  0.565100  1
  C  C307  1  0.720900  0.223000  0.421700  1
  C  C308  1  0.279100  0.777000  0.578300  1
  C  C309  1  0.737000  0.230600  0.375200  1
  C  C310  1  0.263000  0.769400  0.624800  1
  C  C311  1  0.735200  0.324900  0.471000  1
  C  C312  1  0.264800  0.675100  0.529000  1
  C  C313  1  0.778200  0.376200  0.516200  1
  C  C314  1  0.221800  0.623800  0.483800  1
  C  C315  1  0.742600  0.425500  0.528600  1
  C  C316  1  0.257400  0.574500  0.471400  1
  C  C317  1  0.783200  0.467300  0.574500  1
  C  C318  1  0.216800  0.532700  0.425500  1
  C  C319  1  0.859900  0.464300  0.600100  1
  C  C320  1  0.140100  0.535700  0.399900  1
  C  C321  1  0.893900  0.418700  0.579700  1
  C  C322  1  0.106100  0.581300  0.420300  1
  C  C323  1  0.294500  0.868500  0.112900  1
  C  C324  1  0.705500  0.131500  0.887100  1
  C  C325  1  0.231800  0.850000  0.073800  1
  C  C326  1  0.768200  0.150000  0.926200  1
  C  C327  1  0.248400  0.873500  0.032400  1
  C  C328  1  0.751600  0.126500  0.967600  1
  C  C329  1  0.333100  0.922600  0.031300  1
  C  C330  1  0.666900  0.077400  0.968700  1
  C  C331  1  0.396900  0.940300  0.076000  1
  C  C332  1  0.603100  0.059700  0.924000  1
  C  C333  1  0.488600  0.985900  0.078200  1
  C  C334  1  0.511400  0.014100  0.921800  1
  C  C335  1  0.633700  0.037100  0.117800  1
  C  C336  1  0.366300  0.962900  0.882200  1
  C  C337  1  0.663500  0.106200  0.107300  1
  C  C338  1  0.336500  0.893800  0.892700  1
  C  C339  1  0.751100  0.144000  0.106300  1
  C  C340  1  0.248900  0.856000  0.893700  1
  C  C341  1  0.814600  0.114200  0.117100  1
  C  C342  1  0.185400  0.885800  0.882900  1
  C  C343  1  0.789600  0.050100  0.131200  1
  C  C344  1  0.210400  0.949900  0.868800  1
  C  C345  1  0.696300  0.012700  0.129200  1
  C  C346  1  0.303700  0.987300  0.870800  1
  C  C347  1  0.853700  0.020700  0.143500  1
  C  C348  1  0.146300  0.979300  0.856500  1
  C  C349  1  0.940700  0.058400  0.143500  1
  C  C350  1  0.059300  0.941600  0.856500  1
  C  C351  1  0.969900  0.125700  0.131900  1
  C  C352  1  0.030100  0.874300  0.868100  1
  C  C353  1  0.905700  0.151200  0.116800  1
  C  C354  1  0.094300  0.848800  0.883200  1
  C  C355  1  0.089900  0.191600  0.097800  1
  C  C356  1  0.910100  0.808400  0.902200  1
  C  C357  1  0.185200  0.232000  0.102000  1
  C  C358  1  0.814800  0.768000  0.898000  1
  C  C359  1  0.215800  0.257000  0.062700  1
  C  C360  1  0.784200  0.743000  0.937300  1
  C  C361  1  0.311000  0.296700  0.067500  1
  C  C362  1  0.689000  0.703300  0.932500  1
  C  C363  1  0.359500  0.306300  0.113000  1
  C  C364  1  0.640500  0.693700  0.887000  1
  C  C365  1  0.321000  0.277300  0.151000  1
  C  C366  1  0.679000  0.722700  0.849000  1
  C  C367  1  0.026000  0.309700  0.601900  1
  C  C368  1  0.974000  0.690300  0.398100  1
  C  C369  1  0.114600  0.328300  0.626500  1
  C  C370  1  0.885400  0.671700  0.373500  1
  C  C371  1  0.185700  0.363300  0.606200  1
  C  C372  1  0.814300  0.636700  0.393800  1
  C  C373  1  0.170700  0.380600  0.558200  1
  C  C374  1  0.829300  0.619400  0.441800  1
  C  C375  1  0.082900  0.361000  0.537200  1
  C  C376  1  0.917100  0.639000  0.462800  1
  C  C377  1  0.061900  0.375200  0.487900  1
  C  C378  1  0.938100  0.624800  0.512100  1
  C  C379  1  0.962300  0.373300  0.420800  1
  C  C380  1  0.037700  0.626700  0.579200  1
  C  C381  1  0.907800  0.409400  0.414700  1
  C  C382  1  0.092200  0.590600  0.585300  1
  C  C383  1  0.892000  0.428500  0.368000  1
  C  C384  1  0.108000  0.571500  0.632000  1
  C  C385  1  0.929800  0.410300  0.328700  1
  C  C386  1  0.070200  0.589700  0.671300  1
  C  C387  1  0.983800  0.370900  0.337200  1
  C  C388  1  0.016200  0.629100  0.662800  1
  C  C389  1  0.000300  0.355000  0.380900  1
  C  C390  1  0.999700  0.645000  0.619100  1
  C  C391  1  0.836100  0.468700  0.359200  1
  C  C392  1  0.163900  0.531300  0.640800  1
  C  C393  1  0.823400  0.487200  0.313900  1
  C  C394  1  0.176600  0.512800  0.686100  1
  C  C395  1  0.867000  0.471900  0.277400  1
  C  C396  1  0.133000  0.528100  0.722600  1
  C  C397  1  0.919100  0.433500  0.285400  1
  C  C398  1  0.080900  0.566500  0.714600  1
  C  C399  1  0.926300  0.529000  0.215500  1
  C  C400  1  0.073700  0.471000  0.784500  1
  C  C401  1  0.915500  0.552500  0.169800  1
  C  C402  1  0.084500  0.447500  0.830200  1
  C  C403  1  0.992500  0.593700  0.152900  1
  C  C404  1  0.007500  0.406300  0.847100  1
  C  C405  1  0.979500  0.619100  0.108900  1
  C  C406  1  0.020500  0.380900  0.891100  1
  C  C407  1  0.891400  0.601000  0.084900  1
  C  C408  1  0.108600  0.399000  0.915100  1
  C  C409  1  0.822200  0.560800  0.103900  1
  C  C410  1  0.177800  0.439200  0.896100  1
  C  C411  1  0.755700  0.227600  0.579100  1
  C  C412  1  0.244300  0.772400  0.420900  1
  C  C413  1  0.699200  0.173400  0.597600  1
  C  C414  1  0.300800  0.826600  0.402400  1
  C  C415  1  0.698500  0.110500  0.583900  1
  C  C416  1  0.301500  0.889500  0.416100  1
  C  C417  1  0.753700  0.097700  0.551400  1
  C  C418  1  0.246300  0.902300  0.448600  1
  C  C419  1  0.805300  0.155500  0.533900  1
  C  C420  1  0.194700  0.844500  0.466100  1
  C  C421  1  0.856000  0.152600  0.498000  1
  C  C422  1  0.144000  0.847400  0.502000  1
  C  C423  1  0.950700  0.195400  0.441800  1
  C  C424  1  0.049300  0.804600  0.558200  1
  C  C425  1  0.043500  0.218300  0.451400  1
  C  C426  1  0.956500  0.781700  0.548600  1
  C  C427  1  0.091000  0.212600  0.414700  1
  C  C428  1  0.909000  0.787400  0.585300  1
  C  C429  1  0.047400  0.183800  0.367000  1
  C  C430  1  0.952600  0.816200  0.633000  1
  C  C431  1  0.954100  0.161500  0.356700  1
  C  C432  1  0.045900  0.838500  0.643300  1
  C  C433  1  0.904400  0.166300  0.395600  1
  C  C434  1  0.095600  0.833700  0.604400  1
  C  C435  1  0.093400  0.172000  0.329000  1
  C  C436  1  0.906600  0.828000  0.671000  1
  C  C437  1  0.049100  0.142800  0.284200  1
  C  C438  1  0.950900  0.857200  0.715800  1
  C  C439  1  0.952600  0.120400  0.275500  1
  C  C440  1  0.047400  0.879600  0.724500  1
  C  C441  1  0.909900  0.131000  0.308100  1
  C  C442  1  0.090100  0.869000  0.691900  1
  C  C443  1  0.100900  0.067600  0.243400  1
  C  C444  1  0.899100  0.932400  0.756600  1
  C  C445  1  0.146400  0.047500  0.207100  1
  C  C446  1  0.853600  0.952500  0.792900  1
  C  C447  1  0.145600  0.983200  0.198500  1
  C  C448  1  0.854400  0.016800  0.801500  1
  C  C449  1  0.186400  0.965900  0.163200  1
  C  C450  1  0.813600  0.034100  0.836800  1
  C  C451  1  0.229800  0.015600  0.136900  1
  C  C452  1  0.770200  0.984400  0.863100  1
  C  C453  1  0.228300  0.083800  0.146100  1
  C  C454  1  0.771700  0.916200  0.853900  1
  C  C455  1  0.577300  0.480800  0.108900  1
  C  C456  1  0.422700  0.519200  0.891100  1
  C  C457  1  0.519000  0.463600  0.064300  1
  C  C458  1  0.481000  0.536400  0.935700  1
  C  C459  1  0.519000  0.416000  0.028100  1
  C  C460  1  0.481000  0.584000  0.971900  1
  C  C461  1  0.577200  0.382000  0.040000  1
  C  C462  1  0.422800  0.618000  0.960000  1
  C  C463  1  0.631100  0.402500  0.083300  1
  C  C464  1  0.368900  0.597500  0.916700  1
  C  C465  1  0.695600  0.368300  0.097600  1
  C  C466  1  0.304400  0.631700  0.902400  1
  C  C467  1  0.802400  0.355100  0.155500  1
  C  C468  1  0.197600  0.644900  0.844500  1
  C  C469  1  0.780600  0.307200  0.187300  1
  C  C470  1  0.219400  0.692800  0.812700  1
  C  C471  1  0.841500  0.280300  0.204000  1
  C  C472  1  0.158500  0.719700  0.796000  1
  C  C473  1  0.926600  0.302300  0.191700  1
  C  C474  1  0.073400  0.697700  0.808300  1
  C  C475  1  0.950400  0.350200  0.159000  1
  C  C476  1  0.049600  0.649800  0.841000  1
  C  C477  1  0.883200  0.373400  0.139100  1
  C  C478  1  0.116800  0.626600  0.860900  1
  C  C479  1  0.033800  0.371800  0.148300  1
  C  C480  1  0.966200  0.628200  0.851700  1
  C  C481  1  0.094600  0.350100  0.165200  1
  C  C482  1  0.905400  0.649900  0.834800  1
  C  C483  1  0.071100  0.301000  0.199900  1
  C  C484  1  0.928900  0.699000  0.800100  1
  C  C485  1  0.994000  0.279300  0.212000  1
  C  C486  1  0.006000  0.720700  0.788000  1
  C  C487  1  0.199500  0.318200  0.259000  1
  C  C488  1  0.800500  0.681800  0.741000  1
  C  C489  1  0.262800  0.295000  0.281600  1
  C  C490  1  0.737200  0.705000  0.718400  1
  C  C491  1  0.318600  0.333400  0.325800  1
  C  C492  1  0.681400  0.666600  0.674200  1
  C  C493  1  0.380500  0.310100  0.346400  1
  C  C494  1  0.619500  0.689900  0.653600  1
  C  C495  1  0.384500  0.252800  0.325000  1
  C  C496  1  0.615500  0.747200  0.675000  1
  C  C497  1  0.321400  0.213100  0.279000  1
  C  C498  1  0.678600  0.786900  0.721000  1
  C  C499  1  0.331200  0.108200  0.015300  1
  C  C500  1  0.668800  0.891800  0.984700  1
  C  C501  1  0.331000  0.151500  0.976900  1
  C  C502  1  0.669000  0.848500  0.023100  1
  C  C503  1  0.189100  0.500800  0.267400  1
  C  C504  1  0.810900  0.499200  0.732600  1
  C  C505  1  0.210200  0.542800  0.229200  1
  C  C506  1  0.789800  0.457200  0.770800  1
  C  C507  1  0.066800  0.781700  0.187300  1
  C  C508  1  0.933200  0.218300  0.812700  1
  C  C509  1  0.969000  0.752300  0.198900  1
  C  C510  1  0.031000  0.247700  0.801100  1
  N  N511  1  0.402600  0.897900  0.223900  1
  N  N512  1  0.597400  0.102100  0.776100  1
  N  N513  1  0.435200  0.025600  0.209800  1
  N  N514  1  0.564800  0.974400  0.790200  1
  N  N515  1  0.635500  0.426500  0.227000  1
  N  N516  1  0.364500  0.573500  0.773000  1
  N  N517  1  0.710800  0.559900  0.216900  1
  N  N518  1  0.289200  0.440100  0.783100  1
  N  N519  1  0.538100  0.874100  0.165300  1
  N  N520  1  0.461900  0.125900  0.834700  1
  N  N521  1  0.600500  0.987600  0.232700  1
  N  N522  1  0.399500  0.012400  0.767300  1
  N  N523  1  0.767500  0.282000  0.460300  1
  N  N524  1  0.232500  0.718000  0.539700  1
  N  N525  1  0.855000  0.374800  0.538600  1
  N  N526  1  0.145000  0.625200  0.461400  1
  N  N527  1  0.374500  0.912800  0.114900  1
  N  N528  1  0.625500  0.087200  0.885100  1
  N  N529  1  0.543700  0.998200  0.117700  1
  N  N530  1  0.456300  0.001800  0.882300  1
  N  N531  1  0.061300  0.163000  0.134900  1
  N  N532  1  0.938700  0.837000  0.865100  1
  N  N533  1  0.233200  0.239300  0.146700  1
  N  N534  1  0.766800  0.760700  0.853300  1
  N  N535  1  0.015400  0.326000  0.556700  1
  N  N536  1  0.984600  0.674000  0.443300  1
  N  N537  1  0.980500  0.358900  0.469200  1
  N  N538  1  0.019500  0.641100  0.530800  1
  N  N539  1  0.856800  0.496000  0.231200  1
  N  N540  1  0.143200  0.504000  0.768800  1
  N  N541  1  0.830900  0.536300  0.145500  1
  N  N542  1  0.169100  0.463700  0.854500  1
  N  N543  1  0.808900  0.219400  0.547200  1
  N  N544  1  0.191100  0.780600  0.452800  1
  N  N545  1  0.902500  0.203100  0.479200  1
  N  N546  1  0.097500  0.796900  0.520800  1
  N  N547  1  0.093200  0.125300  0.246100  1
  N  N548  1  0.906800  0.874700  0.753900  1
  N  N549  1  0.185500  0.097300  0.181400  1
  N  N550  1  0.814500  0.902700  0.818600  1
  N  N551  1  0.632000  0.450000  0.118600  1
  N  N552  1  0.368000  0.550000  0.881400  1
  N  N553  1  0.740800  0.387000  0.139300  1
  N  N554  1  0.259200  0.613000  0.860700  1
  N  N555  1  0.142300  0.280200  0.222600  1
  N  N556  1  0.857700  0.719800  0.777400  1
  N  N557  1  0.266700  0.239200  0.258700  1
  N  N558  1  0.733300  0.760800  0.741300  1
  N  N559  1  0.331100  0.078800  0.045500  1
  N  N560  1  0.668900  0.921200  0.954500  1
  N  N561  1  0.181200  0.466500  0.296800  1
  N  N562  1  0.818800  0.533500  0.703200  1
  N  N563  1  0.119400  0.796100  0.167800  1
  N  N564  1  0.880600  0.203900  0.832200  1
  F  F565  1  0.680000  0.718400  0.054300  1
  F  F566  1  0.320000  0.281600  0.945700  1
  F  F567  1  0.601900  0.639200  0.086200  1
  F  F568  1  0.398100  0.360800  0.913800  1
  F  F569  1  0.686500  0.612200  0.039300  1
  F  F570  1  0.313500  0.387800  0.960700  1
  F  F571  1  0.748000  0.680400  0.113800  1
  F  F572  1  0.252000  0.319600  0.886200  1
  F  F573  1  0.658200  0.217800  0.037100  1
  F  F574  1  0.341800  0.782200  0.962900  1
  F  F575  1  0.532800  0.224100  0.049900  1
  F  F576  1  0.467200  0.775900  0.950100  1
  F  F577  1  0.572400  0.232700  0.975500  1
  F  F578  1  0.427600  0.767300  0.024500  1
  F  F579  1  0.527300  0.130300  0.003600  1
  F  F580  1  0.472700  0.869700  0.996400  1
  F  F581  1  0.451300  0.466800  0.182500  1
  F  F582  1  0.548700  0.533200  0.817500  1
  F  F583  1  0.410700  0.513700  0.245800  1
  F  F584  1  0.589300  0.486300  0.754200  1
  F  F585  1  0.407600  0.403100  0.236200  1
  F  F586  1  0.592400  0.596900  0.763800  1
  F  F587  1  0.307300  0.430700  0.196000  1
  F  F588  1  0.692700  0.569300  0.804000  1
  F  F589  1  0.055500  0.611200  0.316300  1
  F  F590  1  0.944500  0.388800  0.683700  1
  F  F591  1  0.107100  0.726700  0.323700  1
  F  F592  1  0.892900  0.273300  0.676300  1
  F  F593  1  0.970900  0.663200  0.280800  1
  F  F594  1  0.029100  0.336800  0.719200  1
  F  F595  1  0.115700  0.663300  0.255600  1
  F  F596  1  0.884300  0.336700  0.744400  1
  F  F597  1  0.247500  0.044100  0.308000  1
  F  F598  1  0.752500  0.955900  0.692000  1
  F  F599  1  0.276400  0.023300  0.380200  1
  F  F600  1  0.723600  0.976700  0.619800  1
  F  F601  1  0.264800  0.120500  0.369700  1
  F  F602  1  0.735200  0.879500  0.630300  1
  F  F603  1  0.379100  0.100000  0.351000  1
  F  F604  1  0.620900  0.900000  0.649000  1
  F  F605  1  0.631900  0.474500  0.369300  1
  F  F606  1  0.368100  0.525500  0.630700  1
  F  F607  1  0.610300  0.374400  0.397600  1
  F  F608  1  0.389700  0.625600  0.602400  1
  F  F609  1  0.533200  0.439300  0.418800  1
  F  F610  1  0.466800  0.560700  0.581200  1
  F  F611  1  0.682000  0.481100  0.439800  1
  F  F612  1  0.318000  0.518900  0.560200  1
  F  F613  1  0.850700  0.946000  0.242800  1
  F  F614  1  0.149300  0.054000  0.757200  1
  F  F615  1  0.936000  0.929200  0.190500  1
  F  F616  1  0.064000  0.070800  0.809500  1
  F  F617  1  0.850100  0.842200  0.225000  1
  F  F618  1  0.149900  0.157800  0.775000  1
  F  F619  1  0.972700  0.925400  0.269000  1
  F  F620  1  0.027300  0.074600  0.731000  1
  F  F621  1  0.048400  0.704300  0.030700  1
  F  F622  1  0.951600  0.295700  0.969300  1
  F  F623  1  0.934300  0.686000  0.969500  1
  F  F624  1  0.065700  0.314000  0.030500  1
  F  F625  1  0.078300  0.725500  0.958900  1
  F  F626  1  0.921700  0.274500  0.041100  1
  F  F627  1  0.023600  0.794900  0.001100  1
  F  F628  1  0.976400  0.205100  0.998900  1
