# generated using pymatgen
data_H44Pd3(C13N5)4
_symmetry_space_group_name_H-M   'P 1'
_cell_length_a   25.30680000
_cell_length_b   25.30680000
_cell_length_c   27.26510000
_cell_angle_alpha   90.00000000
_cell_angle_beta   90.00000000
_cell_angle_gamma   120.00000000
_symmetry_Int_Tables_number   1
_chemical_formula_structural   H44Pd3(C13N5)4
_chemical_formula_sum   'H264 Pd18 C312 N120'
_cell_volume   15122.10301716
_cell_formula_units_Z   6
loop_
 _symmetry_equiv_pos_site_id
 _symmetry_equiv_pos_as_xyz
  1  'x, y, z'
loop_
 _atom_site_type_symbol
 _atom_site_label
 _atom_site_symmetry_multiplicity
 _atom_site_fract_x
 _atom_site_fract_y
 _atom_site_fract_z
 _atom_site_occupancy
  H  H1  1  0.634500  0.708100  0.296300  1.0
  H  H2  1  0.291900  0.926400  0.203700  1.0
  H  H3  1  0.073600  0.365500  0.296300  1.0
  H  H4  1  0.634500  0.708100  0.203700  1.0
  H  H5  1  0.291900  0.926400  0.296300  1.0
  H  H6  1  0.073600  0.365500  0.203700  1.0
  H  H7  1  0.708100  0.634500  0.703700  1.0
  H  H8  1  0.365500  0.073600  0.703700  1.0
  H  H9  1  0.926400  0.291900  0.703700  1.0
  H  H10  1  0.926400  0.291900  0.796300  1.0
  H  H11  1  0.708100  0.634500  0.796300  1.0
  H  H12  1  0.365500  0.073600  0.796300  1.0
  H  H13  1  0.806200  0.789700  0.320300  1.0
  H  H14  1  0.210300  0.016500  0.179700  1.0
  H  H15  1  0.983500  0.193800  0.320300  1.0
  H  H16  1  0.806200  0.789700  0.179700  1.0
  H  H17  1  0.210300  0.016500  0.320300  1.0
  H  H18  1  0.983500  0.193800  0.179700  1.0
  H  H19  1  0.789700  0.806200  0.679700  1.0
  H  H20  1  0.193800  0.983500  0.679700  1.0
  H  H21  1  0.016500  0.210300  0.679700  1.0
  H  H22  1  0.016500  0.210300  0.820300  1.0
  H  H23  1  0.789700  0.806200  0.820300  1.0
  H  H24  1  0.193800  0.983500  0.820300  1.0
  H  H25  1  0.396800  0.302500  0.370700  1.0
  H  H26  1  0.697500  0.094300  0.129300  1.0
  H  H27  1  0.905700  0.603200  0.370700  1.0
  H  H28  1  0.396800  0.302500  0.129300  1.0
  H  H29  1  0.697500  0.094300  0.370700  1.0
  H  H30  1  0.905700  0.603200  0.129300  1.0
  H  H31  1  0.302500  0.396800  0.629300  1.0
  H  H32  1  0.603200  0.905700  0.629300  1.0
  H  H33  1  0.094300  0.697500  0.629300  1.0
  H  H34  1  0.094300  0.697500  0.870700  1.0
  H  H35  1  0.302500  0.396800  0.870700  1.0
  H  H36  1  0.603200  0.905700  0.870700  1.0
  H  H37  1  0.598900  0.392300  0.310700  1.0
  H  H38  1  0.607700  0.206600  0.189300  1.0
  H  H39  1  0.793400  0.401100  0.310700  1.0
  H  H40  1  0.598900  0.392300  0.189300  1.0
  H  H41  1  0.607700  0.206600  0.310700  1.0
  H  H42  1  0.793400  0.401100  0.189300  1.0
  H  H43  1  0.392300  0.598900  0.689300  1.0
  H  H44  1  0.401100  0.793400  0.689300  1.0
  H  H45  1  0.206600  0.607700  0.689300  1.0
  H  H46  1  0.206600  0.607700  0.810700  1.0
  H  H47  1  0.392300  0.598900  0.810700  1.0
  H  H48  1  0.401100  0.793400  0.810700  1.0
  H  H49  1  0.254900  0.354500  0.475000  1.0
  H  H50  1  0.645500  0.900400  0.025000  1.0
  H  H51  1  0.099600  0.745100  0.475000  1.0
  H  H52  1  0.254900  0.354500  0.025000  1.0
  H  H53  1  0.645500  0.900400  0.475000  1.0
  H  H54  1  0.099600  0.745100  0.025000  1.0
  H  H55  1  0.354500  0.254900  0.525000  1.0
  H  H56  1  0.745100  0.099600  0.525000  1.0
  H  H57  1  0.900400  0.645500  0.525000  1.0
  H  H58  1  0.900400  0.645500  0.975000  1.0
  H  H59  1  0.354500  0.254900  0.975000  1.0
  H  H60  1  0.745100  0.099600  0.975000  1.0
  H  H61  1  0.312700  0.468400  0.501100  1.0
  H  H62  1  0.531600  0.844300  0.998900  1.0
  H  H63  1  0.155700  0.687300  0.501100  1.0
  H  H64  1  0.312700  0.468400  0.998900  1.0
  H  H65  1  0.531600  0.844300  0.501100  1.0
  H  H66  1  0.155700  0.687300  0.998900  1.0
  H  H67  1  0.468400  0.312700  0.498900  1.0
  H  H68  1  0.687300  0.155700  0.498900  1.0
  H  H69  1  0.844300  0.531600  0.498900  1.0
  H  H70  1  0.844300  0.531600  0.001100  1.0
  H  H71  1  0.468400  0.312700  0.001100  1.0
  H  H72  1  0.687300  0.155700  0.001100  1.0
  H  H73  1  0.611500  0.623100  0.349700  1.0
  H  H74  1  0.376900  0.988400  0.150300  1.0
  H  H75  1  0.011600  0.388500  0.349700  1.0
  H  H76  1  0.611500  0.623100  0.150300  1.0
  H  H77  1  0.376900  0.988400  0.349700  1.0
  H  H78  1  0.011600  0.388500  0.150300  1.0
  H  H79  1  0.623100  0.611500  0.650300  1.0
  H  H80  1  0.388500  0.011600  0.650300  1.0
  H  H81  1  0.988400  0.376900  0.650300  1.0
  H  H82  1  0.988400  0.376900  0.849700  1.0
  H  H83  1  0.623100  0.611500  0.849700  1.0
  H  H84  1  0.388500  0.011600  0.849700  1.0
  H  H85  1  0.799600  0.717100  0.379600  1.0
  H  H86  1  0.282900  0.082500  0.120400  1.0
  H  H87  1  0.917500  0.200400  0.379600  1.0
  H  H88  1  0.799600  0.717100  0.120400  1.0
  H  H89  1  0.282900  0.082500  0.379600  1.0
  H  H90  1  0.917500  0.200400  0.120400  1.0
  H  H91  1  0.717100  0.799600  0.620400  1.0
  H  H92  1  0.200400  0.917500  0.620400  1.0
  H  H93  1  0.082500  0.282900  0.620400  1.0
  H  H94  1  0.082500  0.282900  0.879600  1.0
  H  H95  1  0.717100  0.799600  0.879600  1.0
  H  H96  1  0.200400  0.917500  0.879600  1.0
  H  H97  1  0.657800  0.500700  0.349400  1.0
  H  H98  1  0.499300  0.157100  0.150600  1.0
  H  H99  1  0.842900  0.342200  0.349400  1.0
  H  H100  1  0.657800  0.500700  0.150600  1.0
  H  H101  1  0.499300  0.157100  0.349400  1.0
  H  H102  1  0.842900  0.342200  0.150600  1.0
  H  H103  1  0.500700  0.657800  0.650600  1.0
  H  H104  1  0.342200  0.842900  0.650600  1.0
  H  H105  1  0.157100  0.499300  0.650600  1.0
  H  H106  1  0.157100  0.499300  0.849400  1.0
  H  H107  1  0.500700  0.657800  0.849400  1.0
  H  H108  1  0.342200  0.842900  0.849400  1.0
  H  H109  1  0.520700  0.288300  0.290500  1.0
  H  H110  1  0.711700  0.232400  0.209500  1.0
  H  H111  1  0.767600  0.479300  0.290500  1.0
  H  H112  1  0.520700  0.288300  0.209500  1.0
  H  H113  1  0.711700  0.232400  0.290500  1.0
  H  H114  1  0.767600  0.479300  0.209500  1.0
  H  H115  1  0.288300  0.520700  0.709500  1.0
  H  H116  1  0.479300  0.767600  0.709500  1.0
  H  H117  1  0.232400  0.711700  0.709500  1.0
  H  H118  1  0.232400  0.711700  0.790500  1.0
  H  H119  1  0.288300  0.520700  0.790500  1.0
  H  H120  1  0.479300  0.767600  0.790500  1.0
  H  H121  1  0.429200  0.240800  0.326200  1.0
  H  H122  1  0.759200  0.188400  0.173800  1.0
  H  H123  1  0.811600  0.570800  0.326200  1.0
  H  H124  1  0.429200  0.240800  0.173800  1.0
  H  H125  1  0.759200  0.188400  0.326200  1.0
  H  H126  1  0.811600  0.570800  0.173800  1.0
  H  H127  1  0.240800  0.429200  0.673800  1.0
  H  H128  1  0.570800  0.811600  0.673800  1.0
  H  H129  1  0.188400  0.759200  0.673800  1.0
  H  H130  1  0.188400  0.759200  0.826200  1.0
  H  H131  1  0.240800  0.429200  0.826200  1.0
  H  H132  1  0.570800  0.811600  0.826200  1.0
  H  H133  1  0.728700  0.593200  0.398900  1.0
  H  H134  1  0.406800  0.135500  0.101100  1.0
  H  H135  1  0.864500  0.271300  0.398900  1.0
  H  H136  1  0.728700  0.593200  0.101100  1.0
  H  H137  1  0.406800  0.135500  0.398900  1.0
  H  H138  1  0.864500  0.271300  0.101100  1.0
  H  H139  1  0.593200  0.728700  0.601100  1.0
  H  H140  1  0.271300  0.864500  0.601100  1.0
  H  H141  1  0.135500  0.406800  0.601100  1.0
  H  H142  1  0.135500  0.406800  0.898900  1.0
  H  H143  1  0.593200  0.728700  0.898900  1.0
  H  H144  1  0.271300  0.864500  0.898900  1.0
  H  H145  1  0.700500  0.616300  0.441000  1.0
  H  H146  1  0.383700  0.084200  0.059000  1.0
  H  H147  1  0.915800  0.299500  0.441000  1.0
  H  H148  1  0.700500  0.616300  0.059000  1.0
  H  H149  1  0.383700  0.084200  0.441000  1.0
  H  H150  1  0.915800  0.299500  0.059000  1.0
  H  H151  1  0.616300  0.700500  0.559000  1.0
  H  H152  1  0.299500  0.915800  0.559000  1.0
  H  H153  1  0.084200  0.383700  0.559000  1.0
  H  H154  1  0.084200  0.383700  0.941000  1.0
  H  H155  1  0.616300  0.700500  0.941000  1.0
  H  H156  1  0.299500  0.915800  0.941000  1.0
  H  H157  1  0.209800  0.241500  0.459000  1.0
  H  H158  1  0.758500  0.968300  0.041000  1.0
  H  H159  1  0.031700  0.790200  0.459000  1.0
  H  H160  1  0.209800  0.241500  0.041000  1.0
  H  H161  1  0.758500  0.968300  0.459000  1.0
  H  H162  1  0.031700  0.790200  0.041000  1.0
  H  H163  1  0.241500  0.209800  0.541000  1.0
  H  H164  1  0.790200  0.031700  0.541000  1.0
  H  H165  1  0.968300  0.758500  0.541000  1.0
  H  H166  1  0.968300  0.758500  0.959000  1.0
  H  H167  1  0.241500  0.209800  0.959000  1.0
  H  H168  1  0.790200  0.031700  0.959000  1.0
  H  H169  1  0.243300  0.216200  0.424000  1.0
  H  H170  1  0.783800  0.027100  0.076000  1.0
  H  H171  1  0.972900  0.756700  0.424000  1.0
  H  H172  1  0.243300  0.216200  0.076000  1.0
  H  H173  1  0.783800  0.027100  0.424000  1.0
  H  H174  1  0.972900  0.756700  0.076000  1.0
  H  H175  1  0.216200  0.243300  0.576000  1.0
  H  H176  1  0.756700  0.972900  0.576000  1.0
  H  H177  1  0.027100  0.783800  0.576000  1.0
  H  H178  1  0.027100  0.783800  0.924000  1.0
  H  H179  1  0.216200  0.243300  0.924000  1.0
  H  H180  1  0.756700  0.972900  0.924000  1.0
  H  H181  1  0.199000  0.331100  0.283600  1.0
  H  H182  1  0.668900  0.867900  0.216400  1.0
  H  H183  1  0.132100  0.801000  0.283600  1.0
  H  H184  1  0.199000  0.331100  0.216400  1.0
  H  H185  1  0.668900  0.867900  0.283600  1.0
  H  H186  1  0.132100  0.801000  0.216400  1.0
  H  H187  1  0.331100  0.199000  0.716400  1.0
  H  H188  1  0.801000  0.132100  0.716400  1.0
  H  H189  1  0.867900  0.668900  0.716400  1.0
  H  H190  1  0.867900  0.668900  0.783600  1.0
  H  H191  1  0.331100  0.199000  0.783600  1.0
  H  H192  1  0.801000  0.132100  0.783600  1.0
  H  H193  1  0.110300  0.166800  0.396600  1.0
  H  H194  1  0.833200  0.943500  0.103400  1.0
  H  H195  1  0.056500  0.889700  0.396600  1.0
  H  H196  1  0.110300  0.166800  0.103400  1.0
  H  H197  1  0.833200  0.943500  0.396600  1.0
  H  H198  1  0.056500  0.889700  0.103400  1.0
  H  H199  1  0.166800  0.110300  0.603400  1.0
  H  H200  1  0.889700  0.056500  0.603400  1.0
  H  H201  1  0.943500  0.833200  0.603400  1.0
  H  H202  1  0.943500  0.833200  0.896600  1.0
  H  H203  1  0.166800  0.110300  0.896600  1.0
  H  H204  1  0.889700  0.056500  0.896600  1.0
  H  H205  1  0.258600  0.331700  0.349200  1.0
  H  H206  1  0.668300  0.926900  0.150800  1.0
  H  H207  1  0.073100  0.741400  0.349200  1.0
  H  H208  1  0.258600  0.331700  0.150800  1.0
  H  H209  1  0.668300  0.926900  0.349200  1.0
  H  H210  1  0.073100  0.741400  0.150800  1.0
  H  H211  1  0.331700  0.258600  0.650800  1.0
  H  H212  1  0.741400  0.073100  0.650800  1.0
  H  H213  1  0.926900  0.668300  0.650800  1.0
  H  H214  1  0.926900  0.668300  0.849200  1.0
  H  H215  1  0.331700  0.258600  0.849200  1.0
  H  H216  1  0.741400  0.073100  0.849200  1.0
  H  H217  1  0.377100  0.567800  0.530700  1.0
  H  H218  1  0.432200  0.809300  0.969300  1.0
  H  H219  1  0.190700  0.622900  0.530700  1.0
  H  H220  1  0.377100  0.567800  0.969300  1.0
  H  H221  1  0.432200  0.809300  0.530700  1.0
  H  H222  1  0.190700  0.622900  0.969300  1.0
  H  H223  1  0.567800  0.377100  0.469300  1.0
  H  H224  1  0.622900  0.190700  0.469300  1.0
  H  H225  1  0.809300  0.432200  0.469300  1.0
  H  H226  1  0.809300  0.432200  0.030700  1.0
  H  H227  1  0.567800  0.377100  0.030700  1.0
  H  H228  1  0.622900  0.190700  0.030700  1.0
  H  H229  1  0.479300  0.625900  0.493700  1.0
  H  H230  1  0.374100  0.853400  0.006300  1.0
  H  H231  1  0.146600  0.520700  0.493700  1.0
  H  H232  1  0.479300  0.625900  0.006300  1.0
  H  H233  1  0.374100  0.853400  0.493700  1.0
  H  H234  1  0.146600  0.520700  0.006300  1.0
  H  H235  1  0.625900  0.479300  0.506300  1.0
  H  H236  1  0.520700  0.146600  0.506300  1.0
  H  H237  1  0.853400  0.374100  0.506300  1.0
  H  H238  1  0.853400  0.374100  0.993700  1.0
  H  H239  1  0.625900  0.479300  0.993700  1.0
  H  H240  1  0.520700  0.146600  0.993700  1.0
  H  H241  1  0.058500  0.177900  0.326200  1.0
  H  H242  1  0.822100  0.880600  0.173800  1.0
  H  H243  1  0.119400  0.941500  0.326200  1.0
  H  H244  1  0.058500  0.177900  0.173800  1.0
  H  H245  1  0.822100  0.880600  0.326200  1.0
  H  H246  1  0.119400  0.941500  0.173800  1.0
  H  H247  1  0.177900  0.058500  0.673800  1.0
  H  H248  1  0.941500  0.119400  0.673800  1.0
  H  H249  1  0.880600  0.822100  0.673800  1.0
  H  H250  1  0.880600  0.822100  0.826200  1.0
  H  H251  1  0.177900  0.058500  0.826200  1.0
  H  H252  1  0.941500  0.119400  0.826200  1.0
  H  H253  1  0.517800  0.571600  0.447700  1.0
  H  H254  1  0.428400  0.946200  0.052300  1.0
  H  H255  1  0.053800  0.482200  0.447700  1.0
  H  H256  1  0.517800  0.571600  0.052300  1.0
  H  H257  1  0.428400  0.946200  0.447700  1.0
  H  H258  1  0.053800  0.482200  0.052300  1.0
  H  H259  1  0.571600  0.517800  0.552300  1.0
  H  H260  1  0.482200  0.053800  0.552300  1.0
  H  H261  1  0.946200  0.428400  0.552300  1.0
  H  H262  1  0.946200  0.428400  0.947700  1.0
  H  H263  1  0.571600  0.517800  0.947700  1.0
  H  H264  1  0.482200  0.053800  0.947700  1.0
  Pd  Pd265  1  0.733060  0.812480  0.250000  1.0
  Pd  Pd266  1  0.187520  0.920580  0.250000  1.0
  Pd  Pd267  1  0.079420  0.266940  0.250000  1.0
  Pd  Pd268  1  0.812480  0.733060  0.750000  1.0
  Pd  Pd269  1  0.266940  0.079420  0.750000  1.0
  Pd  Pd270  1  0.920580  0.187520  0.750000  1.0
  Pd  Pd271  1  0.459210  0.432610  0.412600  1.0
  Pd  Pd272  1  0.567390  0.026600  0.087400  1.0
  Pd  Pd273  1  0.973400  0.540790  0.412600  1.0
  Pd  Pd274  1  0.459210  0.432610  0.087400  1.0
  Pd  Pd275  1  0.567390  0.026600  0.412600  1.0
  Pd  Pd276  1  0.973400  0.540790  0.087400  1.0
  Pd  Pd277  1  0.432610  0.459210  0.587400  1.0
  Pd  Pd278  1  0.540790  0.973400  0.587400  1.0
  Pd  Pd279  1  0.026600  0.567390  0.587400  1.0
  Pd  Pd280  1  0.026600  0.567390  0.912600  1.0
  Pd  Pd281  1  0.432610  0.459210  0.912600  1.0
  Pd  Pd282  1  0.540790  0.973400  0.912600  1.0
  C  C283  1  0.667000  0.705800  0.311600  1.0
  C  C284  1  0.294200  0.961200  0.188400  1.0
  C  C285  1  0.038800  0.333000  0.311600  1.0
  C  C286  1  0.667000  0.705800  0.188400  1.0
  C  C287  1  0.294200  0.961200  0.311600  1.0
  C  C288  1  0.038800  0.333000  0.188400  1.0
  C  C289  1  0.705800  0.667000  0.688400  1.0
  C  C290  1  0.333000  0.038800  0.688400  1.0
  C  C291  1  0.961200  0.294200  0.688400  1.0
  C  C292  1  0.961200  0.294200  0.811600  1.0
  C  C293  1  0.705800  0.667000  0.811600  1.0
  C  C294  1  0.333000  0.038800  0.811600  1.0
  C  C295  1  0.768000  0.754300  0.326500  1.0
  C  C296  1  0.245700  0.013700  0.173500  1.0
  C  C297  1  0.986300  0.232000  0.326500  1.0
  C  C298  1  0.768000  0.754300  0.173500  1.0
  C  C299  1  0.245700  0.013700  0.326500  1.0
  C  C300  1  0.986300  0.232000  0.173500  1.0
  C  C301  1  0.754300  0.768000  0.673500  1.0
  C  C302  1  0.232000  0.986300  0.673500  1.0
  C  C303  1  0.013700  0.245700  0.673500  1.0
  C  C304  1  0.013700  0.245700  0.826500  1.0
  C  C305  1  0.754300  0.768000  0.826500  1.0
  C  C306  1  0.232000  0.986300  0.826500  1.0
  C  C307  1  0.437700  0.319800  0.359700  1.0
  C  C308  1  0.680200  0.117900  0.140300  1.0
  C  C309  1  0.882100  0.562300  0.359700  1.0
  C  C310  1  0.437700  0.319800  0.140300  1.0
  C  C311  1  0.680200  0.117900  0.359700  1.0
  C  C312  1  0.882100  0.562300  0.140300  1.0
  C  C313  1  0.319800  0.437700  0.640300  1.0
  C  C314  1  0.562300  0.882100  0.640300  1.0
  C  C315  1  0.117900  0.680200  0.640300  1.0
  C  C316  1  0.117900  0.680200  0.859700  1.0
  C  C317  1  0.319800  0.437700  0.859700  1.0
  C  C318  1  0.562300  0.882100  0.859700  1.0
  C  C319  1  0.558300  0.374900  0.322700  1.0
  C  C320  1  0.625100  0.183400  0.177300  1.0
  C  C321  1  0.816600  0.441700  0.322700  1.0
  C  C322  1  0.558300  0.374900  0.177300  1.0
  C  C323  1  0.625100  0.183400  0.322700  1.0
  C  C324  1  0.816600  0.441700  0.177300  1.0
  C  C325  1  0.374900  0.558300  0.677300  1.0
  C  C326  1  0.441700  0.816600  0.677300  1.0
  C  C327  1  0.183400  0.625100  0.677300  1.0
  C  C328  1  0.183400  0.625100  0.822700  1.0
  C  C329  1  0.374900  0.558300  0.822700  1.0
  C  C330  1  0.441700  0.816600  0.822700  1.0
  C  C331  1  0.287700  0.355600  0.457100  1.0
  C  C332  1  0.644400  0.932100  0.042900  1.0
  C  C333  1  0.067900  0.712300  0.457100  1.0
  C  C334  1  0.287700  0.355600  0.042900  1.0
  C  C335  1  0.644400  0.932100  0.457100  1.0
  C  C336  1  0.067900  0.712300  0.042900  1.0
  C  C337  1  0.355600  0.287700  0.542900  1.0
  C  C338  1  0.712300  0.067900  0.542900  1.0
  C  C339  1  0.932100  0.644400  0.542900  1.0
  C  C340  1  0.932100  0.644400  0.957100  1.0
  C  C341  1  0.355600  0.287700  0.957100  1.0
  C  C342  1  0.712300  0.067900  0.957100  1.0
  C  C343  1  0.345000  0.403100  0.453000  1.0
  C  C344  1  0.596900  0.941900  0.047000  1.0
  C  C345  1  0.058100  0.655000  0.453000  1.0
  C  C346  1  0.345000  0.403100  0.047000  1.0
  C  C347  1  0.596900  0.941900  0.453000  1.0
  C  C348  1  0.058100  0.655000  0.047000  1.0
  C  C349  1  0.403100  0.345000  0.547000  1.0
  C  C350  1  0.655000  0.058100  0.547000  1.0
  C  C351  1  0.941900  0.596900  0.547000  1.0
  C  C352  1  0.941900  0.596900  0.953000  1.0
  C  C353  1  0.403100  0.345000  0.953000  1.0
  C  C354  1  0.655000  0.058100  0.953000  1.0
  C  C355  1  0.355100  0.488800  0.494000  1.0
  C  C356  1  0.511200  0.866300  0.006000  1.0
  C  C357  1  0.133700  0.644900  0.494000  1.0
  C  C358  1  0.355100  0.488800  0.006000  1.0
  C  C359  1  0.511200  0.866300  0.494000  1.0
  C  C360  1  0.133700  0.644900  0.006000  1.0
  C  C361  1  0.488800  0.355100  0.506000  1.0
  C  C362  1  0.644900  0.133700  0.506000  1.0
  C  C363  1  0.866300  0.511200  0.506000  1.0
  C  C364  1  0.866300  0.511200  0.994000  1.0
  C  C365  1  0.488800  0.355100  0.994000  1.0
  C  C366  1  0.644900  0.133700  0.994000  1.0
  C  C367  1  0.652200  0.655600  0.345000  1.0
  C  C368  1  0.344400  0.996600  0.155000  1.0
  C  C369  1  0.003400  0.347800  0.345000  1.0
  C  C370  1  0.652200  0.655600  0.155000  1.0
  C  C371  1  0.344400  0.996600  0.345000  1.0
  C  C372  1  0.003400  0.347800  0.155000  1.0
  C  C373  1  0.655600  0.652200  0.655000  1.0
  C  C374  1  0.347800  0.003400  0.655000  1.0
  C  C375  1  0.996600  0.344400  0.655000  1.0
  C  C376  1  0.996600  0.344400  0.845000  1.0
  C  C377  1  0.655600  0.652200  0.845000  1.0
  C  C378  1  0.347800  0.003400  0.845000  1.0
  C  C379  1  0.537500  0.408700  0.352800  1.0
  C  C380  1  0.591300  0.128800  0.147200  1.0
  C  C381  1  0.871200  0.462500  0.352800  1.0
  C  C382  1  0.537500  0.408700  0.147200  1.0
  C  C383  1  0.591300  0.128800  0.352800  1.0
  C  C384  1  0.871200  0.462500  0.147200  1.0
  C  C385  1  0.408700  0.537500  0.647200  1.0
  C  C386  1  0.462500  0.871200  0.647200  1.0
  C  C387  1  0.128800  0.591300  0.647200  1.0
  C  C388  1  0.128800  0.591300  0.852800  1.0
  C  C389  1  0.408700  0.537500  0.852800  1.0
  C  C390  1  0.462500  0.871200  0.852800  1.0
  C  C391  1  0.764400  0.711200  0.362400  1.0
  C  C392  1  0.288800  0.053200  0.137600  1.0
  C  C393  1  0.946800  0.235600  0.362400  1.0
  C  C394  1  0.764400  0.711200  0.137600  1.0
  C  C395  1  0.288800  0.053200  0.362400  1.0
  C  C396  1  0.946800  0.235600  0.137600  1.0
  C  C397  1  0.711200  0.764400  0.637600  1.0
  C  C398  1  0.235600  0.946800  0.637600  1.0
  C  C399  1  0.053200  0.288800  0.637600  1.0
  C  C400  1  0.053200  0.288800  0.862400  1.0
  C  C401  1  0.711200  0.764400  0.862400  1.0
  C  C402  1  0.235600  0.946800  0.862400  1.0
  C  C403  1  0.628200  0.504300  0.368300  1.0
  C  C404  1  0.495700  0.123900  0.131700  1.0
  C  C405  1  0.876100  0.371800  0.368300  1.0
  C  C406  1  0.628200  0.504300  0.131700  1.0
  C  C407  1  0.495700  0.123900  0.368300  1.0
  C  C408  1  0.876100  0.371800  0.131700  1.0
  C  C409  1  0.504300  0.628200  0.631700  1.0
  C  C410  1  0.371800  0.876100  0.631700  1.0
  C  C411  1  0.123900  0.495700  0.631700  1.0
  C  C412  1  0.123900  0.495700  0.868300  1.0
  C  C413  1  0.504300  0.628200  0.868300  1.0
  C  C414  1  0.371800  0.876100  0.868300  1.0
  C  C415  1  0.510600  0.311000  0.312500  1.0
  C  C416  1  0.689000  0.199600  0.187500  1.0
  C  C417  1  0.800400  0.489400  0.312500  1.0
  C  C418  1  0.510600  0.311000  0.187500  1.0
  C  C419  1  0.689000  0.199600  0.312500  1.0
  C  C420  1  0.800400  0.489400  0.187500  1.0
  C  C421  1  0.311000  0.510600  0.687500  1.0
  C  C422  1  0.489400  0.800400  0.687500  1.0
  C  C423  1  0.199600  0.689000  0.687500  1.0
  C  C424  1  0.199600  0.689000  0.812500  1.0
  C  C425  1  0.311000  0.510600  0.812500  1.0
  C  C426  1  0.489400  0.800400  0.812500  1.0
  C  C427  1  0.705000  0.658400  0.371400  1.0
  C  C428  1  0.341600  0.046600  0.128600  1.0
  C  C429  1  0.953400  0.295000  0.371400  1.0
  C  C430  1  0.705000  0.658400  0.128600  1.0
  C  C431  1  0.341600  0.046600  0.371400  1.0
  C  C432  1  0.953400  0.295000  0.128600  1.0
  C  C433  1  0.658400  0.705000  0.628600  1.0
  C  C434  1  0.295000  0.953400  0.628600  1.0
  C  C435  1  0.046600  0.341600  0.628600  1.0
  C  C436  1  0.046600  0.341600  0.871400  1.0
  C  C437  1  0.658400  0.705000  0.871400  1.0
  C  C438  1  0.295000  0.953400  0.871400  1.0
  C  C439  1  0.456000  0.283300  0.331100  1.0
  C  C440  1  0.716700  0.172700  0.168900  1.0
  C  C441  1  0.827300  0.544000  0.331100  1.0
  C  C442  1  0.456000  0.283300  0.168900  1.0
  C  C443  1  0.716700  0.172700  0.331100  1.0
  C  C444  1  0.827300  0.544000  0.168900  1.0
  C  C445  1  0.283300  0.456000  0.668900  1.0
  C  C446  1  0.544000  0.827300  0.668900  1.0
  C  C447  1  0.172700  0.716700  0.668900  1.0
  C  C448  1  0.172700  0.716700  0.831100  1.0
  C  C449  1  0.283300  0.456000  0.831100  1.0
  C  C450  1  0.544000  0.827300  0.831100  1.0
  C  C451  1  0.696900  0.604000  0.406100  1.0
  C  C452  1  0.396000  0.092900  0.093900  1.0
  C  C453  1  0.907100  0.303100  0.406100  1.0
  C  C454  1  0.696900  0.604000  0.093900  1.0
  C  C455  1  0.396000  0.092900  0.406100  1.0
  C  C456  1  0.907100  0.303100  0.093900  1.0
  C  C457  1  0.604000  0.696900  0.593900  1.0
  C  C458  1  0.303100  0.907100  0.593900  1.0
  C  C459  1  0.092900  0.396000  0.593900  1.0
  C  C460  1  0.092900  0.396000  0.906100  1.0
  C  C461  1  0.604000  0.696900  0.906100  1.0
  C  C462  1  0.303100  0.907100  0.906100  1.0
  C  C463  1  0.232800  0.248700  0.428100  1.0
  C  C464  1  0.751300  0.984100  0.071900  1.0
  C  C465  1  0.015900  0.767200  0.428100  1.0
  C  C466  1  0.232800  0.248700  0.071900  1.0
  C  C467  1  0.751300  0.984100  0.428100  1.0
  C  C468  1  0.015900  0.767200  0.071900  1.0
  C  C469  1  0.248700  0.232800  0.571900  1.0
  C  C470  1  0.767200  0.015900  0.571900  1.0
  C  C471  1  0.984100  0.751300  0.571900  1.0
  C  C472  1  0.984100  0.751300  0.928100  1.0
  C  C473  1  0.248700  0.232800  0.928100  1.0
  C  C474  1  0.767200  0.015900  0.928100  1.0
  C  C475  1  0.182700  0.298800  0.307000  1.0
  C  C476  1  0.701200  0.883900  0.193000  1.0
  C  C477  1  0.116100  0.817300  0.307000  1.0
  C  C478  1  0.182700  0.298800  0.193000  1.0
  C  C479  1  0.701200  0.883900  0.307000  1.0
  C  C480  1  0.116100  0.817300  0.193000  1.0
  C  C481  1  0.298800  0.182700  0.693000  1.0
  C  C482  1  0.817300  0.116100  0.693000  1.0
  C  C483  1  0.883900  0.701200  0.693000  1.0
  C  C484  1  0.883900  0.701200  0.807000  1.0
  C  C485  1  0.298800  0.182700  0.807000  1.0
  C  C486  1  0.817300  0.116100  0.807000  1.0
  C  C487  1  0.130200  0.200800  0.375100  1.0
  C  C488  1  0.799200  0.929400  0.124900  1.0
  C  C489  1  0.070600  0.869800  0.375100  1.0
  C  C490  1  0.130200  0.200800  0.124900  1.0
  C  C491  1  0.799200  0.929400  0.375100  1.0
  C  C492  1  0.070600  0.869800  0.124900  1.0
  C  C493  1  0.200800  0.130200  0.624900  1.0
  C  C494  1  0.869800  0.070600  0.624900  1.0
  C  C495  1  0.929400  0.799200  0.624900  1.0
  C  C496  1  0.929400  0.799200  0.875100  1.0
  C  C497  1  0.200800  0.130200  0.875100  1.0
  C  C498  1  0.869800  0.070600  0.875100  1.0
  C  C499  1  0.193500  0.249200  0.383000  1.0
  C  C500  1  0.750800  0.944300  0.117000  1.0
  C  C501  1  0.055700  0.806500  0.383000  1.0
  C  C502  1  0.193500  0.249200  0.117000  1.0
  C  C503  1  0.750800  0.944300  0.383000  1.0
  C  C504  1  0.055700  0.806500  0.117000  1.0
  C  C505  1  0.249200  0.193500  0.617000  1.0
  C  C506  1  0.806500  0.055700  0.617000  1.0
  C  C507  1  0.944300  0.750800  0.617000  1.0
  C  C508  1  0.944300  0.750800  0.883000  1.0
  C  C509  1  0.249200  0.193500  0.883000  1.0
  C  C510  1  0.806500  0.055700  0.883000  1.0
  C  C511  1  0.217800  0.298900  0.346000  1.0
  C  C512  1  0.701100  0.918900  0.154000  1.0
  C  C513  1  0.081100  0.782200  0.346000  1.0
  C  C514  1  0.217800  0.298900  0.154000  1.0
  C  C515  1  0.701100  0.918900  0.346000  1.0
  C  C516  1  0.081100  0.782200  0.154000  1.0
  C  C517  1  0.298900  0.217800  0.654000  1.0
  C  C518  1  0.782200  0.081100  0.654000  1.0
  C  C519  1  0.918900  0.701100  0.654000  1.0
  C  C520  1  0.918900  0.701100  0.846000  1.0
  C  C521  1  0.298900  0.217800  0.846000  1.0
  C  C522  1  0.782200  0.081100  0.846000  1.0
  C  C523  1  0.391700  0.549100  0.508600  1.0
  C  C524  1  0.450900  0.842600  0.991400  1.0
  C  C525  1  0.157400  0.608300  0.508600  1.0
  C  C526  1  0.391700  0.549100  0.991400  1.0
  C  C527  1  0.450900  0.842600  0.508600  1.0
  C  C528  1  0.157400  0.608300  0.991400  1.0
  C  C529  1  0.549100  0.391700  0.491400  1.0
  C  C530  1  0.608300  0.157400  0.491400  1.0
  C  C531  1  0.842600  0.450900  0.491400  1.0
  C  C532  1  0.842600  0.450900  0.008600  1.0
  C  C533  1  0.549100  0.391700  0.008600  1.0
  C  C534  1  0.608300  0.157400  0.008600  1.0
  C  C535  1  0.454700  0.583300  0.488200  1.0
  C  C536  1  0.416700  0.871400  0.011800  1.0
  C  C537  1  0.128600  0.545300  0.488200  1.0
  C  C538  1  0.454700  0.583300  0.011800  1.0
  C  C539  1  0.416700  0.871400  0.488200  1.0
  C  C540  1  0.128600  0.545300  0.011800  1.0
  C  C541  1  0.583300  0.454700  0.511800  1.0
  C  C542  1  0.545300  0.128600  0.511800  1.0
  C  C543  1  0.871400  0.416700  0.511800  1.0
  C  C544  1  0.871400  0.416700  0.988200  1.0
  C  C545  1  0.583300  0.454700  0.988200  1.0
  C  C546  1  0.545300  0.128600  0.988200  1.0
  C  C547  1  0.099700  0.207700  0.332800  1.0
  C  C548  1  0.792300  0.892000  0.167200  1.0
  C  C549  1  0.108000  0.900300  0.332800  1.0
  C  C550  1  0.099700  0.207700  0.167200  1.0
  C  C551  1  0.792300  0.892000  0.332800  1.0
  C  C552  1  0.108000  0.900300  0.167200  1.0
  C  C553  1  0.207700  0.099700  0.667200  1.0
  C  C554  1  0.900300  0.108000  0.667200  1.0
  C  C555  1  0.892000  0.792300  0.667200  1.0
  C  C556  1  0.892000  0.792300  0.832800  1.0
  C  C557  1  0.207700  0.099700  0.832800  1.0
  C  C558  1  0.900300  0.108000  0.832800  1.0
  C  C559  1  0.573100  0.465100  0.371600  1.0
  C  C560  1  0.534900  0.108000  0.128400  1.0
  C  C561  1  0.892000  0.426900  0.371600  1.0
  C  C562  1  0.573100  0.465100  0.128400  1.0
  C  C563  1  0.534900  0.108000  0.371600  1.0
  C  C564  1  0.892000  0.426900  0.128400  1.0
  C  C565  1  0.465100  0.573100  0.628400  1.0
  C  C566  1  0.426900  0.892000  0.628400  1.0
  C  C567  1  0.108000  0.534900  0.628400  1.0
  C  C568  1  0.108000  0.534900  0.871600  1.0
  C  C569  1  0.465100  0.573100  0.871600  1.0
  C  C570  1  0.426900  0.892000  0.871600  1.0
  C  C571  1  0.380500  0.456600  0.468400  1.0
  C  C572  1  0.543400  0.923900  0.031600  1.0
  C  C573  1  0.076100  0.619500  0.468400  1.0
  C  C574  1  0.380500  0.456600  0.031600  1.0
  C  C575  1  0.543400  0.923900  0.468400  1.0
  C  C576  1  0.076100  0.619500  0.031600  1.0
  C  C577  1  0.456600  0.380500  0.531600  1.0
  C  C578  1  0.619500  0.076100  0.531600  1.0
  C  C579  1  0.923900  0.543400  0.531600  1.0
  C  C580  1  0.923900  0.543400  0.968400  1.0
  C  C581  1  0.456600  0.380500  0.968400  1.0
  C  C582  1  0.619500  0.076100  0.968400  1.0
  C  C583  1  0.477500  0.551800  0.460600  1.0
  C  C584  1  0.448200  0.925700  0.039400  1.0
  C  C585  1  0.074300  0.522500  0.460600  1.0
  C  C586  1  0.477500  0.551800  0.039400  1.0
  C  C587  1  0.448200  0.925700  0.460600  1.0
  C  C588  1  0.074300  0.522500  0.039400  1.0
  C  C589  1  0.551800  0.477500  0.539400  1.0
  C  C590  1  0.522500  0.074300  0.539400  1.0
  C  C591  1  0.925700  0.448200  0.539400  1.0
  C  C592  1  0.925700  0.448200  0.960600  1.0
  C  C593  1  0.551800  0.477500  0.960600  1.0
  C  C594  1  0.522500  0.074300  0.960600  1.0
  N  N595  1  0.720300  0.746000  0.302200  1.0
  N  N596  1  0.254000  0.974300  0.197800  1.0
  N  N597  1  0.025700  0.279700  0.302200  1.0
  N  N598  1  0.720300  0.746000  0.197800  1.0
  N  N599  1  0.254000  0.974300  0.302200  1.0
  N  N600  1  0.025700  0.279700  0.197800  1.0
  N  N601  1  0.746000  0.720300  0.697800  1.0
  N  N602  1  0.279700  0.025700  0.697800  1.0
  N  N603  1  0.974300  0.254000  0.697800  1.0
  N  N604  1  0.974300  0.254000  0.802200  1.0
  N  N605  1  0.746000  0.720300  0.802200  1.0
  N  N606  1  0.279700  0.025700  0.802200  1.0
  N  N607  1  0.638900  0.554100  0.396800  1.0
  N  N608  1  0.445900  0.084800  0.103200  1.0
  N  N609  1  0.915200  0.361100  0.396800  1.0
  N  N610  1  0.638900  0.554100  0.103200  1.0
  N  N611  1  0.445900  0.084800  0.396800  1.0
  N  N612  1  0.915200  0.361100  0.103200  1.0
  N  N613  1  0.554100  0.638900  0.603200  1.0
  N  N614  1  0.361100  0.915200  0.603200  1.0
  N  N615  1  0.084800  0.445900  0.603200  1.0
  N  N616  1  0.084800  0.445900  0.896800  1.0
  N  N617  1  0.554100  0.638900  0.896800  1.0
  N  N618  1  0.361100  0.915200  0.896800  1.0
  N  N619  1  0.340200  0.326600  0.415700  1.0
  N  N620  1  0.673400  0.013600  0.084300  1.0
  N  N621  1  0.986400  0.659800  0.415700  1.0
  N  N622  1  0.340200  0.326600  0.084300  1.0
  N  N623  1  0.673400  0.013600  0.415700  1.0
  N  N624  1  0.986400  0.659800  0.084300  1.0
  N  N625  1  0.326600  0.340200  0.584300  1.0
  N  N626  1  0.659800  0.986400  0.584300  1.0
  N  N627  1  0.013600  0.673400  0.584300  1.0
  N  N628  1  0.013600  0.673400  0.915700  1.0
  N  N629  1  0.326600  0.340200  0.915700  1.0
  N  N630  1  0.659800  0.986400  0.915700  1.0
  N  N631  1  0.438900  0.492700  0.454000  1.0
  N  N632  1  0.507300  0.946200  0.046000  1.0
  N  N633  1  0.053800  0.561100  0.454000  1.0
  N  N634  1  0.438900  0.492700  0.046000  1.0
  N  N635  1  0.507300  0.946200  0.454000  1.0
  N  N636  1  0.053800  0.561100  0.046000  1.0
  N  N637  1  0.492700  0.438900  0.546000  1.0
  N  N638  1  0.561100  0.053800  0.546000  1.0
  N  N639  1  0.946200  0.507300  0.546000  1.0
  N  N640  1  0.946200  0.507300  0.954000  1.0
  N  N641  1  0.492700  0.438900  0.954000  1.0
  N  N642  1  0.561100  0.053800  0.954000  1.0
  N  N643  1  0.479300  0.379100  0.370900  1.0
  N  N644  1  0.620900  0.100200  0.129100  1.0
  N  N645  1  0.899800  0.520700  0.370900  1.0
  N  N646  1  0.479300  0.379100  0.129100  1.0
  N  N647  1  0.620900  0.100200  0.370900  1.0
  N  N648  1  0.899800  0.520700  0.129100  1.0
  N  N649  1  0.379100  0.479300  0.629100  1.0
  N  N650  1  0.520700  0.899800  0.629100  1.0
  N  N651  1  0.100200  0.620900  0.629100  1.0
  N  N652  1  0.100200  0.620900  0.870900  1.0
  N  N653  1  0.379100  0.479300  0.870900  1.0
  N  N654  1  0.520700  0.899800  0.870900  1.0
  N  N655  1  0.378300  0.383300  0.425700  1.0
  N  N656  1  0.616700  0.995000  0.074300  1.0
  N  N657  1  0.005000  0.621700  0.425700  1.0
  N  N658  1  0.378300  0.383300  0.074300  1.0
  N  N659  1  0.616700  0.995000  0.425700  1.0
  N  N660  1  0.005000  0.621700  0.074300  1.0
  N  N661  1  0.383300  0.378300  0.574300  1.0
  N  N662  1  0.621700  0.005000  0.574300  1.0
  N  N663  1  0.995000  0.616700  0.574300  1.0
  N  N664  1  0.995000  0.616700  0.925700  1.0
  N  N665  1  0.383300  0.378300  0.925700  1.0
  N  N666  1  0.621700  0.005000  0.925700  1.0
  N  N667  1  0.286200  0.306500  0.428900  1.0
  N  N668  1  0.693500  0.979700  0.071100  1.0
  N  N669  1  0.020300  0.713800  0.428900  1.0
  N  N670  1  0.286200  0.306500  0.071100  1.0
  N  N671  1  0.693500  0.979700  0.428900  1.0
  N  N672  1  0.020300  0.713800  0.071100  1.0
  N  N673  1  0.306500  0.286200  0.571100  1.0
  N  N674  1  0.713800  0.020300  0.571100  1.0
  N  N675  1  0.979700  0.693500  0.571100  1.0
  N  N676  1  0.979700  0.693500  0.928900  1.0
  N  N677  1  0.306500  0.286200  0.928900  1.0
  N  N678  1  0.713800  0.020300  0.928900  1.0
  N  N679  1  0.128500  0.255000  0.303300  1.0
  N  N680  1  0.745000  0.873500  0.196700  1.0
  N  N681  1  0.126500  0.871500  0.303300  1.0
  N  N682  1  0.128500  0.255000  0.196700  1.0
  N  N683  1  0.745000  0.873500  0.303300  1.0
  N  N684  1  0.126500  0.871500  0.196700  1.0
  N  N685  1  0.255000  0.128500  0.696700  1.0
  N  N686  1  0.871500  0.126500  0.696700  1.0
  N  N687  1  0.873500  0.745000  0.696700  1.0
  N  N688  1  0.873500  0.745000  0.803300  1.0
  N  N689  1  0.255000  0.128500  0.803300  1.0
  N  N690  1  0.871500  0.126500  0.803300  1.0
  N  N691  1  0.586400  0.542600  0.417300  1.0
  N  N692  1  0.457400  0.043800  0.082700  1.0
  N  N693  1  0.956200  0.413600  0.417300  1.0
  N  N694  1  0.586400  0.542600  0.082700  1.0
  N  N695  1  0.457400  0.043800  0.417300  1.0
  N  N696  1  0.956200  0.413600  0.082700  1.0
  N  N697  1  0.542600  0.586400  0.582700  1.0
  N  N698  1  0.413600  0.956200  0.582700  1.0
  N  N699  1  0.043800  0.457400  0.582700  1.0
  N  N700  1  0.043800  0.457400  0.917300  1.0
  N  N701  1  0.542600  0.586400  0.917300  1.0
  N  N702  1  0.413600  0.956200  0.917300  1.0
  N  N703  1  0.549300  0.491700  0.402900  1.0
  N  N704  1  0.508300  0.057600  0.097100  1.0
  N  N705  1  0.942400  0.450700  0.402900  1.0
  N  N706  1  0.549300  0.491700  0.097100  1.0
  N  N707  1  0.508300  0.057600  0.402900  1.0
  N  N708  1  0.942400  0.450700  0.097100  1.0
  N  N709  1  0.491700  0.549300  0.597100  1.0
  N  N710  1  0.450700  0.942400  0.597100  1.0
  N  N711  1  0.057600  0.508300  0.597100  1.0
  N  N712  1  0.057600  0.508300  0.902900  1.0
  N  N713  1  0.491700  0.549300  0.902900  1.0
  N  N714  1  0.450700  0.942400  0.902900  1.0
