# generated using pymatgen
data_PdPt2(C21N8)4
_symmetry_space_group_name_H-M   'P 1'
_cell_length_a   24.34270000
_cell_length_b   30.92410000
_cell_length_c   30.92410000
_cell_angle_alpha   120.00000000
_cell_angle_beta   90.00000000
_cell_angle_gamma   90.00000000
_symmetry_Int_Tables_number   1
_chemical_formula_structural   PdPt2(C21N8)4
_chemical_formula_sum   'Pd6 Pt12 C504 N192'
_cell_volume   20160.13873925
_cell_formula_units_Z   6
loop_
 _symmetry_equiv_pos_site_id
 _symmetry_equiv_pos_as_xyz
  1  'x, y, z'
loop_
 _atom_site_type_symbol
 _atom_site_label
 _atom_site_symmetry_multiplicity
 _atom_site_fract_x
 _atom_site_fract_y
 _atom_site_fract_z
 _atom_site_occupancy
  Pd  Pd1  1  0.750000  0.830220  0.169790  1.0
  Pd  Pd2  1  0.250000  0.169790  0.339570  1.0
  Pd  Pd3  1  0.750000  0.339570  0.169780  1.0
  Pd  Pd4  1  0.250000  0.169780  0.830210  1.0
  Pd  Pd5  1  0.750000  0.830210  0.660430  1.0
  Pd  Pd6  1  0.250000  0.660430  0.830220  1.0
  Pt  Pt7  1  0.558150  0.516120  0.032240  1.0
  Pt  Pt8  1  0.058150  0.032240  0.516120  1.0
  Pt  Pt9  1  0.558150  0.516120  0.483880  1.0
  Pt  Pt10  1  0.058150  0.483880  0.967760  1.0
  Pt  Pt11  1  0.558150  0.967760  0.483880  1.0
  Pt  Pt12  1  0.058150  0.483880  0.516120  1.0
  Pt  Pt13  1  0.441850  0.032240  0.516120  1.0
  Pt  Pt14  1  0.441850  0.483880  0.516120  1.0
  Pt  Pt15  1  0.441850  0.483880  0.967760  1.0
  Pt  Pt16  1  0.941850  0.516120  0.032240  1.0
  Pt  Pt17  1  0.941850  0.967760  0.483880  1.0
  Pt  Pt18  1  0.941850  0.516120  0.483880  1.0
  C  C19  1  0.688800  0.451400  0.902800  1.0
  C  C20  1  0.188800  0.902800  0.451400  1.0
  C  C21  1  0.688800  0.451400  0.548600  1.0
  C  C22  1  0.188800  0.548600  0.097200  1.0
  C  C23  1  0.688800  0.097200  0.548600  1.0
  C  C24  1  0.188800  0.548600  0.451400  1.0
  C  C25  1  0.311200  0.902800  0.451400  1.0
  C  C26  1  0.311200  0.548600  0.451400  1.0
  C  C27  1  0.311200  0.548600  0.097200  1.0
  C  C28  1  0.811200  0.451400  0.902800  1.0
  C  C29  1  0.811200  0.097200  0.548600  1.0
  C  C30  1  0.811200  0.451400  0.548600  1.0
  C  C31  1  0.425000  0.582100  0.164200  1.0
  C  C32  1  0.925000  0.164200  0.582100  1.0
  C  C33  1  0.425000  0.582100  0.417900  1.0
  C  C34  1  0.925000  0.417900  0.835800  1.0
  C  C35  1  0.425000  0.835800  0.417900  1.0
  C  C36  1  0.925000  0.417900  0.582100  1.0
  C  C37  1  0.575000  0.164200  0.582100  1.0
  C  C38  1  0.575000  0.417900  0.582100  1.0
  C  C39  1  0.575000  0.417900  0.835800  1.0
  C  C40  1  0.075000  0.582100  0.164200  1.0
  C  C41  1  0.075000  0.835800  0.417900  1.0
  C  C42  1  0.075000  0.582100  0.417900  1.0
  C  C43  1  0.675300  0.787900  0.075000  1.0
  C  C44  1  0.175300  0.075000  0.287100  1.0
  C  C45  1  0.675300  0.287100  0.212100  1.0
  C  C46  1  0.175300  0.212100  0.925000  1.0
  C  C47  1  0.675300  0.925000  0.712900  1.0
  C  C48  1  0.175300  0.712900  0.787900  1.0
  C  C49  1  0.324700  0.075000  0.787900  1.0
  C  C50  1  0.324700  0.212100  0.287100  1.0
  C  C51  1  0.324700  0.712900  0.925000  1.0
  C  C52  1  0.824700  0.287100  0.075000  1.0
  C  C53  1  0.824700  0.925000  0.212100  1.0
  C  C54  1  0.824700  0.787900  0.712900  1.0
  C  C55  1  0.324700  0.212100  0.925000  1.0
  C  C56  1  0.824700  0.925000  0.712900  1.0
  C  C57  1  0.324700  0.712900  0.787900  1.0
  C  C58  1  0.824700  0.787900  0.075000  1.0
  C  C59  1  0.324700  0.075000  0.287100  1.0
  C  C60  1  0.824700  0.287100  0.212100  1.0
  C  C61  1  0.675300  0.925000  0.212100  1.0
  C  C62  1  0.675300  0.787900  0.712900  1.0
  C  C63  1  0.675300  0.287100  0.075000  1.0
  C  C64  1  0.175300  0.712900  0.925000  1.0
  C  C65  1  0.175300  0.075000  0.787900  1.0
  C  C66  1  0.175300  0.212100  0.287100  1.0
  C  C67  1  0.641100  0.752900  0.042100  1.0
  C  C68  1  0.141100  0.042100  0.289200  1.0
  C  C69  1  0.641100  0.289200  0.247100  1.0
  C  C70  1  0.141100  0.247100  0.957900  1.0
  C  C71  1  0.641100  0.957900  0.710800  1.0
  C  C72  1  0.141100  0.710800  0.752900  1.0
  C  C73  1  0.358900  0.042100  0.752900  1.0
  C  C74  1  0.358900  0.247100  0.289200  1.0
  C  C75  1  0.358900  0.710800  0.957900  1.0
  C  C76  1  0.858900  0.289200  0.042100  1.0
  C  C77  1  0.858900  0.957900  0.247100  1.0
  C  C78  1  0.858900  0.752900  0.710800  1.0
  C  C79  1  0.358900  0.247100  0.957900  1.0
  C  C80  1  0.858900  0.957900  0.710800  1.0
  C  C81  1  0.358900  0.710800  0.752900  1.0
  C  C82  1  0.858900  0.752900  0.042100  1.0
  C  C83  1  0.358900  0.042100  0.289200  1.0
  C  C84  1  0.858900  0.289200  0.247100  1.0
  C  C85  1  0.641100  0.957900  0.247100  1.0
  C  C86  1  0.641100  0.752900  0.710800  1.0
  C  C87  1  0.641100  0.289200  0.042100  1.0
  C  C88  1  0.141100  0.710800  0.957900  1.0
  C  C89  1  0.141100  0.042100  0.752900  1.0
  C  C90  1  0.141100  0.247100  0.289200  1.0
  C  C91  1  0.627900  0.712800  0.045900  1.0
  C  C92  1  0.127900  0.045900  0.333100  1.0
  C  C93  1  0.627900  0.333100  0.287200  1.0
  C  C94  1  0.127900  0.287200  0.954100  1.0
  C  C95  1  0.627900  0.954100  0.666900  1.0
  C  C96  1  0.127900  0.666900  0.712800  1.0
  C  C97  1  0.372100  0.045900  0.712800  1.0
  C  C98  1  0.372100  0.287200  0.333100  1.0
  C  C99  1  0.372100  0.666900  0.954100  1.0
  C  C100  1  0.872100  0.333100  0.045900  1.0
  C  C101  1  0.872100  0.954100  0.287200  1.0
  C  C102  1  0.872100  0.712800  0.666900  1.0
  C  C103  1  0.372100  0.287200  0.954100  1.0
  C  C104  1  0.872100  0.954100  0.666900  1.0
  C  C105  1  0.372100  0.666900  0.712800  1.0
  C  C106  1  0.872100  0.712800  0.045900  1.0
  C  C107  1  0.372100  0.045900  0.333100  1.0
  C  C108  1  0.872100  0.333100  0.287200  1.0
  C  C109  1  0.627900  0.954100  0.287200  1.0
  C  C110  1  0.627900  0.712800  0.666900  1.0
  C  C111  1  0.627900  0.333100  0.045900  1.0
  C  C112  1  0.127900  0.666900  0.954100  1.0
  C  C113  1  0.127900  0.045900  0.712800  1.0
  C  C114  1  0.127900  0.287200  0.333100  1.0
  C  C115  1  0.649200  0.706600  0.083700  1.0
  C  C116  1  0.149200  0.083700  0.377100  1.0
  C  C117  1  0.649200  0.377100  0.293400  1.0
  C  C118  1  0.149200  0.293400  0.916300  1.0
  C  C119  1  0.649200  0.916300  0.622900  1.0
  C  C120  1  0.149200  0.622900  0.706600  1.0
  C  C121  1  0.350800  0.083700  0.706600  1.0
  C  C122  1  0.350800  0.293400  0.377100  1.0
  C  C123  1  0.350800  0.622900  0.916300  1.0
  C  C124  1  0.850800  0.377100  0.083700  1.0
  C  C125  1  0.850800  0.916300  0.293400  1.0
  C  C126  1  0.850800  0.706600  0.622900  1.0
  C  C127  1  0.350800  0.293400  0.916300  1.0
  C  C128  1  0.850800  0.916300  0.622900  1.0
  C  C129  1  0.350800  0.622900  0.706600  1.0
  C  C130  1  0.850800  0.706600  0.083700  1.0
  C  C131  1  0.350800  0.083700  0.377100  1.0
  C  C132  1  0.850800  0.377100  0.293400  1.0
  C  C133  1  0.649200  0.916300  0.293400  1.0
  C  C134  1  0.649200  0.706600  0.622900  1.0
  C  C135  1  0.649200  0.377100  0.083700  1.0
  C  C136  1  0.149200  0.622900  0.916300  1.0
  C  C137  1  0.149200  0.083700  0.706600  1.0
  C  C138  1  0.149200  0.293400  0.377100  1.0
  C  C139  1  0.685800  0.744700  0.118800  1.0
  C  C140  1  0.185800  0.118800  0.374100  1.0
  C  C141  1  0.685800  0.374100  0.255300  1.0
  C  C142  1  0.185800  0.255300  0.881200  1.0
  C  C143  1  0.685800  0.881200  0.625900  1.0
  C  C144  1  0.185800  0.625900  0.744700  1.0
  C  C145  1  0.314200  0.118800  0.744700  1.0
  C  C146  1  0.314200  0.255300  0.374100  1.0
  C  C147  1  0.314200  0.625900  0.881200  1.0
  C  C148  1  0.814200  0.374100  0.118800  1.0
  C  C149  1  0.814200  0.881200  0.255300  1.0
  C  C150  1  0.814200  0.744700  0.625900  1.0
  C  C151  1  0.314200  0.255300  0.881200  1.0
  C  C152  1  0.814200  0.881200  0.625900  1.0
  C  C153  1  0.314200  0.625900  0.744700  1.0
  C  C154  1  0.814200  0.744700  0.118800  1.0
  C  C155  1  0.314200  0.118800  0.374100  1.0
  C  C156  1  0.814200  0.374100  0.255300  1.0
  C  C157  1  0.685800  0.881200  0.255300  1.0
  C  C158  1  0.685800  0.744700  0.625900  1.0
  C  C159  1  0.685800  0.374100  0.118800  1.0
  C  C160  1  0.185800  0.625900  0.881200  1.0
  C  C161  1  0.185800  0.118800  0.744700  1.0
  C  C162  1  0.185800  0.255300  0.374100  1.0
  C  C163  1  0.587900  0.672300  0.005200  1.0
  C  C164  1  0.087900  0.005200  0.332900  1.0
  C  C165  1  0.587900  0.332900  0.327700  1.0
  C  C166  1  0.087900  0.327700  0.994800  1.0
  C  C167  1  0.587900  0.994800  0.667100  1.0
  C  C168  1  0.087900  0.667100  0.672300  1.0
  C  C169  1  0.412100  0.005200  0.672300  1.0
  C  C170  1  0.412100  0.327700  0.332900  1.0
  C  C171  1  0.412100  0.667100  0.994800  1.0
  C  C172  1  0.912100  0.332900  0.005200  1.0
  C  C173  1  0.912100  0.994800  0.327700  1.0
  C  C174  1  0.912100  0.672300  0.667100  1.0
  C  C175  1  0.412100  0.327700  0.994800  1.0
  C  C176  1  0.912100  0.994800  0.667100  1.0
  C  C177  1  0.412100  0.667100  0.672300  1.0
  C  C178  1  0.912100  0.672300  0.005200  1.0
  C  C179  1  0.412100  0.005200  0.332900  1.0
  C  C180  1  0.912100  0.332900  0.327700  1.0
  C  C181  1  0.587900  0.994800  0.327700  1.0
  C  C182  1  0.587900  0.672300  0.667100  1.0
  C  C183  1  0.587900  0.332900  0.005200  1.0
  C  C184  1  0.087900  0.667100  0.994800  1.0
  C  C185  1  0.087900  0.005200  0.672300  1.0
  C  C186  1  0.087900  0.327700  0.332900  1.0
  C  C187  1  0.553800  0.696100  0.045100  1.0
  C  C188  1  0.053800  0.045100  0.349000  1.0
  C  C189  1  0.553800  0.349000  0.303900  1.0
  C  C190  1  0.053800  0.303900  0.954900  1.0
  C  C191  1  0.553800  0.954900  0.651000  1.0
  C  C192  1  0.053800  0.651000  0.696100  1.0
  C  C193  1  0.446200  0.045100  0.696100  1.0
  C  C194  1  0.446200  0.303900  0.349000  1.0
  C  C195  1  0.446200  0.651000  0.954900  1.0
  C  C196  1  0.946200  0.349000  0.045100  1.0
  C  C197  1  0.946200  0.954900  0.303900  1.0
  C  C198  1  0.946200  0.696100  0.651000  1.0
  C  C199  1  0.446200  0.303900  0.954900  1.0
  C  C200  1  0.946200  0.954900  0.651000  1.0
  C  C201  1  0.446200  0.651000  0.696100  1.0
  C  C202  1  0.946200  0.696100  0.045100  1.0
  C  C203  1  0.446200  0.045100  0.349000  1.0
  C  C204  1  0.946200  0.349000  0.303900  1.0
  C  C205  1  0.553800  0.954900  0.303900  1.0
  C  C206  1  0.553800  0.696100  0.651000  1.0
  C  C207  1  0.553800  0.349000  0.045100  1.0
  C  C208  1  0.053800  0.651000  0.954900  1.0
  C  C209  1  0.053800  0.045100  0.696100  1.0
  C  C210  1  0.053800  0.303900  0.349000  1.0
  C  C211  1  0.631900  0.716000  0.108000  1.0
  C  C212  1  0.131900  0.108000  0.392000  1.0
  C  C213  1  0.631900  0.392000  0.284000  1.0
  C  C214  1  0.131900  0.284000  0.892000  1.0
  C  C215  1  0.631900  0.892000  0.608000  1.0
  C  C216  1  0.131900  0.608000  0.716000  1.0
  C  C217  1  0.368100  0.108000  0.716000  1.0
  C  C218  1  0.368100  0.284000  0.392000  1.0
  C  C219  1  0.368100  0.608000  0.892000  1.0
  C  C220  1  0.868100  0.392000  0.108000  1.0
  C  C221  1  0.868100  0.892000  0.284000  1.0
  C  C222  1  0.868100  0.716000  0.608000  1.0
  C  C223  1  0.368100  0.284000  0.892000  1.0
  C  C224  1  0.868100  0.892000  0.608000  1.0
  C  C225  1  0.368100  0.608000  0.716000  1.0
  C  C226  1  0.868100  0.716000  0.108000  1.0
  C  C227  1  0.368100  0.108000  0.392000  1.0
  C  C228  1  0.868100  0.392000  0.284000  1.0
  C  C229  1  0.631900  0.892000  0.284000  1.0
  C  C230  1  0.631900  0.716000  0.608000  1.0
  C  C231  1  0.631900  0.392000  0.108000  1.0
  C  C232  1  0.131900  0.608000  0.892000  1.0
  C  C233  1  0.131900  0.108000  0.716000  1.0
  C  C234  1  0.131900  0.284000  0.392000  1.0
  C  C235  1  0.658300  0.800200  0.105300  1.0
  C  C236  1  0.158300  0.105300  0.305100  1.0
  C  C237  1  0.658300  0.305100  0.199800  1.0
  C  C238  1  0.158300  0.199800  0.894700  1.0
  C  C239  1  0.658300  0.894700  0.694900  1.0
  C  C240  1  0.158300  0.694900  0.800200  1.0
  C  C241  1  0.341700  0.105300  0.800200  1.0
  C  C242  1  0.341700  0.199800  0.305100  1.0
  C  C243  1  0.341700  0.694900  0.894700  1.0
  C  C244  1  0.841700  0.305100  0.105300  1.0
  C  C245  1  0.841700  0.894700  0.199800  1.0
  C  C246  1  0.841700  0.800200  0.694900  1.0
  C  C247  1  0.341700  0.199800  0.894700  1.0
  C  C248  1  0.841700  0.894700  0.694900  1.0
  C  C249  1  0.341700  0.694900  0.800200  1.0
  C  C250  1  0.841700  0.800200  0.105300  1.0
  C  C251  1  0.341700  0.105300  0.305100  1.0
  C  C252  1  0.841700  0.305100  0.199800  1.0
  C  C253  1  0.658300  0.894700  0.199800  1.0
  C  C254  1  0.658300  0.800200  0.694900  1.0
  C  C255  1  0.658300  0.305100  0.105300  1.0
  C  C256  1  0.158300  0.694900  0.894700  1.0
  C  C257  1  0.158300  0.105300  0.800200  1.0
  C  C258  1  0.158300  0.199800  0.305100  1.0
  C  C259  1  0.440900  0.610000  0.147900  1.0
  C  C260  1  0.940900  0.147900  0.537900  1.0
  C  C261  1  0.440900  0.537900  0.390000  1.0
  C  C262  1  0.940900  0.390000  0.852100  1.0
  C  C263  1  0.440900  0.852100  0.462100  1.0
  C  C264  1  0.940900  0.462100  0.610000  1.0
  C  C265  1  0.559100  0.147900  0.610000  1.0
  C  C266  1  0.559100  0.390000  0.537900  1.0
  C  C267  1  0.559100  0.462100  0.852100  1.0
  C  C268  1  0.059100  0.537900  0.147900  1.0
  C  C269  1  0.059100  0.852100  0.390000  1.0
  C  C270  1  0.059100  0.610000  0.462100  1.0
  C  C271  1  0.559100  0.390000  0.852100  1.0
  C  C272  1  0.059100  0.852100  0.462100  1.0
  C  C273  1  0.559100  0.462100  0.610000  1.0
  C  C274  1  0.059100  0.610000  0.147900  1.0
  C  C275  1  0.559100  0.147900  0.537900  1.0
  C  C276  1  0.059100  0.537900  0.390000  1.0
  C  C277  1  0.440900  0.852100  0.390000  1.0
  C  C278  1  0.440900  0.610000  0.462100  1.0
  C  C279  1  0.440900  0.537900  0.147900  1.0
  C  C280  1  0.940900  0.462100  0.852100  1.0
  C  C281  1  0.940900  0.147900  0.610000  1.0
  C  C282  1  0.940900  0.390000  0.537900  1.0
  C  C283  1  0.672500  0.496400  0.917800  1.0
  C  C284  1  0.172500  0.917800  0.421400  1.0
  C  C285  1  0.672500  0.421400  0.503600  1.0
  C  C286  1  0.172500  0.503600  0.082200  1.0
  C  C287  1  0.672500  0.082200  0.578600  1.0
  C  C288  1  0.172500  0.578600  0.496400  1.0
  C  C289  1  0.327500  0.917800  0.496400  1.0
  C  C290  1  0.327500  0.503600  0.421400  1.0
  C  C291  1  0.327500  0.578600  0.082200  1.0
  C  C292  1  0.827500  0.421400  0.917800  1.0
  C  C293  1  0.827500  0.082200  0.503600  1.0
  C  C294  1  0.827500  0.496400  0.578600  1.0
  C  C295  1  0.327500  0.503600  0.082200  1.0
  C  C296  1  0.827500  0.082200  0.578600  1.0
  C  C297  1  0.327500  0.578600  0.496400  1.0
  C  C298  1  0.827500  0.496400  0.917800  1.0
  C  C299  1  0.327500  0.917800  0.421400  1.0
  C  C300  1  0.827500  0.421400  0.503600  1.0
  C  C301  1  0.672500  0.082200  0.503600  1.0
  C  C302  1  0.672500  0.496400  0.578600  1.0
  C  C303  1  0.672500  0.421400  0.917800  1.0
  C  C304  1  0.172500  0.578600  0.082200  1.0
  C  C305  1  0.172500  0.917800  0.496400  1.0
  C  C306  1  0.172500  0.503600  0.421400  1.0
  C  C307  1  0.497000  0.650000  0.088000  1.0
  C  C308  1  0.997000  0.088000  0.438000  1.0
  C  C309  1  0.497000  0.438000  0.350000  1.0
  C  C310  1  0.997000  0.350000  0.912000  1.0
  C  C311  1  0.497000  0.912000  0.562000  1.0
  C  C312  1  0.997000  0.562000  0.650000  1.0
  C  C313  1  0.503000  0.088000  0.650000  1.0
  C  C314  1  0.503000  0.350000  0.438000  1.0
  C  C315  1  0.503000  0.562000  0.912000  1.0
  C  C316  1  0.003000  0.438000  0.088000  1.0
  C  C317  1  0.003000  0.912000  0.350000  1.0
  C  C318  1  0.003000  0.650000  0.562000  1.0
  C  C319  1  0.503000  0.350000  0.912000  1.0
  C  C320  1  0.003000  0.912000  0.562000  1.0
  C  C321  1  0.503000  0.562000  0.650000  1.0
  C  C322  1  0.003000  0.650000  0.088000  1.0
  C  C323  1  0.503000  0.088000  0.438000  1.0
  C  C324  1  0.003000  0.438000  0.350000  1.0
  C  C325  1  0.497000  0.912000  0.350000  1.0
  C  C326  1  0.497000  0.650000  0.562000  1.0
  C  C327  1  0.497000  0.438000  0.088000  1.0
  C  C328  1  0.997000  0.562000  0.912000  1.0
  C  C329  1  0.997000  0.088000  0.650000  1.0
  C  C330  1  0.997000  0.350000  0.438000  1.0
  C  C331  1  0.636700  0.516000  0.953200  1.0
  C  C332  1  0.136700  0.953200  0.437200  1.0
  C  C333  1  0.636700  0.437200  0.484000  1.0
  C  C334  1  0.136700  0.484000  0.046800  1.0
  C  C335  1  0.636700  0.046800  0.562800  1.0
  C  C336  1  0.136700  0.562800  0.516000  1.0
  C  C337  1  0.363300  0.953200  0.516000  1.0
  C  C338  1  0.363300  0.484000  0.437200  1.0
  C  C339  1  0.363300  0.562800  0.046800  1.0
  C  C340  1  0.863300  0.437200  0.953200  1.0
  C  C341  1  0.863300  0.046800  0.484000  1.0
  C  C342  1  0.863300  0.516000  0.562800  1.0
  C  C343  1  0.363300  0.484000  0.046800  1.0
  C  C344  1  0.863300  0.046800  0.562800  1.0
  C  C345  1  0.363300  0.562800  0.516000  1.0
  C  C346  1  0.863300  0.516000  0.953200  1.0
  C  C347  1  0.363300  0.953200  0.437200  1.0
  C  C348  1  0.863300  0.437200  0.484000  1.0
  C  C349  1  0.636700  0.046800  0.484000  1.0
  C  C350  1  0.636700  0.516000  0.562800  1.0
  C  C351  1  0.636700  0.437200  0.953200  1.0
  C  C352  1  0.136700  0.562800  0.046800  1.0
  C  C353  1  0.136700  0.953200  0.516000  1.0
  C  C354  1  0.136700  0.484000  0.437200  1.0
  C  C355  1  0.475800  0.595200  0.113200  1.0
  C  C356  1  0.975800  0.113200  0.518000  1.0
  C  C357  1  0.475800  0.518000  0.404800  1.0
  C  C358  1  0.975800  0.404800  0.886800  1.0
  C  C359  1  0.475800  0.886800  0.482000  1.0
  C  C360  1  0.975800  0.482000  0.595200  1.0
  C  C361  1  0.524200  0.113200  0.595200  1.0
  C  C362  1  0.524200  0.404800  0.518000  1.0
  C  C363  1  0.524200  0.482000  0.886800  1.0
  C  C364  1  0.024200  0.518000  0.113200  1.0
  C  C365  1  0.024200  0.886800  0.404800  1.0
  C  C366  1  0.024200  0.595200  0.482000  1.0
  C  C367  1  0.524200  0.404800  0.886800  1.0
  C  C368  1  0.024200  0.886800  0.482000  1.0
  C  C369  1  0.524200  0.482000  0.595200  1.0
  C  C370  1  0.024200  0.595200  0.113200  1.0
  C  C371  1  0.524200  0.113200  0.518000  1.0
  C  C372  1  0.024200  0.518000  0.404800  1.0
  C  C373  1  0.475800  0.886800  0.404800  1.0
  C  C374  1  0.475800  0.595200  0.482000  1.0
  C  C375  1  0.475800  0.518000  0.113200  1.0
  C  C376  1  0.975800  0.482000  0.886800  1.0
  C  C377  1  0.975800  0.113200  0.595200  1.0
  C  C378  1  0.975800  0.404800  0.518000  1.0
  C  C379  1  0.505200  0.610500  0.082500  1.0
  C  C380  1  0.005200  0.082500  0.472000  1.0
  C  C381  1  0.505200  0.472000  0.389500  1.0
  C  C382  1  0.005200  0.389500  0.917500  1.0
  C  C383  1  0.505200  0.917500  0.528000  1.0
  C  C384  1  0.005200  0.528000  0.610500  1.0
  C  C385  1  0.494800  0.082500  0.610500  1.0
  C  C386  1  0.494800  0.389500  0.472000  1.0
  C  C387  1  0.494800  0.528000  0.917500  1.0
  C  C388  1  0.994800  0.472000  0.082500  1.0
  C  C389  1  0.994800  0.917500  0.389500  1.0
  C  C390  1  0.994800  0.610500  0.528000  1.0
  C  C391  1  0.494800  0.389500  0.917500  1.0
  C  C392  1  0.994800  0.917500  0.528000  1.0
  C  C393  1  0.494800  0.528000  0.610500  1.0
  C  C394  1  0.994800  0.610500  0.082500  1.0
  C  C395  1  0.494800  0.082500  0.472000  1.0
  C  C396  1  0.994800  0.472000  0.389500  1.0
  C  C397  1  0.505200  0.917500  0.389500  1.0
  C  C398  1  0.505200  0.610500  0.528000  1.0
  C  C399  1  0.505200  0.472000  0.082500  1.0
  C  C400  1  0.005200  0.528000  0.917500  1.0
  C  C401  1  0.005200  0.082500  0.610500  1.0
  C  C402  1  0.005200  0.389500  0.472000  1.0
  C  C403  1  0.620000  0.768800  0.073800  1.0
  C  C404  1  0.120000  0.073800  0.305000  1.0
  C  C405  1  0.620000  0.305000  0.231200  1.0
  C  C406  1  0.120000  0.231200  0.926200  1.0
  C  C407  1  0.620000  0.926200  0.695000  1.0
  C  C408  1  0.120000  0.695000  0.768800  1.0
  C  C409  1  0.380000  0.073800  0.768800  1.0
  C  C410  1  0.380000  0.231200  0.305000  1.0
  C  C411  1  0.380000  0.695000  0.926200  1.0
  C  C412  1  0.880000  0.305000  0.073800  1.0
  C  C413  1  0.880000  0.926200  0.231200  1.0
  C  C414  1  0.880000  0.768800  0.695000  1.0
  C  C415  1  0.380000  0.231200  0.926200  1.0
  C  C416  1  0.880000  0.926200  0.695000  1.0
  C  C417  1  0.380000  0.695000  0.768800  1.0
  C  C418  1  0.880000  0.768800  0.073800  1.0
  C  C419  1  0.380000  0.073800  0.305000  1.0
  C  C420  1  0.880000  0.305000  0.231200  1.0
  C  C421  1  0.620000  0.926200  0.231200  1.0
  C  C422  1  0.620000  0.768800  0.695000  1.0
  C  C423  1  0.620000  0.305000  0.073800  1.0
  C  C424  1  0.120000  0.695000  0.926200  1.0
  C  C425  1  0.120000  0.073800  0.768800  1.0
  C  C426  1  0.120000  0.231200  0.305000  1.0
  C  C427  1  0.673500  0.749600  0.140200  1.0
  C  C428  1  0.173500  0.140200  0.390600  1.0
  C  C429  1  0.673500  0.390600  0.250400  1.0
  C  C430  1  0.173500  0.250400  0.859800  1.0
  C  C431  1  0.673500  0.859800  0.609400  1.0
  C  C432  1  0.173500  0.609400  0.749600  1.0
  C  C433  1  0.326500  0.140200  0.749600  1.0
  C  C434  1  0.326500  0.250400  0.390600  1.0
  C  C435  1  0.326500  0.609400  0.859800  1.0
  C  C436  1  0.826500  0.390600  0.140200  1.0
  C  C437  1  0.826500  0.859800  0.250400  1.0
  C  C438  1  0.826500  0.749600  0.609400  1.0
  C  C439  1  0.326500  0.250400  0.859800  1.0
  C  C440  1  0.826500  0.859800  0.609400  1.0
  C  C441  1  0.326500  0.609400  0.749600  1.0
  C  C442  1  0.826500  0.749600  0.140200  1.0
  C  C443  1  0.326500  0.140200  0.390600  1.0
  C  C444  1  0.826500  0.390600  0.250400  1.0
  C  C445  1  0.673500  0.859800  0.250400  1.0
  C  C446  1  0.673500  0.749600  0.609400  1.0
  C  C447  1  0.673500  0.390600  0.140200  1.0
  C  C448  1  0.173500  0.609400  0.859800  1.0
  C  C449  1  0.173500  0.140200  0.749600  1.0
  C  C450  1  0.173500  0.250400  0.390600  1.0
  C  C451  1  0.607000  0.727000  0.074000  1.0
  C  C452  1  0.107000  0.074000  0.347000  1.0
  C  C453  1  0.607000  0.347000  0.273000  1.0
  C  C454  1  0.107000  0.273000  0.926000  1.0
  C  C455  1  0.607000  0.926000  0.653000  1.0
  C  C456  1  0.107000  0.653000  0.727000  1.0
  C  C457  1  0.393000  0.074000  0.727000  1.0
  C  C458  1  0.393000  0.273000  0.347000  1.0
  C  C459  1  0.393000  0.653000  0.926000  1.0
  C  C460  1  0.893000  0.347000  0.074000  1.0
  C  C461  1  0.893000  0.926000  0.273000  1.0
  C  C462  1  0.893000  0.727000  0.653000  1.0
  C  C463  1  0.393000  0.273000  0.926000  1.0
  C  C464  1  0.893000  0.926000  0.653000  1.0
  C  C465  1  0.393000  0.653000  0.727000  1.0
  C  C466  1  0.893000  0.727000  0.074000  1.0
  C  C467  1  0.393000  0.074000  0.347000  1.0
  C  C468  1  0.893000  0.347000  0.273000  1.0
  C  C469  1  0.607000  0.926000  0.273000  1.0
  C  C470  1  0.607000  0.727000  0.653000  1.0
  C  C471  1  0.607000  0.347000  0.074000  1.0
  C  C472  1  0.107000  0.653000  0.926000  1.0
  C  C473  1  0.107000  0.074000  0.727000  1.0
  C  C474  1  0.107000  0.273000  0.347000  1.0
  C  C475  1  0.614000  0.551000  0.975400  1.0
  C  C476  1  0.114000  0.975400  0.424400  1.0
  C  C477  1  0.614000  0.424400  0.449000  1.0
  C  C478  1  0.114000  0.449000  0.024600  1.0
  C  C479  1  0.614000  0.024600  0.575600  1.0
  C  C480  1  0.114000  0.575600  0.551000  1.0
  C  C481  1  0.386000  0.975400  0.551000  1.0
  C  C482  1  0.386000  0.449000  0.424400  1.0
  C  C483  1  0.386000  0.575600  0.024600  1.0
  C  C484  1  0.886000  0.424400  0.975400  1.0
  C  C485  1  0.886000  0.024600  0.449000  1.0
  C  C486  1  0.886000  0.551000  0.575600  1.0
  C  C487  1  0.386000  0.449000  0.024600  1.0
  C  C488  1  0.886000  0.024600  0.575600  1.0
  C  C489  1  0.386000  0.575600  0.551000  1.0
  C  C490  1  0.886000  0.551000  0.975400  1.0
  C  C491  1  0.386000  0.975400  0.424400  1.0
  C  C492  1  0.886000  0.424400  0.449000  1.0
  C  C493  1  0.614000  0.024600  0.449000  1.0
  C  C494  1  0.614000  0.551000  0.575600  1.0
  C  C495  1  0.614000  0.424400  0.975400  1.0
  C  C496  1  0.114000  0.575600  0.024600  1.0
  C  C497  1  0.114000  0.975400  0.551000  1.0
  C  C498  1  0.114000  0.449000  0.424400  1.0
  C  C499  1  0.623000  0.585000  0.966000  1.0
  C  C500  1  0.123000  0.966000  0.381000  1.0
  C  C501  1  0.623000  0.381000  0.415000  1.0
  C  C502  1  0.123000  0.415000  0.034000  1.0
  C  C503  1  0.623000  0.034000  0.619000  1.0
  C  C504  1  0.123000  0.619000  0.585000  1.0
  C  C505  1  0.377000  0.966000  0.585000  1.0
  C  C506  1  0.377000  0.415000  0.381000  1.0
  C  C507  1  0.377000  0.619000  0.034000  1.0
  C  C508  1  0.877000  0.381000  0.966000  1.0
  C  C509  1  0.877000  0.034000  0.415000  1.0
  C  C510  1  0.877000  0.585000  0.619000  1.0
  C  C511  1  0.377000  0.415000  0.034000  1.0
  C  C512  1  0.877000  0.034000  0.619000  1.0
  C  C513  1  0.377000  0.619000  0.585000  1.0
  C  C514  1  0.877000  0.585000  0.966000  1.0
  C  C515  1  0.377000  0.966000  0.381000  1.0
  C  C516  1  0.877000  0.381000  0.415000  1.0
  C  C517  1  0.623000  0.034000  0.415000  1.0
  C  C518  1  0.623000  0.585000  0.619000  1.0
  C  C519  1  0.623000  0.381000  0.966000  1.0
  C  C520  1  0.123000  0.619000  0.034000  1.0
  C  C521  1  0.123000  0.966000  0.585000  1.0
  C  C522  1  0.123000  0.415000  0.381000  1.0
  N  N523  1  0.500600  0.544700  0.089400  1.0
  N  N524  1  0.000600  0.089400  0.544700  1.0
  N  N525  1  0.500600  0.544700  0.455300  1.0
  N  N526  1  0.000600  0.455300  0.910600  1.0
  N  N527  1  0.500600  0.910600  0.455300  1.0
  N  N528  1  0.000600  0.455300  0.544700  1.0
  N  N529  1  0.499400  0.089400  0.544700  1.0
  N  N530  1  0.499400  0.455300  0.544700  1.0
  N  N531  1  0.499400  0.455300  0.910600  1.0
  N  N532  1  0.999400  0.544700  0.089400  1.0
  N  N533  1  0.999400  0.910600  0.455300  1.0
  N  N534  1  0.999400  0.544700  0.455300  1.0
  N  N535  1  0.614500  0.488200  0.976400  1.0
  N  N536  1  0.114500  0.976400  0.488200  1.0
  N  N537  1  0.614500  0.488200  0.511800  1.0
  N  N538  1  0.114500  0.511800  0.023600  1.0
  N  N539  1  0.614500  0.023600  0.511800  1.0
  N  N540  1  0.114500  0.511800  0.488200  1.0
  N  N541  1  0.385500  0.976400  0.488200  1.0
  N  N542  1  0.385500  0.511800  0.488200  1.0
  N  N543  1  0.385500  0.511800  0.023600  1.0
  N  N544  1  0.885500  0.488200  0.976400  1.0
  N  N545  1  0.885500  0.023600  0.511800  1.0
  N  N546  1  0.885500  0.488200  0.511800  1.0
  N  N547  1  0.694200  0.777200  0.112400  1.0
  N  N548  1  0.194200  0.112400  0.335200  1.0
  N  N549  1  0.694200  0.335200  0.222800  1.0
  N  N550  1  0.194200  0.222800  0.887600  1.0
  N  N551  1  0.694200  0.887600  0.664800  1.0
  N  N552  1  0.194200  0.664800  0.777200  1.0
  N  N553  1  0.305800  0.112400  0.777200  1.0
  N  N554  1  0.305800  0.222800  0.335200  1.0
  N  N555  1  0.305800  0.664800  0.887600  1.0
  N  N556  1  0.805800  0.335200  0.112400  1.0
  N  N557  1  0.805800  0.887600  0.222800  1.0
  N  N558  1  0.805800  0.777200  0.664800  1.0
  N  N559  1  0.305800  0.222800  0.887600  1.0
  N  N560  1  0.805800  0.887600  0.664800  1.0
  N  N561  1  0.305800  0.664800  0.777200  1.0
  N  N562  1  0.805800  0.777200  0.112400  1.0
  N  N563  1  0.305800  0.112400  0.335200  1.0
  N  N564  1  0.805800  0.335200  0.222800  1.0
  N  N565  1  0.694200  0.887600  0.222800  1.0
  N  N566  1  0.694200  0.777200  0.664800  1.0
  N  N567  1  0.694200  0.335200  0.112400  1.0
  N  N568  1  0.194200  0.664800  0.887600  1.0
  N  N569  1  0.194200  0.112400  0.777200  1.0
  N  N570  1  0.194200  0.222800  0.335200  1.0
  N  N571  1  0.686000  0.781100  0.133200  1.0
  N  N572  1  0.186000  0.133200  0.352100  1.0
  N  N573  1  0.686000  0.352100  0.218900  1.0
  N  N574  1  0.186000  0.218900  0.866800  1.0
  N  N575  1  0.686000  0.866800  0.647900  1.0
  N  N576  1  0.186000  0.647900  0.781100  1.0
  N  N577  1  0.314000  0.133200  0.781100  1.0
  N  N578  1  0.314000  0.218900  0.352100  1.0
  N  N579  1  0.314000  0.647900  0.866800  1.0
  N  N580  1  0.814000  0.352100  0.133200  1.0
  N  N581  1  0.814000  0.866800  0.218900  1.0
  N  N582  1  0.814000  0.781100  0.647900  1.0
  N  N583  1  0.314000  0.218900  0.866800  1.0
  N  N584  1  0.814000  0.866800  0.647900  1.0
  N  N585  1  0.314000  0.647900  0.781100  1.0
  N  N586  1  0.814000  0.781100  0.133200  1.0
  N  N587  1  0.314000  0.133200  0.352100  1.0
  N  N588  1  0.814000  0.352100  0.218900  1.0
  N  N589  1  0.686000  0.866800  0.218900  1.0
  N  N590  1  0.686000  0.781100  0.647900  1.0
  N  N591  1  0.686000  0.352100  0.133200  1.0
  N  N592  1  0.186000  0.647900  0.866800  1.0
  N  N593  1  0.186000  0.133200  0.781100  1.0
  N  N594  1  0.186000  0.218900  0.352100  1.0
  N  N595  1  0.556600  0.617200  0.030700  1.0
  N  N596  1  0.056600  0.030700  0.413500  1.0
  N  N597  1  0.556600  0.413500  0.382800  1.0
  N  N598  1  0.056600  0.382800  0.969300  1.0
  N  N599  1  0.556600  0.969300  0.586500  1.0
  N  N600  1  0.056600  0.586500  0.617200  1.0
  N  N601  1  0.443400  0.030700  0.617200  1.0
  N  N602  1  0.443400  0.382800  0.413500  1.0
  N  N603  1  0.443400  0.586500  0.969300  1.0
  N  N604  1  0.943400  0.413500  0.030700  1.0
  N  N605  1  0.943400  0.969300  0.382800  1.0
  N  N606  1  0.943400  0.617200  0.586500  1.0
  N  N607  1  0.443400  0.382800  0.969300  1.0
  N  N608  1  0.943400  0.969300  0.586500  1.0
  N  N609  1  0.443400  0.586500  0.617200  1.0
  N  N610  1  0.943400  0.617200  0.030700  1.0
  N  N611  1  0.443400  0.030700  0.413500  1.0
  N  N612  1  0.943400  0.413500  0.382800  1.0
  N  N613  1  0.556600  0.969300  0.382800  1.0
  N  N614  1  0.556600  0.617200  0.586500  1.0
  N  N615  1  0.556600  0.413500  0.030700  1.0
  N  N616  1  0.056600  0.586500  0.969300  1.0
  N  N617  1  0.056600  0.030700  0.617200  1.0
  N  N618  1  0.056600  0.382800  0.413500  1.0
  N  N619  1  0.543700  0.583700  0.044700  1.0
  N  N620  1  0.043700  0.044700  0.461000  1.0
  N  N621  1  0.543700  0.461000  0.416300  1.0
  N  N622  1  0.043700  0.416300  0.955300  1.0
  N  N623  1  0.543700  0.955300  0.539000  1.0
  N  N624  1  0.043700  0.539000  0.583700  1.0
  N  N625  1  0.456300  0.044700  0.583700  1.0
  N  N626  1  0.456300  0.416300  0.461000  1.0
  N  N627  1  0.456300  0.539000  0.955300  1.0
  N  N628  1  0.956300  0.461000  0.044700  1.0
  N  N629  1  0.956300  0.955300  0.416300  1.0
  N  N630  1  0.956300  0.583700  0.539000  1.0
  N  N631  1  0.456300  0.416300  0.955300  1.0
  N  N632  1  0.956300  0.955300  0.539000  1.0
  N  N633  1  0.456300  0.539000  0.583700  1.0
  N  N634  1  0.956300  0.583700  0.044700  1.0
  N  N635  1  0.456300  0.044700  0.461000  1.0
  N  N636  1  0.956300  0.461000  0.416300  1.0
  N  N637  1  0.543700  0.955300  0.416300  1.0
  N  N638  1  0.543700  0.583700  0.539000  1.0
  N  N639  1  0.543700  0.461000  0.044700  1.0
  N  N640  1  0.043700  0.539000  0.955300  1.0
  N  N641  1  0.043700  0.044700  0.583700  1.0
  N  N642  1  0.043700  0.416300  0.461000  1.0
  N  N643  1  0.529300  0.654000  0.057200  1.0
  N  N644  1  0.029300  0.057200  0.403200  1.0
  N  N645  1  0.529300  0.403200  0.346000  1.0
  N  N646  1  0.029300  0.346000  0.942800  1.0
  N  N647  1  0.529300  0.942800  0.596800  1.0
  N  N648  1  0.029300  0.596800  0.654000  1.0
  N  N649  1  0.470700  0.057200  0.654000  1.0
  N  N650  1  0.470700  0.346000  0.403200  1.0
  N  N651  1  0.470700  0.596800  0.942800  1.0
  N  N652  1  0.970700  0.403200  0.057200  1.0
  N  N653  1  0.970700  0.942800  0.346000  1.0
  N  N654  1  0.970700  0.654000  0.596800  1.0
  N  N655  1  0.470700  0.346000  0.942800  1.0
  N  N656  1  0.970700  0.942800  0.596800  1.0
  N  N657  1  0.470700  0.596800  0.654000  1.0
  N  N658  1  0.970700  0.654000  0.057200  1.0
  N  N659  1  0.470700  0.057200  0.403200  1.0
  N  N660  1  0.970700  0.403200  0.346000  1.0
  N  N661  1  0.529300  0.942800  0.346000  1.0
  N  N662  1  0.529300  0.654000  0.596800  1.0
  N  N663  1  0.529300  0.403200  0.057200  1.0
  N  N664  1  0.029300  0.596800  0.942800  1.0
  N  N665  1  0.029300  0.057200  0.654000  1.0
  N  N666  1  0.029300  0.346000  0.403200  1.0
  N  N667  1  0.588000  0.615800  0.990800  1.0
  N  N668  1  0.088000  0.990800  0.375000  1.0
  N  N669  1  0.588000  0.375000  0.384200  1.0
  N  N670  1  0.088000  0.384200  0.009200  1.0
  N  N671  1  0.588000  0.009200  0.625000  1.0
  N  N672  1  0.088000  0.625000  0.615800  1.0
  N  N673  1  0.412000  0.990800  0.615800  1.0
  N  N674  1  0.412000  0.384200  0.375000  1.0
  N  N675  1  0.412000  0.625000  0.009200  1.0
  N  N676  1  0.912000  0.375000  0.990800  1.0
  N  N677  1  0.912000  0.009200  0.384200  1.0
  N  N678  1  0.912000  0.615800  0.625000  1.0
  N  N679  1  0.412000  0.384200  0.009200  1.0
  N  N680  1  0.912000  0.009200  0.625000  1.0
  N  N681  1  0.412000  0.625000  0.615800  1.0
  N  N682  1  0.912000  0.615800  0.990800  1.0
  N  N683  1  0.412000  0.990800  0.375000  1.0
  N  N684  1  0.912000  0.375000  0.384200  1.0
  N  N685  1  0.588000  0.009200  0.384200  1.0
  N  N686  1  0.588000  0.615800  0.625000  1.0
  N  N687  1  0.588000  0.375000  0.990800  1.0
  N  N688  1  0.088000  0.625000  0.009200  1.0
  N  N689  1  0.088000  0.990800  0.615800  1.0
  N  N690  1  0.088000  0.384200  0.375000  1.0
  N  N691  1  0.574000  0.570400  0.015600  1.0
  N  N692  1  0.074000  0.015600  0.445200  1.0
  N  N693  1  0.574000  0.445200  0.429600  1.0
  N  N694  1  0.074000  0.429600  0.984400  1.0
  N  N695  1  0.574000  0.984400  0.554800  1.0
  N  N696  1  0.074000  0.554800  0.570400  1.0
  N  N697  1  0.426000  0.015600  0.570400  1.0
  N  N698  1  0.426000  0.429600  0.445200  1.0
  N  N699  1  0.426000  0.554800  0.984400  1.0
  N  N700  1  0.926000  0.445200  0.015600  1.0
  N  N701  1  0.926000  0.984400  0.429600  1.0
  N  N702  1  0.926000  0.570400  0.554800  1.0
  N  N703  1  0.426000  0.429600  0.984400  1.0
  N  N704  1  0.926000  0.984400  0.554800  1.0
  N  N705  1  0.426000  0.554800  0.570400  1.0
  N  N706  1  0.926000  0.570400  0.015600  1.0
  N  N707  1  0.426000  0.015600  0.445200  1.0
  N  N708  1  0.926000  0.445200  0.429600  1.0
  N  N709  1  0.574000  0.984400  0.429600  1.0
  N  N710  1  0.574000  0.570400  0.554800  1.0
  N  N711  1  0.574000  0.445200  0.015600  1.0
  N  N712  1  0.074000  0.554800  0.984400  1.0
  N  N713  1  0.074000  0.015600  0.570400  1.0
  N  N714  1  0.074000  0.429600  0.445200  1.0
