# generated using pymatgen
data_Fe2P4H64Ru2C85N20Cl3OF24
_symmetry_space_group_name_H-M   'P 1'
_cell_length_a   13.50500000
_cell_length_b   15.52000000
_cell_length_c   24.40500000
_cell_angle_alpha   74.05300000
_cell_angle_beta   79.40100000
_cell_angle_gamma   78.01900000
_symmetry_Int_Tables_number   1
_chemical_formula_structural   Fe2P4H64Ru2C85N20Cl3OF24
_chemical_formula_sum   'Fe4 P8 H128 Ru4 C170 N40 Cl6 O2 F48'
_cell_volume   4767.24649368
_cell_formula_units_Z   2
loop_
 _symmetry_equiv_pos_site_id
 _symmetry_equiv_pos_as_xyz
  1  'x, y, z'
loop_
 _atom_site_type_symbol
 _atom_site_label
 _atom_site_symmetry_multiplicity
 _atom_site_fract_x
 _atom_site_fract_y
 _atom_site_fract_z
 _atom_site_occupancy
  Fe  Fe1  1  0.978340  0.708680  0.261000  1
  Fe  Fe2  1  0.021660  0.291320  0.739000  1
  Fe  Fe3  1  0.467320  0.938860  0.285340  1
  Fe  Fe4  1  0.532680  0.061140  0.714660  1
  P  P5  1  0.954900  0.220900  0.436570  1
  P  P6  1  0.045100  0.779100  0.563430  1
  P  P7  1  0.348000  0.417600  0.413410  1
  P  P8  1  0.652000  0.582400  0.586590  1
  P  P9  1  0.250800  0.940200  0.080820  1
  P  P10  1  0.749200  0.059800  0.919180  1
  P  P11  1  0.201700  0.367800  0.051700  1
  P  P12  1  0.798300  0.632200  0.948300  1
  H  H13  1  0.478000  0.524800  0.276000  1
  H  H14  1  0.522000  0.475200  0.724000  1
  H  H15  1  0.358400  0.475000  0.241500  1
  H  H16  1  0.641600  0.525000  0.758500  1
  H  H17  1  0.324600  0.540700  0.149200  1
  H  H18  1  0.675400  0.459300  0.850800  1
  H  H19  1  0.419500  0.648700  0.090400  1
  H  H20  1  0.580500  0.351300  0.909600  1
  H  H21  1  0.508100  0.764400  0.044800  1
  H  H22  1  0.491900  0.235600  0.955200  1
  H  H23  1  0.620300  0.864800  0.998900  1
  H  H24  1  0.379700  0.135200  0.001100  1
  H  H25  1  0.748200  0.873700  0.046700  1
  H  H26  1  0.251800  0.126300  0.953300  1
  H  H27  1  0.761700  0.786600  0.137200  1
  H  H28  1  0.238300  0.213400  0.862800  1
  H  H29  1  0.764600  0.571600  0.125700  1
  H  H30  1  0.235400  0.428400  0.874300  1
  H  H31  1  0.885000  0.447300  0.113600  1
  H  H32  1  0.115000  0.552700  0.886400  1
  H  H33  1  0.940400  0.340300  0.192700  1
  H  H34  1  0.059600  0.659700  0.807300  1
  H  H35  1  0.857400  0.349400  0.283800  1
  H  H36  1  0.142600  0.650600  0.716200  1
  H  H37  1  0.787800  0.382400  0.365500  1
  H  H38  1  0.212200  0.617600  0.634500  1
  H  H39  1  0.706900  0.418900  0.447000  1
  H  H40  1  0.293100  0.581100  0.553000  1
  H  H41  1  0.578400  0.550000  0.444400  1
  H  H42  1  0.421600  0.450000  0.555600  1
  H  H43  1  0.547200  0.637000  0.353400  1
  H  H44  1  0.452800  0.363000  0.646600  1
  H  H45  1  0.709800  0.214000  0.194100  1
  H  H46  1  0.290200  0.786000  0.805900  1
  H  H47  1  0.604800  0.345900  0.213700  1
  H  H48  1  0.395200  0.654100  0.786300  1
  H  H49  1  0.551300  0.350900  0.307400  1
  H  H50  1  0.448700  0.649100  0.692600  1
  H  H51  1  0.609800  0.237500  0.382400  1
  H  H52  1  0.390200  0.762500  0.617600  1
  H  H53  1  0.674300  0.115400  0.448900  1
  H  H54  1  0.325700  0.884600  0.551100  1
  H  H55  1  0.753500  0.001000  0.511100  1
  H  H56  1  0.246500  0.999000  0.488900  1
  H  H57  1  0.833500  0.867900  0.472900  1
  H  H58  1  0.166500  0.132100  0.527100  1
  H  H59  1  0.862700  0.886100  0.376900  1
  H  H60  1  0.137300  0.113900  0.623100  1
  H  H61  1  0.957100  0.099700  0.324100  1
  H  H62  1  0.042900  0.900300  0.675900  1
  H  H63  1  0.095100  0.171800  0.298900  1
  H  H64  1  0.904900  0.828200  0.701100  1
  H  H65  1  0.170500  0.196600  0.206800  1
  H  H66  1  0.829500  0.803400  0.793200  1
  H  H67  1  0.100300  0.156700  0.135800  1
  H  H68  1  0.899700  0.843300  0.864200  1
  H  H69  1  0.015300  0.112400  0.079600  1
  H  H70  1  0.984700  0.887600  0.920400  1
  H  H71  1  0.905500  0.100500  0.023800  1
  H  H72  1  0.094500  0.899500  0.976200  1
  H  H73  1  0.757700  0.038100  0.067800  1
  H  H74  1  0.242300  0.961900  0.932200  1
  H  H75  1  0.712100  0.021500  0.165400  1
  H  H76  1  0.287900  0.978500  0.834600  1
  H  H77  1  0.184600  0.758100  0.196400  1
  H  H78  1  0.815400  0.241900  0.803600  1
  H  H79  1  0.344600  0.750900  0.220200  1
  H  H80  1  0.655400  0.249100  0.779800  1
  H  H81  1  0.375400  0.693500  0.314500  1
  H  H82  1  0.624600  0.306500  0.685500  1
  H  H83  1  0.240100  0.655000  0.387100  1
  H  H84  1  0.759900  0.345000  0.612900  1
  H  H85  1  0.095900  0.630800  0.449100  1
  H  H86  1  0.904100  0.369200  0.550900  1
  H  H87  1  0.943100  0.608300  0.505200  1
  H  H88  1  0.056900  0.391700  0.494800  1
  H  H89  1  0.796000  0.629800  0.460700  1
  H  H90  1  0.204000  0.370200  0.539300  1
  H  H91  1  0.809900  0.672900  0.363500  1
  H  H92  1  0.190100  0.327100  0.636500  1
  H  H93  1  0.022600  0.511300  0.334800  1
  H  H94  1  0.977400  0.488700  0.665200  1
  H  H95  1  0.103700  0.368500  0.319100  1
  H  H96  1  0.896300  0.631500  0.680900  1
  H  H97  1  0.151400  0.359700  0.224900  1
  H  H98  1  0.848600  0.640300  0.775100  1
  H  H99  1  0.123700  0.481900  0.150700  1
  H  H100  1  0.876300  0.518100  0.849300  1
  H  H101  1  0.060800  0.602800  0.087500  1
  H  H102  1  0.939200  0.397200  0.912500  1
  H  H103  1  0.011900  0.739000  0.020600  1
  H  H104  1  0.988100  0.261000  0.979400  1
  H  H105  1  0.959700  0.875800  0.056300  1
  H  H106  1  0.040300  0.124200  0.943700  1
  H  H107  1  0.967200  0.864000  0.149500  1
  H  H108  1  0.032800  0.136000  0.850500  1
  H  H109  1  0.392500  0.034500  0.385400  1
  H  H110  1  0.607500  0.965500  0.614600  1
  H  H111  1  0.324100  0.184200  0.392300  1
  H  H112  1  0.675900  0.815800  0.607700  1
  H  H113  1  0.310500  0.297600  0.310600  1
  H  H114  1  0.689500  0.702400  0.689400  1
  H  H115  1  0.359000  0.268500  0.222600  1
  H  H116  1  0.641000  0.731500  0.777400  1
  H  H117  1  0.443000  0.225500  0.141100  1
  H  H118  1  0.557000  0.774500  0.858900  1
  H  H119  1  0.485100  0.171400  0.060100  1
  H  H120  1  0.514900  0.828600  0.939900  1
  H  H121  1  0.535000  0.017600  0.070300  1
  H  H122  1  0.465000  0.982400  0.929700  1
  H  H123  1  0.519200  0.921600  0.159800  1
  H  H124  1  0.480800  0.078400  0.840200  1
  H  H125  1  0.281000  0.966900  0.222100  1
  H  H126  1  0.719000  0.033100  0.777900  1
  H  H127  1  0.114300  0.945000  0.245300  1
  H  H128  1  0.885700  0.055000  0.754700  1
  H  H129  1  0.049900  0.899700  0.339700  1
  H  H130  1  0.950100  0.100300  0.660300  1
  H  H131  1  0.155900  0.862200  0.410900  1
  H  H132  1  0.844100  0.137800  0.589100  1
  H  H133  1  0.284100  0.787800  0.466200  1
  H  H134  1  0.715900  0.212200  0.533800  1
  H  H135  1  0.430700  0.721500  0.513200  1
  H  H136  1  0.569300  0.278500  0.486800  1
  H  H137  1  0.582400  0.768600  0.474800  1
  H  H138  1  0.417600  0.231400  0.525200  1
  H  H139  1  0.603000  0.849700  0.382300  1
  H  H140  1  0.397000  0.150300  0.617700  1
  Ru  Ru141  1  0.643540  0.647120  0.228830  1
  Ru  Ru142  1  0.356460  0.352880  0.771170  1
  Ru  Ru143  1  0.812350  0.031360  0.267050  1
  Ru  Ru144  1  0.187650  0.968640  0.732950  1
  C  C145  1  0.765300  0.685900  0.243500  1
  C  C146  1  0.234700  0.314100  0.756500  1
  C  C147  1  0.558500  0.754100  0.252100  1
  C  C148  1  0.441500  0.245900  0.747900  1
  C  C149  1  0.893300  0.910700  0.265200  1
  C  C150  1  0.106700  0.089300  0.734800  1
  C  C151  1  0.687000  0.982500  0.274400  1
  C  C152  1  0.313000  0.017500  0.725600  1
  C  C153  1  0.467800  0.549000  0.237800  1
  C  C154  1  0.532200  0.451000  0.762200  1
  C  C155  1  0.393900  0.519800  0.217800  1
  C  C156  1  0.606100  0.480200  0.782200  1
  C  C157  1  0.374900  0.558000  0.163400  1
  C  C158  1  0.625100  0.442000  0.836600  1
  C  C159  1  0.430800  0.623400  0.128400  1
  C  C160  1  0.569200  0.376600  0.871600  1
  C  C161  1  0.504300  0.651100  0.150700  1
  C  C162  1  0.495700  0.348900  0.849300  1
  C  C163  1  0.569400  0.716500  0.118500  1
  C  C164  1  0.430600  0.283500  0.881500  1
  C  C165  1  0.560000  0.769200  0.063500  1
  C  C166  1  0.440000  0.230800  0.936500  1
  C  C167  1  0.626800  0.829100  0.035900  1
  C  C168  1  0.373200  0.170900  0.964100  1
  C  C169  1  0.702000  0.834200  0.064300  1
  C  C170  1  0.298000  0.165800  0.935700  1
  C  C171  1  0.709900  0.781300  0.118600  1
  C  C172  1  0.290100  0.218700  0.881400  1
  C  C173  1  0.784200  0.527200  0.157900  1
  C  C174  1  0.215800  0.472800  0.842100  1
  C  C175  1  0.857100  0.453100  0.150400  1
  C  C176  1  0.142900  0.546900  0.849600  1
  C  C177  1  0.888100  0.388400  0.197300  1
  C  C178  1  0.111900  0.611600  0.802700  1
  C  C179  1  0.841000  0.395100  0.251500  1
  C  C180  1  0.159000  0.604900  0.748500  1
  C  C181  1  0.767700  0.472500  0.257200  1
  C  C182  1  0.232300  0.527500  0.742800  1
  C  C183  1  0.717300  0.489000  0.313600  1
  C  C184  1  0.282700  0.511000  0.686400  1
  C  C185  1  0.739100  0.434700  0.364000  1
  C  C186  1  0.260900  0.565300  0.636000  1
  C  C187  1  0.690500  0.456200  0.411800  1
  C  C188  1  0.309500  0.543800  0.588200  1
  C  C189  1  0.614000  0.534400  0.411100  1
  C  C190  1  0.386000  0.465600  0.588900  1
  C  C191  1  0.597300  0.585400  0.356500  1
  C  C192  1  0.402700  0.414600  0.643500  1
  C  C193  1  0.690400  0.218900  0.231900  1
  C  C194  1  0.309600  0.781100  0.768100  1
  C  C195  1  0.626400  0.297400  0.243400  1
  C  C196  1  0.373600  0.702600  0.756600  1
  C  C197  1  0.596700  0.300500  0.299600  1
  C  C198  1  0.403300  0.699500  0.700400  1
  C  C199  1  0.630000  0.233800  0.344400  1
  C  C200  1  0.370000  0.766200  0.655600  1
  C  C201  1  0.695400  0.160600  0.330300  1
  C  C202  1  0.304600  0.839400  0.669700  1
  C  C203  1  0.735600  0.078500  0.374900  1
  C  C204  1  0.264400  0.921500  0.625100  1
  C  C205  1  0.718100  0.068800  0.435300  1
  C  C206  1  0.281900  0.931200  0.564700  1
  C  C207  1  0.757800  0.001200  0.472600  1
  C  C208  1  0.242200  0.998800  0.527400  1
  C  C209  1  0.810900  0.923600  0.448700  1
  C  C210  1  0.189100  0.076400  0.551300  1
  C  C211  1  0.826200  0.935000  0.391100  1
  C  C212  1  0.173800  0.065000  0.608900  1
  C  C213  1  0.984700  0.113400  0.285500  1
  C  C214  1  0.015300  0.886600  0.714500  1
  C  C215  1  0.068900  0.155000  0.271400  1
  C  C216  1  0.931100  0.845000  0.728600  1
  C  C217  1  0.111700  0.170300  0.217300  1
  C  C218  1  0.888300  0.829700  0.782700  1
  C  C219  1  0.070000  0.147200  0.173900  1
  C  C220  1  0.930000  0.852800  0.826100  1
  C  C221  1  0.980500  0.109400  0.193300  1
  C  C222  1  0.019500  0.890600  0.806700  1
  C  C223  1  0.922500  0.089200  0.153900  1
  C  C224  1  0.077500  0.910800  0.846100  1
  C  C225  1  0.951200  0.098000  0.096200  1
  C  C226  1  0.048800  0.902000  0.903800  1
  C  C227  1  0.889100  0.086400  0.063600  1
  C  C228  1  0.110900  0.913600  0.936400  1
  C  C229  1  0.798800  0.052800  0.089400  1
  C  C230  1  0.201200  0.947200  0.910600  1
  C  C231  1  0.772800  0.042400  0.147900  1
  C  C232  1  0.227200  0.957600  0.852100  1
  C  C233  1  0.195900  0.737100  0.234700  1
  C  C234  1  0.804100  0.262900  0.765300  1
  C  C235  1  0.292200  0.732200  0.248800  1
  C  C236  1  0.707800  0.267800  0.751200  1
  C  C237  1  0.310100  0.699500  0.305200  1
  C  C238  1  0.689900  0.300500  0.694800  1
  C  C239  1  0.229800  0.675400  0.348700  1
  C  C240  1  0.770200  0.324600  0.651300  1
  C  C241  1  0.132400  0.683100  0.332200  1
  C  C242  1  0.867600  0.316900  0.667800  1
  C  C243  1  0.042100  0.663800  0.372800  1
  C  C244  1  0.957900  0.336200  0.627200  1
  C  C245  1  0.037400  0.638700  0.432100  1
  C  C246  1  0.962600  0.361300  0.567900  1
  C  C247  1  0.947000  0.625500  0.465300  1
  C  C248  1  0.053000  0.374500  0.534700  1
  C  C249  1  0.858900  0.638300  0.438800  1
  C  C250  1  0.141100  0.361700  0.561200  1
  C  C251  1  0.868300  0.663300  0.380900  1
  C  C252  1  0.131700  0.336700  0.619100  1
  C  C253  1  0.044400  0.505600  0.297300  1
  C  C254  1  0.955600  0.494400  0.702700  1
  C  C255  1  0.092100  0.419100  0.288600  1
  C  C256  1  0.907900  0.580900  0.711400  1
  C  C257  1  0.119900  0.415100  0.232700  1
  C  C258  1  0.880100  0.584900  0.767300  1
  C  C259  1  0.103800  0.487600  0.188300  1
  C  C260  1  0.896200  0.512400  0.811700  1
  C  C261  1  0.056400  0.572200  0.199100  1
  C  C262  1  0.943600  0.427800  0.800900  1
  C  C263  1  0.035600  0.652900  0.154800  1
  C  C264  1  0.964400  0.347100  0.845200  1
  C  C265  1  0.039000  0.656200  0.099700  1
  C  C266  1  0.961000  0.343800  0.900300  1
  C  C267  1  0.011000  0.737500  0.059000  1
  C  C268  1  0.989000  0.262500  0.941000  1
  C  C269  1  0.980200  0.819700  0.080600  1
  C  C270  1  0.019800  0.180300  0.919400  1
  C  C271  1  0.982600  0.811400  0.136300  1
  C  C272  1  0.017400  0.188600  0.863700  1
  C  C273  1  0.385800  0.081200  0.352300  1
  C  C274  1  0.614200  0.918800  0.647700  1
  C  C275  1  0.345100  0.171300  0.356400  1
  C  C276  1  0.654900  0.828700  0.643600  1
  C  C277  1  0.337000  0.238400  0.307800  1
  C  C278  1  0.663000  0.761600  0.692200  1
  C  C279  1  0.366400  0.221800  0.255600  1
  C  C280  1  0.633600  0.778200  0.744400  1
  C  C281  1  0.409300  0.131300  0.251700  1
  C  C282  1  0.590700  0.868700  0.748300  1
  C  C283  1  0.444800  0.104500  0.199000  1
  C  C284  1  0.555200  0.895500  0.801000  1
  C  C285  1  0.455600  0.163100  0.144600  1
  C  C286  1  0.544400  0.836900  0.855400  1
  C  C287  1  0.484000  0.131600  0.096400  1
  C  C288  1  0.516000  0.868400  0.903600  1
  C  C289  1  0.510700  0.040900  0.102400  1
  C  C290  1  0.489300  0.959100  0.897600  1
  C  C291  1  0.501600  0.983900  0.156200  1
  C  C292  1  0.498400  0.016100  0.843800  1
  C  C293  1  0.256600  0.942400  0.260200  1
  C  C294  1  0.743400  0.057600  0.739800  1
  C  C295  1  0.156000  0.932300  0.273800  1
  C  C296  1  0.844000  0.067700  0.726200  1
  C  C297  1  0.119000  0.903700  0.329600  1
  C  C298  1  0.881000  0.096300  0.670400  1
  C  C299  1  0.181300  0.880000  0.372200  1
  C  C300  1  0.818700  0.120000  0.627800  1
  C  C301  1  0.285600  0.884400  0.353500  1
  C  C302  1  0.714400  0.115600  0.646500  1
  C  C303  1  0.364200  0.850100  0.392800  1
  C  C304  1  0.635800  0.149900  0.607200  1
  C  C305  1  0.348900  0.798600  0.448300  1
  C  C306  1  0.651100  0.201400  0.551700  1
  C  C307  1  0.436800  0.762400  0.477400  1
  C  C308  1  0.563200  0.237600  0.522600  1
  C  C309  1  0.527500  0.786400  0.453800  1
  C  C310  1  0.472500  0.213600  0.546200  1
  C  C311  1  0.538500  0.836800  0.399100  1
  C  C312  1  0.461500  0.163200  0.600900  1
  C  C313  1  0.656000  0.377000  0.041600  1
  C  C314  1  0.344000  0.623000  0.958400  1
  N  N315  1  0.839900  0.698000  0.252200  1
  N  N316  1  0.160100  0.302000  0.747800  1
  N  N317  1  0.521100  0.820700  0.264000  1
  N  N318  1  0.478900  0.179300  0.736000  1
  N  N319  1  0.928600  0.837600  0.262000  1
  N  N320  1  0.071400  0.162400  0.738000  1
  N  N321  1  0.608100  0.959200  0.279900  1
  N  N322  1  0.391900  0.040800  0.720100  1
  N  N323  1  0.524200  0.608600  0.206100  1
  N  N324  1  0.475800  0.391400  0.793900  1
  N  N325  1  0.646100  0.721200  0.147100  1
  N  N326  1  0.353900  0.278800  0.852900  1
  N  N327  1  0.740000  0.536800  0.211700  1
  N  N328  1  0.260000  0.463200  0.788300  1
  N  N329  1  0.647400  0.566300  0.308500  1
  N  N330  1  0.352600  0.433700  0.691500  1
  N  N331  1  0.723400  0.151400  0.275100  1
  N  N332  1  0.276600  0.848600  0.724900  1
  N  N333  1  0.793700  0.009300  0.353600  1
  N  N334  1  0.206300  0.990700  0.646400  1
  N  N335  1  0.939500  0.091300  0.249600  1
  N  N336  1  0.060500  0.908700  0.750400  1
  N  N337  1  0.830900  0.060900  0.180500  1
  N  N338  1  0.169100  0.939100  0.819500  1
  N  N339  1  0.117800  0.711600  0.276100  1
  N  N340  1  0.882200  0.288400  0.723900  1
  N  N341  1  0.956800  0.675000  0.346800  1
  N  N342  1  0.043200  0.325000  0.653200  1
  N  N343  1  0.029200  0.579700  0.253900  1
  N  N344  1  0.970800  0.420300  0.746100  1
  N  N345  1  0.006200  0.730600  0.175000  1
  N  N346  1  0.993800  0.269400  0.825000  1
  N  N347  1  0.415300  0.063400  0.299200  1
  N  N348  1  0.584700  0.936600  0.700800  1
  N  N349  1  0.468200  0.014300  0.204100  1
  N  N350  1  0.531800  0.985700  0.795900  1
  N  N351  1  0.321300  0.918600  0.299200  1
  N  N352  1  0.678700  0.081400  0.700800  1
  N  N353  1  0.459800  0.869800  0.367200  1
  N  N354  1  0.540200  0.130200  0.632800  1
  Cl  Cl355  1  0.703700  0.305900  0.998100  1
  Cl  Cl356  1  0.296300  0.694100  0.001900  1
  Cl  Cl357  1  0.605900  0.427200  0.094000  1
  Cl  Cl358  1  0.394100  0.572800  0.906000  1
  Cl  Cl359  1  0.779600  0.325600  0.078600  1
  Cl  Cl360  1  0.220400  0.674400  0.921400  1
  O  O361  1  0.514000  0.386600  0.036900  1
  O  O362  1  0.486000  0.613400  0.963100  1
  F  F363  1  0.071000  0.217400  0.424700  1
  F  F364  1  0.929000  0.782600  0.575300  1
  F  F365  1  0.841400  0.235500  0.449700  1
  F  F366  1  0.158600  0.764500  0.550300  1
  F  F367  1  0.939800  0.249400  0.372400  1
  F  F368  1  0.060200  0.750600  0.627600  1
  F  F369  1  0.971000  0.194300  0.500700  1
  F  F370  1  0.029000  0.805700  0.499300  1
  F  F371  1  0.947300  0.325700  0.433700  1
  F  F372  1  0.052700  0.674300  0.566300  1
  F  F373  1  0.962300  0.122700  0.433600  1
  F  F374  1  0.037700  0.877300  0.566400  1
  F  F375  1  0.365800  0.412800  0.474700  1
  F  F376  1  0.634200  0.587200  0.525300  1
  F  F377  1  0.330200  0.419900  0.351600  1
  F  F378  1  0.669800  0.580100  0.648400  1
  F  F379  1  0.306800  0.326300  0.438200  1
  F  F380  1  0.693200  0.673700  0.561800  1
  F  F381  1  0.389400  0.508700  0.387800  1
  F  F382  1  0.610600  0.491300  0.612200  1
  F  F383  1  0.240100  0.468500  0.424700  1
  F  F384  1  0.759900  0.531500  0.575300  1
  F  F385  1  0.459900  0.365600  0.401700  1
  F  F386  1  0.540100  0.634400  0.598300  1
  F  F387  1  0.232500  0.847500  0.073400  1
  F  F388  1  0.767500  0.152500  0.926600  1
  F  F389  1  0.265200  0.033400  0.090600  1
  F  F390  1  0.734800  0.966600  0.909400  1
  F  F391  1  0.157500  0.935200  0.131900  1
  F  F392  1  0.842500  0.064800  0.868100  1
  F  F393  1  0.343200  0.945700  0.029600  1
  F  F394  1  0.656800  0.054300  0.970400  1
  F  F395  1  0.174600  0.995300  0.037700  1
  F  F396  1  0.825400  0.004700  0.962300  1
  F  F397  1  0.332200  0.885500  0.124200  1
  F  F398  1  0.667800  0.114500  0.875800  1
  F  F399  1  0.199000  0.463800  0.053300  1
  F  F400  1  0.801000  0.536200  0.946700  1
  F  F401  1  0.216000  0.268300  0.058700  1
  F  F402  1  0.784000  0.731700  0.941300  1
  F  F403  1  0.104200  0.371300  0.091900  1
  F  F404  1  0.895800  0.628700  0.908100  1
  F  F405  1  0.329000  0.350800  0.033000  1
  F  F406  1  0.671000  0.649200  0.967000  1
  F  F407  1  0.258000  0.348800  0.115500  1
  F  F408  1  0.742000  0.651200  0.884500  1
  F  F409  1  0.205000  0.397800  0.991400  1
  F  F410  1  0.795000  0.602200  0.008600  1
