# generated using pymatgen
data_ZnH16C23I2N2ClO4
_symmetry_space_group_name_H-M   'P 1'
_cell_length_a   8.94600000
_cell_length_b   9.91200000
_cell_length_c   27.65720000
_cell_angle_alpha   90.00000000
_cell_angle_beta   90.75900000
_cell_angle_gamma   90.00000000
_symmetry_Int_Tables_number   1
_chemical_formula_structural   ZnH16C23I2N2ClO4
_chemical_formula_sum   'Zn4 H64 C92 I8 N8 Cl4 O16'
_cell_volume   2452.22485739
_cell_formula_units_Z   4
loop_
 _symmetry_equiv_pos_site_id
 _symmetry_equiv_pos_as_xyz
  1  'x, y, z'
loop_
 _atom_site_type_symbol
 _atom_site_label
 _atom_site_symmetry_multiplicity
 _atom_site_fract_x
 _atom_site_fract_y
 _atom_site_fract_z
 _atom_site_occupancy
  Zn  Zn1  1  0.757990  0.558700  0.083720  1.0
  Zn  Zn2  1  0.242010  0.058700  0.416280  1.0
  Zn  Zn3  1  0.242010  0.441300  0.916280  1.0
  Zn  Zn4  1  0.757990  0.941300  0.583720  1.0
  H  H5  1  0.100200  0.983600  0.955000  1.0
  H  H6  1  0.899800  0.483600  0.545000  1.0
  H  H7  1  0.899800  0.016400  0.045000  1.0
  H  H8  1  0.100200  0.516400  0.455000  1.0
  H  H9  1  0.043200  0.127900  0.970900  1.0
  H  H10  1  0.956800  0.627900  0.529100  1.0
  H  H11  1  0.956800  0.872100  0.029100  1.0
  H  H12  1  0.043200  0.372100  0.470900  1.0
  H  H13  1  0.095600  0.589600  0.082700  1.0
  H  H14  1  0.904400  0.089600  0.417300  1.0
  H  H15  1  0.904400  0.410400  0.917300  1.0
  H  H16  1  0.095600  0.910400  0.582700  1.0
  H  H17  1  0.280000  0.721100  0.116800  1.0
  H  H18  1  0.720000  0.221100  0.383200  1.0
  H  H19  1  0.720000  0.278900  0.883200  1.0
  H  H20  1  0.280000  0.778900  0.616800  1.0
  H  H21  1  0.961100  0.974900  0.164200  1.0
  H  H22  1  0.038900  0.474900  0.335800  1.0
  H  H23  1  0.038900  0.025100  0.835800  1.0
  H  H24  1  0.961100  0.525100  0.664200  1.0
  H  H25  1  0.783100  0.833200  0.131000  1.0
  H  H26  1  0.216900  0.333200  0.369000  1.0
  H  H27  1  0.216900  0.166800  0.869000  1.0
  H  H28  1  0.783100  0.666800  0.631000  1.0
  H  H29  1  0.537900  0.814800  0.235300  1.0
  H  H30  1  0.462100  0.314800  0.264700  1.0
  H  H31  1  0.462100  0.185200  0.764700  1.0
  H  H32  1  0.537900  0.685200  0.735300  1.0
  H  H33  1  0.744700  0.798600  0.296100  1.0
  H  H34  1  0.255300  0.298600  0.203900  1.0
  H  H35  1  0.255300  0.201400  0.703900  1.0
  H  H36  1  0.744700  0.701400  0.796100  1.0
  H  H37  1  0.965500  0.882600  0.327300  1.0
  H  H38  1  0.034500  0.382600  0.172700  1.0
  H  H39  1  0.034500  0.117400  0.672700  1.0
  H  H40  1  0.965500  0.617400  0.827300  1.0
  H  H41  1  0.063800  0.085400  0.300300  1.0
  H  H42  1  0.936200  0.585400  0.199700  1.0
  H  H43  1  0.936200  0.914600  0.699700  1.0
  H  H44  1  0.063800  0.414600  0.800300  1.0
  H  H45  1  0.935200  0.214200  0.243200  1.0
  H  H46  1  0.064800  0.714200  0.256800  1.0
  H  H47  1  0.064800  0.785800  0.756800  1.0
  H  H48  1  0.935200  0.285800  0.743200  1.0
  H  H49  1  0.724700  0.233400  0.184300  1.0
  H  H50  1  0.275300  0.733400  0.315700  1.0
  H  H51  1  0.275300  0.766600  0.815700  1.0
  H  H52  1  0.724700  0.266600  0.684300  1.0
  H  H53  1  0.234700  0.440100  0.025900  1.0
  H  H54  1  0.765300  0.940100  0.474100  1.0
  H  H55  1  0.765300  0.559900  0.974100  1.0
  H  H56  1  0.234700  0.059900  0.525900  1.0
  H  H57  1  0.335600  0.321800  0.090800  1.0
  H  H58  1  0.664400  0.821800  0.409200  1.0
  H  H59  1  0.664400  0.678200  0.909200  1.0
  H  H60  1  0.335600  0.178200  0.590800  1.0
  H  H61  1  0.589100  0.114200  0.996800  1.0
  H  H62  1  0.410900  0.614200  0.503200  1.0
  H  H63  1  0.410900  0.885800  0.003200  1.0
  H  H64  1  0.589100  0.385800  0.496800  1.0
  H  H65  1  0.478800  0.235600  0.934000  1.0
  H  H66  1  0.521200  0.735600  0.566000  1.0
  H  H67  1  0.521200  0.764400  0.066000  1.0
  H  H68  1  0.478800  0.264400  0.434000  1.0
  C  C69  1  0.040100  0.031000  0.979500  1.0
  C  C70  1  0.959900  0.531000  0.520500  1.0
  C  C71  1  0.959900  0.969000  0.020500  1.0
  C  C72  1  0.040100  0.469000  0.479500  1.0
  C  C73  1  0.067800  0.668100  0.100130  1.0
  C  C74  1  0.932200  0.168100  0.399870  1.0
  C  C75  1  0.932200  0.331900  0.899870  1.0
  C  C76  1  0.067800  0.831900  0.600130  1.0
  C  C77  1  0.178200  0.746400  0.119860  1.0
  C  C78  1  0.821800  0.246400  0.380140  1.0
  C  C79  1  0.821800  0.253600  0.880140  1.0
  C  C80  1  0.178200  0.753600  0.619860  1.0
  C  C81  1  0.140700  0.862800  0.144380  1.0
  C  C82  1  0.859300  0.362800  0.355620  1.0
  C  C83  1  0.859300  0.137200  0.855620  1.0
  C  C84  1  0.140700  0.637200  0.644380  1.0
  C  C85  1  0.990900  0.895000  0.148000  1.0
  C  C86  1  0.009100  0.395000  0.352000  1.0
  C  C87  1  0.009100  0.105000  0.852000  1.0
  C  C88  1  0.990900  0.605000  0.648000  1.0
  C  C89  1  0.885700  0.810500  0.128000  1.0
  C  C90  1  0.114300  0.310500  0.372000  1.0
  C  C91  1  0.114300  0.189500  0.872000  1.0
  C  C92  1  0.885700  0.689500  0.628000  1.0
  C  C93  1  0.254300  0.949400  0.169500  1.0
  C  C94  1  0.745700  0.449400  0.330500  1.0
  C  C95  1  0.745700  0.050600  0.830500  1.0
  C  C96  1  0.254300  0.550600  0.669500  1.0
  C  C97  1  0.511700  0.966800  0.187460  1.0
  C  C98  1  0.488300  0.466800  0.312540  1.0
  C  C99  1  0.488300  0.033200  0.812540  1.0
  C  C100  1  0.511700  0.533200  0.687460  1.0
  C  C101  1  0.577800  0.898400  0.224750  1.0
  C  C102  1  0.422200  0.398400  0.275250  1.0
  C  C103  1  0.422200  0.101600  0.775250  1.0
  C  C104  1  0.577800  0.601600  0.724750  1.0
  C  C105  1  0.706600  0.953300  0.247560  1.0
  C  C106  1  0.293400  0.453300  0.252440  1.0
  C  C107  1  0.293400  0.046700  0.752440  1.0
  C  C108  1  0.706600  0.546700  0.747560  1.0
  C  C109  1  0.783500  0.881500  0.284400  1.0
  C  C110  1  0.216500  0.381500  0.215600  1.0
  C  C111  1  0.216500  0.118500  0.715600  1.0
  C  C112  1  0.783500  0.618500  0.784400  1.0
  C  C113  1  0.913200  0.931900  0.302900  1.0
  C  C114  1  0.086800  0.431900  0.197100  1.0
  C  C115  1  0.086800  0.068100  0.697100  1.0
  C  C116  1  0.913200  0.568100  0.802900  1.0
  C  C117  1  0.971500  0.053900  0.287200  1.0
  C  C118  1  0.028500  0.553900  0.212800  1.0
  C  C119  1  0.028500  0.946100  0.712800  1.0
  C  C120  1  0.971500  0.446100  0.787200  1.0
  C  C121  1  0.896800  0.129200  0.252900  1.0
  C  C122  1  0.103200  0.629200  0.247100  1.0
  C  C123  1  0.103200  0.870800  0.747100  1.0
  C  C124  1  0.896800  0.370800  0.752900  1.0
  C  C125  1  0.761500  0.078900  0.232200  1.0
  C  C126  1  0.238500  0.578900  0.267800  1.0
  C  C127  1  0.238500  0.921100  0.767800  1.0
  C  C128  1  0.761500  0.421100  0.732200  1.0
  C  C129  1  0.688900  0.147800  0.194420  1.0
  C  C130  1  0.311100  0.647800  0.305580  1.0
  C  C131  1  0.311100  0.852200  0.805580  1.0
  C  C132  1  0.688900  0.352200  0.694420  1.0
  C  C133  1  0.566200  0.091700  0.172100  1.0
  C  C134  1  0.433800  0.591700  0.327900  1.0
  C  C135  1  0.433800  0.908300  0.827900  1.0
  C  C136  1  0.566200  0.408300  0.672100  1.0
  C  C137  1  0.541700  0.120500  0.088980  1.0
  C  C138  1  0.458300  0.620500  0.411020  1.0
  C  C139  1  0.458300  0.879500  0.911020  1.0
  C  C140  1  0.541700  0.379500  0.588980  1.0
  C  C141  1  0.306500  0.371600  0.020000  1.0
  C  C142  1  0.693500  0.871600  0.480000  1.0
  C  C143  1  0.693500  0.628400  0.980000  1.0
  C  C144  1  0.306500  0.128400  0.520000  1.0
  C  C145  1  0.366600  0.302200  0.058850  1.0
  C  C146  1  0.633400  0.802200  0.441150  1.0
  C  C147  1  0.633400  0.697800  0.941150  1.0
  C  C148  1  0.366600  0.197800  0.558850  1.0
  C  C149  1  0.473000  0.203200  0.050520  1.0
  C  C150  1  0.527000  0.703200  0.449480  1.0
  C  C151  1  0.527000  0.796800  0.949480  1.0
  C  C152  1  0.473000  0.296800  0.550520  1.0
  C  C153  1  0.515000  0.180000  0.003600  1.0
  C  C154  1  0.485000  0.680000  0.496400  1.0
  C  C155  1  0.485000  0.820000  0.996400  1.0
  C  C156  1  0.515000  0.320000  0.503600  1.0
  C  C157  1  0.449100  0.252900  0.966280  1.0
  C  C158  1  0.550900  0.752900  0.533720  1.0
  C  C159  1  0.550900  0.747100  0.033720  1.0
  C  C160  1  0.449100  0.247100  0.466280  1.0
  I  I161  1  0.574810  0.547520  0.152920  1.0
  I  I162  1  0.425190  0.047520  0.347080  1.0
  I  I163  1  0.425190  0.452480  0.847080  1.0
  I  I164  1  0.574810  0.952480  0.652920  1.0
  I  I165  1  0.884670  0.343930  0.055100  1.0
  I  I166  1  0.115330  0.843930  0.444900  1.0
  I  I167  1  0.115330  0.656070  0.944900  1.0
  I  I168  1  0.884670  0.156070  0.555100  1.0
  N  N169  1  0.921500  0.696400  0.104150  1.0
  N  N170  1  0.078500  0.196400  0.395850  1.0
  N  N171  1  0.078500  0.303600  0.895850  1.0
  N  N172  1  0.921500  0.803600  0.604150  1.0
  N  N173  1  0.345400  0.346400  0.974150  1.0
  N  N174  1  0.654600  0.846400  0.525850  1.0
  N  N175  1  0.654600  0.653600  0.025850  1.0
  N  N176  1  0.345400  0.153600  0.474150  1.0
  Cl  Cl177  1  0.132400  0.017000  0.029830  1.0
  Cl  Cl178  1  0.867600  0.517000  0.470170  1.0
  Cl  Cl179  1  0.867600  0.983000  0.970170  1.0
  Cl  Cl180  1  0.132400  0.483000  0.529830  1.0
  O  O181  1  0.225400  0.046600  0.192710  1.0
  O  O182  1  0.774600  0.546600  0.307290  1.0
  O  O183  1  0.774600  0.953400  0.807290  1.0
  O  O184  1  0.225400  0.453400  0.692710  1.0
  O  O185  1  0.392900  0.904600  0.161400  1.0
  O  O186  1  0.607100  0.404600  0.338600  1.0
  O  O187  1  0.607100  0.095400  0.838600  1.0
  O  O188  1  0.392900  0.595400  0.661400  1.0
  O  O189  1  0.625700  0.029000  0.081920  1.0
  O  O190  1  0.374300  0.529000  0.418080  1.0
  O  O191  1  0.374300  0.971000  0.918080  1.0
  O  O192  1  0.625700  0.471000  0.581920  1.0
  O  O193  1  0.496200  0.158600  0.133660  1.0
  O  O194  1  0.503800  0.658600  0.366340  1.0
  O  O195  1  0.503800  0.841400  0.866340  1.0
  O  O196  1  0.496200  0.341400  0.633660  1.0
