# generated using pymatgen
data_Zn2H36C48I4Br7(NO2)4
_symmetry_space_group_name_H-M   'P 1'
_cell_length_a   10.86200000
_cell_length_b   15.16710000
_cell_length_c   20.11070000
_cell_angle_alpha   110.59600000
_cell_angle_beta   105.02000000
_cell_angle_gamma   91.95400000
_symmetry_Int_Tables_number   1
_chemical_formula_structural   Zn2H36C48I4Br7(NO2)4
_chemical_formula_sum   'Zn4 H72 C96 I8 Br14 N8 O16'
_cell_volume   2966.52980733
_cell_formula_units_Z   2
loop_
 _symmetry_equiv_pos_site_id
 _symmetry_equiv_pos_as_xyz
  1  'x, y, z'
loop_
 _atom_site_type_symbol
 _atom_site_label
 _atom_site_symmetry_multiplicity
 _atom_site_fract_x
 _atom_site_fract_y
 _atom_site_fract_z
 _atom_site_occupancy
  Zn  Zn1  1  0.434150  0.639560  0.154160  1.0
  Zn  Zn2  1  0.565850  0.360440  0.845840  1.0
  Zn  Zn3  1  0.556880  0.357900  0.343590  1.0
  Zn  Zn4  1  0.443120  0.642100  0.656410  1.0
  H  H5  1  0.650600  0.038600  0.931300  1
  H  H6  1  0.349400  0.961400  0.068700  1
  H  H7  1  0.515500  0.971300  0.891000  1
  H  H8  1  0.484500  0.028700  0.109000  1
  H  H9  1  0.574700  0.966600  0.418000  1
  H  H10  1  0.425300  0.033400  0.582000  1
  H  H11  1  0.698200  0.037500  0.427900  1
  H  H12  1  0.301800  0.962500  0.572100  1
  H  H13  1  0.897700  0.375600  0.780900  1
  H  H14  1  0.102300  0.624400  0.219100  1
  H  H15  1  0.049400  0.372400  0.800700  1
  H  H16  1  0.950600  0.627600  0.199300  1
  H  H17  1  0.169300  0.437400  0.503200  1
  H  H18  1  0.830700  0.562600  0.496800  1
  H  H19  1  0.047100  0.364700  0.492300  1
  H  H20  1  0.952900  0.635300  0.507700  1
  H  H21  1  0.371400  0.447300  0.037300  1.0
  H  H22  1  0.628600  0.552700  0.962700  1.0
  H  H23  1  0.306400  0.291500  0.018400  1.0
  H  H24  1  0.693600  0.708500  0.981600  1.0
  H  H25  1  0.252700  0.382300  0.222100  1.0
  H  H26  1  0.747300  0.617700  0.777900  1.0
  H  H27  1  0.333600  0.536500  0.239300  1.0
  H  H28  1  0.666400  0.463500  0.760700  1.0
  H  H29  1  0.259700  0.098800  0.224100  1.0
  H  H30  1  0.740300  0.901200  0.775900  1.0
  H  H31  1  0.239800  0.957800  0.261000  1.0
  H  H32  1  0.760200  0.042200  0.739000  1.0
  H  H33  1  0.116300  0.824000  0.252100  1.0
  H  H34  1  0.883700  0.176000  0.747900  1.0
  H  H35  1  0.910000  0.769000  0.164200  1.0
  H  H36  1  0.090000  0.231000  0.835800  1.0
  H  H37  1  0.827100  0.853200  0.093200  1.0
  H  H38  1  0.172900  0.146800  0.906800  1.0
  H  H39  1  0.845600  0.993800  0.057200  1.0
  H  H40  1  0.154400  0.006200  0.942800  1.0
  H  H41  1  0.718600  0.342200  0.098500  1.0
  H  H42  1  0.281400  0.657800  0.901500  1.0
  H  H43  1  0.607000  0.397100  0.009900  1.0
  H  H44  1  0.393000  0.602900  0.990100  1.0
  H  H45  1  0.793200  0.262100  0.870500  1.0
  H  H46  1  0.206800  0.737900  0.129500  1.0
  H  H47  1  0.912900  0.203800  0.956600  1.0
  H  H48  1  0.087100  0.796200  0.043400  1.0
  H  H49  1  0.696500  0.460700  0.272000  1.0
  H  H50  1  0.303500  0.539300  0.728000  1.0
  H  H51  1  0.775600  0.613000  0.289500  1.0
  H  H52  1  0.224400  0.387000  0.710500  1.0
  H  H53  1  0.638100  0.712900  0.466700  1.0
  H  H54  1  0.361900  0.287100  0.533300  1.0
  H  H55  1  0.563300  0.555300  0.445300  1.0
  H  H56  1  0.436700  0.444700  0.554700  1.0
  H  H57  1  0.735700  0.897200  0.276100  1.0
  H  H58  1  0.264300  0.102800  0.723900  1.0
  H  H59  1  0.753100  0.038600  0.239300  1.0
  H  H60  1  0.246900  0.961400  0.760700  1.0
  H  H61  1  0.875000  0.172700  0.248200  1.0
  H  H62  1  0.125000  0.827300  0.751800  1.0
  H  H63  1  0.079100  0.225700  0.333700  1.0
  H  H64  1  0.920900  0.774300  0.666300  1.0
  H  H65  1  0.164100  0.145700  0.408100  1.0
  H  H66  1  0.835900  0.854300  0.591900  1.0
  H  H67  1  0.149900  0.006100  0.443900  1.0
  H  H68  1  0.850100  0.993900  0.556100  1.0
  H  H69  1  0.231600  0.761700  0.642600  1.0
  H  H70  1  0.768400  0.238300  0.357400  1.0
  H  H71  1  0.121100  0.825400  0.558900  1.0
  H  H72  1  0.878900  0.174600  0.441100  1.0
  H  H73  1  0.230500  0.628500  0.397700  1.0
  H  H74  1  0.769500  0.371500  0.602300  1.0
  H  H75  1  0.357000  0.581300  0.486200  1.0
  H  H76  1  0.643000  0.418700  0.513800  1.0
  C  C77  1  0.557000  0.037800  0.909800  1
  C  C78  1  0.443000  0.962200  0.090200  1
  C  C79  1  0.610000  0.034000  0.432700  1
  C  C80  1  0.390000  0.966000  0.567300  1
  C  C81  1  0.982900  0.414900  0.808000  1
  C  C82  1  0.017100  0.585100  0.192000  1
  C  C83  1  0.075200  0.429200  0.495600  1
  C  C84  1  0.924800  0.570800  0.504400  1
  C  C85  1  0.350400  0.433500  0.075900  1.0
  C  C86  1  0.649600  0.566500  0.924100  1.0
  C  C87  1  0.309900  0.341400  0.063800  1.0
  C  C88  1  0.690100  0.658600  0.936200  1.0
  C  C89  1  0.273600  0.322400  0.120000  1.0
  C  C90  1  0.726400  0.677600  0.880000  1.0
  C  C91  1  0.279600  0.393900  0.184300  1.0
  C  C92  1  0.720400  0.606100  0.815700  1.0
  C  C93  1  0.326400  0.485900  0.193600  1.0
  C  C94  1  0.673600  0.514100  0.806400  1.0
  C  C95  1  0.231800  0.219900  0.106700  1.0
  C  C96  1  0.768200  0.780100  0.893300  1.0
  C  C97  1  0.119800  0.126700  0.149700  1.0
  C  C98  1  0.880200  0.873300  0.850300  1.0
  C  C99  1  0.175300  0.077000  0.190900  1.0
  C  C100  1  0.824700  0.923000  0.809100  1.0
  C  C101  1  0.105000  0.991700  0.183800  1.0
  C  C102  1  0.895000  0.008300  0.816200  1.0
  C  C103  1  0.155500  0.938200  0.227400  1.0
  C  C104  1  0.844500  0.061800  0.772600  1.0
  C  C105  1  0.083000  0.858000  0.221300  1.0
  C  C106  1  0.917000  0.142000  0.778700  1.0
  C  C107  1  0.958500  0.825500  0.169200  1.0
  C  C108  1  0.041500  0.174500  0.830800  1.0
  C  C109  1  0.910600  0.874700  0.127500  1.0
  C  C110  1  0.089400  0.125300  0.872500  1.0
  C  C111  1  0.983600  0.961100  0.133200  1.0
  C  C112  1  0.016400  0.038900  0.866800  1.0
  C  C113  1  0.929300  0.014400  0.091300  1.0
  C  C114  1  0.070700  0.985600  0.908700  1.0
  C  C115  1  0.999000  0.096200  0.100500  1.0
  C  C116  1  0.001000  0.903800  0.899500  1.0
  C  C117  1  0.885100  0.221800  0.088300  1.0
  C  C118  1  0.114900  0.778200  0.911700  1.0
  C  C119  1  0.823300  0.264400  0.034800  1.0
  C  C120  1  0.176700  0.735600  0.965200  1.0
  C  C121  1  0.734400  0.323800  0.051500  1.0
  C  C122  1  0.265600  0.676200  0.948500  1.0
  C  C123  1  0.668800  0.355900  0.998400  1.0
  C  C124  1  0.331200  0.644100  0.001600  1.0
  C  C125  1  0.776500  0.277900  0.917100  1.0
  C  C126  1  0.223500  0.722100  0.082900  1.0
  C  C127  1  0.848400  0.242300  0.968000  1.0
  C  C128  1  0.151600  0.757700  0.032000  1.0
  C  C129  1  0.684700  0.512700  0.312200  1.0
  C  C130  1  0.315300  0.487300  0.687800  1.0
  C  C131  1  0.731000  0.602700  0.321600  1.0
  C  C132  1  0.269000  0.397300  0.678400  1.0
  C  C133  1  0.711100  0.677700  0.378700  1.0
  C  C134  1  0.288900  0.322300  0.621300  1.0
  C  C135  1  0.650100  0.661600  0.426200  1.0
  C  C136  1  0.349900  0.338400  0.573800  1.0
  C  C137  1  0.606300  0.567200  0.413100  1.0
  C  C138  1  0.393700  0.432800  0.586900  1.0
  C  C139  1  0.757500  0.779600  0.393200  1.0
  C  C140  1  0.242500  0.220400  0.606800  1.0
  C  C141  1  0.872900  0.871600  0.351300  1.0
  C  C142  1  0.127100  0.128400  0.648700  1.0
  C  C143  1  0.819600  0.919800  0.309800  1.0
  C  C144  1  0.180400  0.080200  0.690200  1.0
  C  C145  1  0.889100  0.006500  0.316000  1.0
  C  C146  1  0.110900  0.993500  0.684000  1.0
  C  C147  1  0.837500  0.058700  0.272800  1.0
  C  C148  1  0.162500  0.941300  0.727200  1.0
  C  C149  1  0.908700  0.138500  0.278800  1.0
  C  C150  1  0.091300  0.861500  0.721200  1.0
  C  C151  1  0.030600  0.169800  0.329700  1.0
  C  C152  1  0.969400  0.830200  0.670300  1.0
  C  C153  1  0.081100  0.122400  0.373400  1.0
  C  C154  1  0.918900  0.877600  0.626600  1.0
  C  C155  1  0.012300  0.038300  0.368500  1.0
  C  C156  1  0.987700  0.961700  0.631500  1.0
  C  C157  1  0.065800  0.985400  0.410200  1.0
  C  C158  1  0.934200  0.014600  0.589800  1.0
  C  C159  1  0.996900  0.903600  0.402200  1.0
  C  C160  1  0.003100  0.096400  0.597800  1.0
  C  C161  1  0.097800  0.773400  0.414700  1.0
  C  C162  1  0.902200  0.226600  0.585300  1.0
  C  C163  1  0.236500  0.737600  0.593100  1.0
  C  C164  1  0.763500  0.262400  0.406900  1.0
  C  C165  1  0.166800  0.773500  0.542600  1.0
  C  C166  1  0.833200  0.226500  0.457400  1.0
  C  C167  1  0.163200  0.733800  0.468200  1.0
  C  C168  1  0.836800  0.266200  0.531800  1.0
  C  C169  1  0.233300  0.659600  0.448300  1.0
  C  C170  1  0.766700  0.340400  0.551700  1.0
  C  C171  1  0.306800  0.630700  0.501100  1.0
  C  C172  1  0.693200  0.369300  0.498900  1.0
  I  I173  1  0.650510  0.624760  0.126900  1.0
  I  I174  1  0.349490  0.375240  0.873100  1.0
  I  I175  1  0.417030  0.753950  0.277850  1.0
  I  I176  1  0.582970  0.246050  0.722150  1.0
  I  I177  1  0.568220  0.245530  0.218400  1.0
  I  I178  1  0.431780  0.754470  0.781600  1.0
  I  I179  1  0.346890  0.367830  0.378750  1.0
  I  I180  1  0.653110  0.632170  0.621250  1.0
  Br  Br181  1  0.535670  0.076610  0.831080  1
  Br  Br182  1  0.464330  0.923390  0.168920  1
  Br  Br183  1  0.490500  0.112890  0.986410  1
  Br  Br184  1  0.509500  0.887110  0.013590  1
  Br  Br185  1  0.606300  0.109550  0.531680  1
  Br  Br186  1  0.393700  0.890450  0.468320  1
  Br  Br187  1  0.492400  0.099000  0.371000  1
  Br  Br188  1  0.507600  0.901000  0.629000  1
  Br  Br189  1  0.002910  0.508410  0.765430  1
  Br  Br190  1  0.997090  0.491590  0.234570  1
  Br  Br191  1  0.995660  0.465660  0.907550  1
  Br  Br192  1  0.004340  0.534340  0.092450  1
  Br  Br193  1  0.983400  0.452100  0.409500  1
  Br  Br194  1  0.016600  0.547900  0.590500  1
  N  N195  1  0.361500  0.505300  0.140900  1.0
  N  N196  1  0.638500  0.494700  0.859100  1.0
  N  N197  1  0.687100  0.332100  0.930400  1.0
  N  N198  1  0.312900  0.667900  0.069600  1.0
  N  N199  1  0.622700  0.493800  0.357400  1.0
  N  N200  1  0.377300  0.506200  0.642600  1.0
  N  N201  1  0.311100  0.669400  0.573800  1.0
  N  N202  1  0.688900  0.330600  0.426200  1.0
  O  O203  1  0.238000  0.153900  0.055100  1.0
  O  O204  1  0.762000  0.846100  0.944900  1.0
  O  O205  1  0.182600  0.216700  0.161300  1.0
  O  O206  1  0.817400  0.783300  0.838700  1.0
  O  O207  1  0.885600  0.249500  0.152400  1.0
  O  O208  1  0.114400  0.750500  0.847600  1.0
  O  O209  1  0.947100  0.149600  0.058000  1.0
  O  O210  1  0.052900  0.850400  0.942000  1.0
  O  O211  1  0.744300  0.846000  0.442100  1.0
  O  O212  1  0.255700  0.154000  0.557900  1.0
  O  O213  1  0.812100  0.782200  0.340100  1.0
  O  O214  1  0.187900  0.217800  0.659900  1.0
  O  O215  1  0.088900  0.739100  0.348400  1.0
  O  O216  1  0.911100  0.260900  0.651600  1.0
  O  O217  1  0.048300  0.851400  0.445600  1.0
  O  O218  1  0.951700  0.148600  0.554400  1.0
