# generated using pymatgen
data_Zn2H36C48I11(NO2)4
_symmetry_space_group_name_H-M   'P 1'
_cell_length_a   9.82980000
_cell_length_b   10.83560000
_cell_length_c   15.06660000
_cell_angle_alpha   95.58700000
_cell_angle_beta   96.71700000
_cell_angle_gamma   97.68000000
_symmetry_Int_Tables_number   1
_chemical_formula_structural   Zn2H36C48I11(NO2)4
_chemical_formula_sum   'Zn2 H36 C48 I11 N4 O8'
_cell_volume   1569.01688438
_cell_formula_units_Z   1
loop_
 _symmetry_equiv_pos_site_id
 _symmetry_equiv_pos_as_xyz
  1  'x, y, z'
loop_
 _atom_site_type_symbol
 _atom_site_label
 _atom_site_symmetry_multiplicity
 _atom_site_fract_x
 _atom_site_fract_y
 _atom_site_fract_z
 _atom_site_occupancy
  Zn  Zn1  1  0.809990  0.436870  0.611790  1.0
  Zn  Zn2  1  0.190010  0.563130  0.388210  1.0
  H  H3  1  0.175300  0.381900  0.958300  1
  H  H4  1  0.824700  0.618100  0.041700  1
  H  H5  1  0.313500  0.383700  0.026100  1
  H  H6  1  0.686500  0.616300  0.973900  1
  H  H7  1  0.191600  0.195000  0.579400  1
  H  H8  1  0.808400  0.805000  0.420600  1
  H  H9  1  0.186800  0.089100  0.646800  1
  H  H10  1  0.813200  0.910900  0.353200  1
  H  H11  1  0.519200  0.454900  0.650800  1.0
  H  H12  1  0.480800  0.545100  0.349200  1.0
  H  H13  1  0.362000  0.375800  0.741600  1.0
  H  H14  1  0.638000  0.624200  0.258400  1.0
  H  H15  1  0.618000  0.127400  0.806800  1.0
  H  H16  1  0.382000  0.872600  0.193200  1.0
  H  H17  1  0.767600  0.217300  0.716200  1.0
  H  H18  1  0.232400  0.782700  0.283800  1.0
  H  H19  1  0.384600  0.167300  0.045400  1.0
  H  H20  1  0.615400  0.832700  0.954600  1.0
  H  H21  1  0.297200  0.167500  0.193800  1.0
  H  H22  1  0.702800  0.832500  0.806200  1.0
  H  H23  1  0.152700  0.073100  0.285600  1.0
  H  H24  1  0.847300  0.926900  0.714400  1.0
  H  H25  1  0.001500  0.895600  0.232000  1.0
  H  H26  1  0.998500  0.104400  0.768000  1.0
  H  H27  1  0.070000  0.806700  0.935700  1.0
  H  H28  1  0.930000  0.193300  0.064300  1.0
  H  H29  1  0.426500  0.643000  0.533500  1.0
  H  H30  1  0.573500  0.357000  0.466500  1.0
  H  H31  1  0.473400  0.733000  0.680400  1.0
  H  H32  1  0.526600  0.267000  0.319600  1.0
  H  H33  1  0.075600  0.792500  0.670700  1.0
  H  H34  1  0.924400  0.207500  0.329300  1.0
  H  H35  1  0.038800  0.703900  0.519700  1.0
  H  H36  1  0.961200  0.296100  0.480300  1.0
  H  H37  1  0.991400  0.803200  0.088100  1.0
  H  H38  1  0.008600  0.196800  0.911900  1.0
  C  C39  1  0.240000  0.433700  0.007300  1
  C  C40  1  0.760000  0.566300  0.992700  1
  C  C41  1  0.188400  0.104000  0.583100  1
  C  C42  1  0.811600  0.896000  0.416900  1
  C  C43  1  0.540100  0.388200  0.684100  1.0
  C  C44  1  0.459900  0.611800  0.315900  1.0
  C  C45  1  0.444600  0.340600  0.736300  1.0
  C  C46  1  0.555400  0.659400  0.263700  1.0
  C  C47  1  0.473500  0.239700  0.780900  1.0
  C  C48  1  0.526500  0.760300  0.219100  1.0
  C  C49  1  0.595100  0.194900  0.775000  1.0
  C  C50  1  0.404900  0.805100  0.225000  1.0
  C  C51  1  0.683500  0.249900  0.721900  1.0
  C  C52  1  0.316500  0.750100  0.278100  1.0
  C  C53  1  0.367300  0.189800  0.839200  1.0
  C  C54  1  0.632700  0.810200  0.160800  1.0
  C  C55  1  0.314300  0.041800  0.939000  1.0
  C  C56  1  0.685700  0.958200  0.061000  1.0
  C  C57  1  0.320300  0.094000  0.023800  1.0
  C  C58  1  0.679700  0.906000  0.976200  1.0
  C  C59  1  0.232900  0.041400  0.080200  1.0
  C  C60  1  0.767100  0.958600  0.919800  1.0
  C  C61  1  0.235400  0.093300  0.170800  1.0
  C  C62  1  0.764600  0.906700  0.829200  1.0
  C  C63  1  0.149800  0.037600  0.225100  1.0
  C  C64  1  0.850200  0.962400  0.774900  1.0
  C  C65  1  0.061000  0.932400  0.193300  1.0
  C  C66  1  0.939000  0.067600  0.806700  1.0
  C  C67  1  0.141200  0.932000  0.048600  1.0
  C  C68  1  0.858800  0.068000  0.951400  1.0
  C  C69  1  0.134400  0.879400  0.958500  1.0
  C  C70  1  0.865600  0.120600  0.041500  1.0
  C  C71  1  0.221200  0.933900  0.904100  1.0
  C  C72  1  0.778800  0.066100  0.095900  1.0
  C  C73  1  0.311800  0.825500  0.786900  1.0
  C  C74  1  0.688200  0.174500  0.213100  1.0
  C  C75  1  0.354400  0.673700  0.561800  1.0
  C  C76  1  0.645600  0.326300  0.438200  1.0
  C  C77  1  0.383000  0.727200  0.648600  1.0
  C  C78  1  0.617000  0.272800  0.351400  1.0
  C  C79  1  0.278300  0.773300  0.690100  1.0
  C  C80  1  0.721700  0.226700  0.309900  1.0
  C  C81  1  0.149200  0.763100  0.643200  1.0
  C  C82  1  0.850800  0.236900  0.356800  1.0
  C  C83  1  0.127400  0.708500  0.553700  1.0
  C  C84  1  0.872600  0.291500  0.446300  1.0
  C  C85  1  0.054200  0.877800  0.108300  1.0
  C  C86  1  0.945800  0.122200  0.891700  1.0
  I  I87  1  0.333500  0.597250  0.955400  1
  I  I88  1  0.666500  0.402750  0.044600  1
  I  I89  1  0.132720  0.470730  0.115930  1
  I  I90  1  0.867280  0.529270  0.884070  1
  I  I91  1  0.369700  0.040600  0.534600  1
  I  I92  1  0.630300  0.959400  0.465400  1
  I  I93  1  0.000000  0.000000  0.500000  1
  I  I94  1  0.741090  0.652600  0.588160  1.0
  I  I95  1  0.258910  0.347400  0.411840  1.0
  I  I96  1  0.047390  0.412110  0.687000  1.0
  I  I97  1  0.952610  0.587890  0.313000  1.0
  N  N98  1  0.657900  0.347100  0.677500  1.0
  N  N99  1  0.342100  0.652900  0.322500  1.0
  N  N100  1  0.228600  0.662700  0.514900  1.0
  N  N101  1  0.771400  0.337300  0.485100  1.0
  O  O102  1  0.406000  0.093900  0.880200  1.0
  O  O103  1  0.594000  0.906100  0.119800  1.0
  O  O104  1  0.262000  0.231200  0.846300  1.0
  O  O105  1  0.738000  0.768800  0.153700  1.0
  O  O106  1  0.413000  0.815900  0.834800  1.0
  O  O107  1  0.587000  0.184100  0.165200  1.0
  O  O108  1  0.206400  0.886300  0.813600  1.0
  O  O109  1  0.793600  0.113700  0.186400  1.0
