# generated using pymatgen
data_P2H29PtC23S2N3(O5F4)2
_symmetry_space_group_name_H-M   'P 1'
_cell_length_a   8.72320000
_cell_length_b   8.94060000
_cell_length_c   21.79640000
_cell_angle_alpha   96.08570000
_cell_angle_beta   99.75450000
_cell_angle_gamma   100.55780000
_symmetry_Int_Tables_number   1
_chemical_formula_structural   P2H29PtC23S2N3(O5F4)2
_chemical_formula_sum   'P4 H58 Pt2 C46 S4 N6 O20 F16'
_cell_volume   1630.41337021
_cell_formula_units_Z   2
loop_
 _symmetry_equiv_pos_site_id
 _symmetry_equiv_pos_as_xyz
  1  'x, y, z'
loop_
 _atom_site_type_symbol
 _atom_site_label
 _atom_site_symmetry_multiplicity
 _atom_site_fract_x
 _atom_site_fract_y
 _atom_site_fract_z
 _atom_site_occupancy
  P  P1  1  0.499410  0.829540  0.147270  1.0
  P  P2  1  0.500590  0.170460  0.852730  1.0
  P  P3  1  0.272600  0.093920  0.146260  1.0
  P  P4  1  0.727400  0.906080  0.853740  1.0
  H  H5  1  0.093400  0.437600  0.462600  1.0
  H  H6  1  0.906600  0.562400  0.537400  1.0
  H  H7  1  0.063600  0.425900  0.532600  1.0
  H  H8  1  0.936400  0.574100  0.467400  1.0
  H  H9  1  0.998800  0.552200  0.494400  1.0
  H  H10  1  0.001200  0.447800  0.505600  1.0
  H  H11  1  0.626800  0.391600  0.244100  1.0
  H  H12  1  0.373200  0.608400  0.755900  1.0
  H  H13  1  0.646400  0.587300  0.325400  1.0
  H  H14  1  0.353600  0.412700  0.674600  1.0
  H  H15  1  0.524700  0.539500  0.410300  1.0
  H  H16  1  0.475300  0.460500  0.589700  1.0
  H  H17  1  0.357300  0.102300  0.326100  1.0
  H  H18  1  0.642700  0.897700  0.673900  1.0
  H  H19  1  0.966200  0.983200  0.602000  1.0
  H  H20  1  0.033800  0.016800  0.398000  1.0
  H  H21  1  0.935500  0.857600  0.689400  1.0
  H  H22  1  0.064500  0.142400  0.310600  1.0
  H  H23  1  0.843300  0.147800  0.235900  1.0
  H  H24  1  0.156700  0.852200  0.764100  1.0
  H  H25  1  0.561600  0.900100  0.328300  1.0
  H  H26  1  0.438400  0.099900  0.671700  1.0
  H  H27  1  0.552500  0.683500  0.227200  1.0
  H  H28  1  0.447500  0.316500  0.772800  1.0
  H  H29  1  0.714500  0.762000  0.208000  1.0
  H  H30  1  0.285500  0.238000  0.792000  1.0
  H  H31  1  0.602700  0.613100  0.164700  1.0
  H  H32  1  0.397300  0.386900  0.835300  1.0
  H  H33  1  0.339500  0.605600  0.089600  1.0
  H  H34  1  0.660500  0.394400  0.910400  1.0
  H  H35  1  0.258100  0.749100  0.077600  1.0
  H  H36  1  0.741900  0.250900  0.922400  1.0
  H  H37  1  0.251000  0.675100  0.141000  1.0
  H  H38  1  0.749000  0.324900  0.859000  1.0
  H  H39  1  0.620800  0.771200  0.063300  1.0
  H  H40  1  0.379200  0.228800  0.936700  1.0
  H  H41  1  0.715100  0.930900  0.104100  1.0
  H  H42  1  0.284900  0.069100  0.895900  1.0
  H  H43  1  0.552600  0.924100  0.056100  1.0
  H  H44  1  0.447400  0.075900  0.943900  1.0
  H  H45  1  0.077800  0.969700  0.194800  1.0
  H  H46  1  0.922200  0.030300  0.805200  1.0
  H  H47  1  0.081700  0.867600  0.130400  1.0
  H  H48  1  0.918300  0.132400  0.869600  1.0
  H  H49  1  0.998000  0.012600  0.129100  1.0
  H  H50  1  0.002000  0.987400  0.870900  1.0
  H  H51  1  0.339300  0.360800  0.164400  1.0
  H  H52  1  0.660700  0.639200  0.835600  1.0
  H  H53  1  0.225800  0.298400  0.210600  1.0
  H  H54  1  0.774200  0.701600  0.789400  1.0
  H  H55  1  0.152200  0.304400  0.138700  1.0
  H  H56  1  0.847800  0.695600  0.861300  1.0
  H  H57  1  0.178300  0.112900  0.041700  1.0
  H  H58  1  0.821700  0.887100  0.958300  1.0
  H  H59  1  0.283200  0.983700  0.046000  1.0
  H  H60  1  0.716800  0.016300  0.954000  1.0
  H  H61  1  0.368100  0.161600  0.057700  1.0
  H  H62  1  0.631900  0.838400  0.942300  1.0
  Pt  Pt63  1  0.484560  0.043430  0.209523  1.0
  Pt  Pt64  1  0.515440  0.956570  0.790477  1.0
  C  C65  1  0.058000  0.594000  0.310500  1
  C  C66  1  0.942000  0.406000  0.689500  1
  C  C67  1  0.855500  0.471800  0.080300  1
  C  C68  1  0.144500  0.528200  0.919700  1
  C  C69  1  0.018000  0.447000  0.491000  1.0
  C  C70  1  0.982000  0.553000  0.509000  1.0
  C  C71  1  0.573900  0.371700  0.277900  1.0
  C  C72  1  0.426100  0.628300  0.722100  1.0
  C  C73  1  0.587400  0.487500  0.326600  1.0
  C  C74  1  0.412600  0.512500  0.673400  1.0
  C  C75  1  0.516200  0.459600  0.376700  1.0
  C  C76  1  0.483800  0.540400  0.623300  1.0
  C  C77  1  0.431100  0.312200  0.377800  1.0
  C  C78  1  0.568900  0.687800  0.622200  1.0
  C  C79  1  0.417800  0.202400  0.326600  1.0
  C  C80  1  0.582200  0.797600  0.673400  1.0
  C  C81  1  0.363400  0.269800  0.430600  1.0
  C  C82  1  0.636600  0.730200  0.569400  1.0
  C  C83  1  0.318000  0.226800  0.475500  1.0
  C  C84  1  0.682000  0.773200  0.524500  1.0
  C  C85  1  0.272400  0.171800  0.527500  1.0
  C  C86  1  0.727600  0.828200  0.472500  1.0
  C  C87  1  0.239000  0.122700  0.573200  1.0
  C  C88  1  0.761000  0.877300  0.426800  1.0
  C  C89  1  0.207000  0.051800  0.627000  1.0
  C  C90  1  0.793000  0.948200  0.373000  1.0
  C  C91  1  0.056200  0.981000  0.633000  1.0
  C  C92  1  0.943800  0.019000  0.367000  1.0
  C  C93  1  0.038100  0.907200  0.684800  1.0
  C  C94  1  0.961900  0.092800  0.315200  1.0
  C  C95  1  0.830600  0.094000  0.270600  1.0
  C  C96  1  0.169400  0.906000  0.729400  1.0
  C  C97  1  0.665200  0.950200  0.325100  1.0
  C  C98  1  0.334800  0.049800  0.674900  1.0
  C  C99  1  0.604200  0.708200  0.191900  1.0
  C  C100  1  0.395800  0.291800  0.808100  1.0
  C  C101  1  0.316100  0.700100  0.109600  1.0
  C  C102  1  0.683900  0.299900  0.890400  1.0
  C  C103  1  0.609600  0.868400  0.085700  1.0
  C  C104  1  0.390400  0.131600  0.914300  1.0
  C  C105  1  0.086200  0.972000  0.150600  1.0
  C  C106  1  0.913800  0.028000  0.849400  1.0
  C  C107  1  0.244200  0.286400  0.167400  1.0
  C  C108  1  0.755800  0.713600  0.832600  1.0
  C  C109  1  0.275900  0.087300  0.063500  1.0
  C  C110  1  0.724100  0.912700  0.936500  1.0
  S  S111  1  0.220100  0.729400  0.302220  1
  S  S112  1  0.779900  0.270600  0.697780  1
  S  S113  1  0.732320  0.300480  0.098480  1
  S  S114  1  0.267680  0.699520  0.901520  1
  N  N115  1  0.863000  0.334000  0.464800  1.0
  N  N116  1  0.137000  0.666000  0.535200  1.0
  N  N117  1  0.487500  0.232000  0.277450  1.0
  N  N118  1  0.512500  0.768000  0.722550  1.0
  N  N119  1  0.684000  0.020600  0.274920  1.0
  N  N120  1  0.316000  0.979400  0.725080  1.0
  O  O121  1  0.285600  0.654700  0.256800  1
  O  O122  1  0.714400  0.345300  0.743200  1
  O  O123  1  0.339700  0.737000  0.365400  1
  O  O124  1  0.660300  0.263000  0.634600  1
  O  O125  1  0.183500  0.866900  0.293900  1
  O  O126  1  0.816500  0.133100  0.706100  1
  O  O127  1  0.842000  0.237500  0.140000  1
  O  O128  1  0.158000  0.762500  0.860000  1
  O  O129  1  0.615700  0.358900  0.127200  1
  O  O130  1  0.384300  0.641100  0.872800  1
  O  O131  1  0.672500  0.210300  0.037920  1
  O  O132  1  0.327500  0.789700  0.962080  1
  O  O133  1  0.262000  0.829000  0.346000  1
  O  O134  1  0.738000  0.171000  0.654000  1
  O  O135  1  0.100000  0.811000  0.263000  1
  O  O136  1  0.900000  0.189000  0.737000  1
  O  O137  1  0.781000  0.290000  0.500000  1.0
  O  O138  1  0.219000  0.710000  0.500000  1.0
  O  O139  1  0.799000  0.305000  0.410100  1.0
  O  O140  1  0.201000  0.695000  0.589900  1.0
  F  F141  1  0.983600  0.646300  0.355700  1
  F  F142  1  0.016400  0.353700  0.644300  1
  F  F143  1  0.077000  0.466900  0.319400  1
  F  F144  1  0.923000  0.533100  0.680600  1
  F  F145  1  0.961000  0.621000  0.261400  1
  F  F146  1  0.039000  0.379000  0.738600  1
  F  F147  1  0.975500  0.435400  0.055200  1
  F  F148  1  0.024500  0.564600  0.944800  1
  F  F149  1  0.917800  0.573500  0.130700  1
  F  F150  1  0.082200  0.426500  0.869300  1
  F  F151  1  0.773100  0.539900  0.038610  1
  F  F152  1  0.226900  0.460100  0.961390  1
  F  F153  1  0.116000  0.482000  0.340400  1
  F  F154  1  0.884000  0.518000  0.659600  1
  F  F155  1  0.957000  0.533000  0.262900  1
  F  F156  1  0.043000  0.467000  0.737100  1
