# generated using pymatgen
data_Zn2H187C193N16Cl9
_symmetry_space_group_name_H-M   'P 1'
_cell_length_a   16.39600000
_cell_length_b   26.85200000
_cell_length_c   26.94600000
_cell_angle_alpha   68.49000000
_cell_angle_beta   85.94000000
_cell_angle_gamma   75.03000000
_symmetry_Int_Tables_number   1
_chemical_formula_structural   Zn2H187C193N16Cl9
_chemical_formula_sum   'Zn4 H374 C386 N32 Cl18'
_cell_volume   10658.78655570
_cell_formula_units_Z   2
loop_
 _symmetry_equiv_pos_site_id
 _symmetry_equiv_pos_as_xyz
  1  'x, y, z'
loop_
 _atom_site_type_symbol
 _atom_site_label
 _atom_site_symmetry_multiplicity
 _atom_site_fract_x
 _atom_site_fract_y
 _atom_site_fract_z
 _atom_site_occupancy
  Zn  Zn1  1  0.071090  0.099350  0.286280  1
  Zn  Zn2  1  0.928910  0.900650  0.713720  1
  Zn  Zn3  1  0.696150  0.616210  0.325570  1
  Zn  Zn4  1  0.303850  0.383790  0.674430  1
  H  H5  1  0.922100  0.948300  0.304800  1
  H  H6  1  0.077900  0.051700  0.695200  1
  H  H7  1  0.992600  0.912600  0.391500  1
  H  H8  1  0.007400  0.087400  0.608500  1
  H  H9  1  0.182700  0.986500  0.480800  1
  H  H10  1  0.817300  0.013500  0.519200  1
  H  H11  1  0.243500  0.075400  0.454100  1
  H  H12  1  0.756500  0.924600  0.545900  1
  H  H13  1  0.205600  0.256200  0.273500  1
  H  H14  1  0.794400  0.743800  0.726500  1
  H  H15  1  0.124500  0.293100  0.193900  1
  H  H16  1  0.875500  0.706900  0.806100  1
  H  H17  1  0.913000  0.223100  0.104700  1
  H  H18  1  0.087000  0.776900  0.895300  1
  H  H19  1  0.867000  0.133400  0.131900  1
  H  H20  1  0.133000  0.866600  0.868100  1
  H  H21  1  0.425900  0.558300  0.312400  1
  H  H22  1  0.574100  0.441700  0.687600  1
  H  H23  1  0.402700  0.582000  0.389900  1
  H  H24  1  0.597300  0.418000  0.610100  1
  H  H25  1  0.596900  0.637300  0.504000  1
  H  H26  1  0.403100  0.362700  0.496000  1
  H  H27  1  0.744800  0.641300  0.501200  1
  H  H28  1  0.255200  0.358700  0.498800  1
  H  H29  1  0.984300  0.632000  0.355600  1
  H  H30  1  0.015700  0.368000  0.644400  1
  H  H31  1  0.009600  0.625000  0.271500  1
  H  H32  1  0.990400  0.375000  0.728500  1
  H  H33  1  0.800400  0.564100  0.157600  1
  H  H34  1  0.199600  0.435900  0.842400  1
  H  H35  1  0.664100  0.552200  0.172400  1
  H  H36  1  0.335900  0.447800  0.827600  1
  H  H37  1  0.502500  0.970700  0.099800  1
  H  H38  1  0.497500  0.029300  0.900200  1
  H  H39  1  0.584500  0.022100  0.030100  1
  H  H40  1  0.415500  0.977900  0.969900  1
  H  H41  1  0.361000  0.937000  0.231000  1
  H  H42  1  0.639000  0.063000  0.769000  1
  H  H43  1  0.468200  0.851900  0.235700  1
  H  H44  1  0.531800  0.148100  0.764300  1
  H  H45  1  0.746000  0.803500  0.127700  1
  H  H46  1  0.254000  0.196500  0.872300  1
  H  H47  1  0.819500  0.857500  0.048400  1
  H  H48  1  0.180500  0.142500  0.951600  1
  H  H49  1  0.727500  0.061200  0.900500  1
  H  H50  1  0.272500  0.938800  0.099500  1
  H  H51  1  0.610800  0.139300  0.885900  1
  H  H52  1  0.389200  0.860700  0.114100  1
  H  H53  1  0.384700  0.197100  0.026100  1
  H  H54  1  0.615300  0.802900  0.973900  1
  H  H55  1  0.307500  0.149400  0.104800  1
  H  H56  1  0.692500  0.850600  0.895200  1
  H  H57  1  0.121400  0.031500  0.217200  1
  H  H58  1  0.878600  0.968500  0.782800  1
  H  H59  1  0.219200  0.008800  0.158700  1
  H  H60  1  0.780800  0.991200  0.841300  1
  H  H61  1  0.358300  0.089200  0.205800  1
  H  H62  1  0.641700  0.910800  0.794200  1
  H  H63  1  0.249400  0.109100  0.261900  1
  H  H64  1  0.750600  0.890900  0.738100  1
  H  H65  1  0.755000  0.721000  0.294200  1
  H  H66  1  0.245000  0.279000  0.705800  1
  H  H67  1  0.722300  0.814600  0.230400  1
  H  H68  1  0.277700  0.185400  0.769600  1
  H  H69  1  0.511000  0.782200  0.175900  1
  H  H70  1  0.489000  0.217800  0.824100  1
  H  H71  1  0.554700  0.692700  0.252300  1
  H  H72  1  0.445300  0.307300  0.747700  1
  H  H73  1  0.974700  0.965700  0.481500  1
  H  H74  1  0.025300  0.034300  0.518500  1
  H  H75  1  0.974700  0.888700  0.558800  1
  H  H76  1  0.025300  0.111300  0.441200  1
  H  H77  1  0.201600  0.811500  0.519400  1
  H  H78  1  0.798400  0.188500  0.480600  1
  H  H79  1  0.198200  0.890400  0.436100  1
  H  H80  1  0.801800  0.109600  0.563900  1
  H  H81  1  0.386800  0.679800  0.425600  1
  H  H82  1  0.613200  0.320200  0.574400  1
  H  H83  1  0.291500  0.671300  0.493200  1
  H  H84  1  0.708500  0.328700  0.506800  1
  H  H85  1  0.440100  0.525500  0.588500  1
  H  H86  1  0.559900  0.474500  0.411500  1
  H  H87  1  0.542700  0.532400  0.520500  1
  H  H88  1  0.457300  0.467600  0.479500  1
  H  H89  1  0.361200  0.207200  0.933400  1
  H  H90  1  0.638800  0.792800  0.066600  1
  H  H91  1  0.335500  0.308900  0.870600  1
  H  H92  1  0.664500  0.691100  0.129400  1
  H  H93  1  0.452200  0.339600  0.860300  1
  H  H94  1  0.547800  0.660400  0.139700  1
  H  H95  1  0.596600  0.294900  0.910300  1
  H  H96  1  0.403400  0.705100  0.089700  1
  H  H97  1  0.607800  0.195200  0.952300  1
  H  H98  1  0.392200  0.804800  0.047700  1
  H  H99  1  0.781000  0.883100  0.956600  1
  H  H100  1  0.219000  0.116900  0.043400  1
  H  H101  1  0.907800  0.865300  0.902200  1
  H  H102  1  0.092200  0.134700  0.097800  1
  H  H103  1  0.007700  0.919700  0.902100  1
  H  H104  1  0.992300  0.080300  0.097900  1
  H  H105  1  0.968600  0.991500  0.929700  1
  H  H106  1  0.031400  0.008500  0.070300  1
  H  H107  1  0.839200  0.015200  0.968100  1
  H  H108  1  0.160800  0.984800  0.031900  1
  H  H109  1  0.001100  0.829500  0.637400  1
  H  H110  1  0.998900  0.170500  0.362600  1
  H  H111  1  0.002300  0.742200  0.706100  1
  H  H112  1  0.997700  0.257800  0.293900  1
  H  H113  1  0.240700  0.510100  0.695000  1
  H  H114  1  0.759300  0.489900  0.305000  1
  H  H115  1  0.327600  0.510300  0.621900  1
  H  H116  1  0.672400  0.489700  0.378100  1
  H  H117  1  0.061000  0.636000  0.751000  1
  H  H118  1  0.939000  0.364000  0.249000  1
  H  H119  1  0.154900  0.560100  0.749900  1
  H  H120  1  0.845100  0.439900  0.250100  1
  H  H121  1  0.970100  0.517400  0.224400  1
  H  H122  1  0.029900  0.482600  0.775600  1
  H  H123  1  0.094000  0.594800  0.102900  1
  H  H124  1  0.906000  0.405200  0.897100  1
  H  H125  1  0.906300  0.681300  0.161600  1
  H  H126  1  0.093700  0.318700  0.838400  1
  H  H127  1  0.203800  0.497100  0.142000  1
  H  H128  1  0.796200  0.502900  0.858000  1
  H  H129  1  0.142000  0.515400  0.091600  1
  H  H130  1  0.858000  0.484600  0.908400  1
  H  H131  1  0.182700  0.451200  0.123800  1
  H  H132  1  0.817300  0.548800  0.876200  1
  H  H133  1  0.053400  0.426000  0.139700  1
  H  H134  1  0.946600  0.574000  0.860300  1
  H  H135  1  0.005400  0.487800  0.104200  1
  H  H136  1  0.994600  0.512200  0.895800  1
  H  H137  1  0.975300  0.459400  0.163300  1
  H  H138  1  0.024700  0.540600  0.836700  1
  H  H139  1  0.117100  0.408300  0.220600  1
  H  H140  1  0.882900  0.591700  0.779400  1
  H  H141  1  0.058800  0.453900  0.241600  1
  H  H142  1  0.941200  0.546100  0.758400  1
  H  H143  1  0.156800  0.451800  0.232000  1
  H  H144  1  0.843200  0.548200  0.768000  1
  H  H145  1  0.890700  0.756900  0.075400  1
  H  H146  1  0.109300  0.243100  0.924600  1
  H  H147  1  0.896000  0.711200  0.049700  1
  H  H148  1  0.104000  0.288800  0.950300  1
  H  H149  1  0.935800  0.762700  0.019700  1
  H  H150  1  0.064200  0.237300  0.980300  1
  H  H151  1  0.090000  0.731200  0.021500  1
  H  H152  1  0.910000  0.268800  0.978500  1
  H  H153  1  0.047800  0.686600  0.014500  1
  H  H154  1  0.952200  0.313400  0.985500  1
  H  H155  1  0.123400  0.667100  0.057200  1
  H  H156  1  0.876600  0.332900  0.942800  1
  H  H157  1  0.015100  0.772300  0.098300  1
  H  H158  1  0.984900  0.227700  0.901700  1
  H  H159  1  0.104000  0.727700  0.106000  1
  H  H160  1  0.896000  0.272300  0.894000  1
  H  H161  1  0.033600  0.717000  0.150300  1
  H  H162  1  0.966400  0.283000  0.849700  1
  H  H163  1  0.354600  0.101000  0.376000  1
  H  H164  1  0.645400  0.899000  0.624000  1
  H  H165  1  0.411400  0.215100  0.422000  1
  H  H166  1  0.588600  0.784900  0.578000  1
  H  H167  1  0.176300  0.237000  0.373100  1
  H  H168  1  0.823700  0.763000  0.626900  1
  H  H169  1  0.523600  0.164100  0.442500  1
  H  H170  1  0.476400  0.835900  0.557500  1
  H  H171  1  0.576700  0.152000  0.394200  1
  H  H172  1  0.423300  0.848000  0.605800  1
  H  H173  1  0.591700  0.106300  0.453200  1
  H  H174  1  0.408300  0.893700  0.546800  1
  H  H175  1  0.470100  0.081100  0.358100  1
  H  H176  1  0.529900  0.918900  0.641900  1
  H  H177  1  0.563500  0.058800  0.384000  1
  H  H178  1  0.436500  0.941200  0.616000  1
  H  H179  1  0.533400  0.120700  0.342000  1
  H  H180  1  0.466600  0.879300  0.658000  1
  H  H181  1  0.523800  0.043200  0.485300  1
  H  H182  1  0.476200  0.956800  0.514700  1
  H  H183  1  0.461100  0.033800  0.448500  1
  H  H184  1  0.538900  0.966200  0.551500  1
  H  H185  1  0.424500  0.070400  0.484300  1
  H  H186  1  0.575500  0.929600  0.515700  1
  H  H187  1  0.172800  0.347100  0.338400  1
  H  H188  1  0.827200  0.652900  0.661600  1
  H  H189  1  0.261400  0.323200  0.316100  1
  H  H190  1  0.738600  0.676800  0.683900  1
  H  H191  1  0.251900  0.371400  0.339200  1
  H  H192  1  0.748100  0.628600  0.660800  1
  H  H193  1  0.314300  0.348800  0.417800  1
  H  H194  1  0.685700  0.651200  0.582200  1
  H  H195  1  0.381500  0.308800  0.394300  1
  H  H196  1  0.618500  0.691200  0.605700  1
  H  H197  1  0.350800  0.285200  0.454200  1
  H  H198  1  0.649200  0.714800  0.545800  1
  H  H199  1  0.188900  0.326500  0.450100  1
  H  H200  1  0.811100  0.673500  0.549900  1
  H  H201  1  0.207400  0.260600  0.468800  1
  H  H202  1  0.792600  0.739400  0.531200  1
  H  H203  1  0.138600  0.299400  0.422400  1
  H  H204  1  0.861400  0.700600  0.577600  1
  H  H205  1  0.138800  0.255800  0.106500  1
  H  H206  1  0.861200  0.744200  0.893500  1
  H  H207  1  0.998500  0.406400  0.018200  1
  H  H208  1  0.001500  0.593600  0.981800  1
  H  H209  1  0.893600  0.310100  0.143000  1
  H  H210  1  0.106400  0.689900  0.857000  1
  H  H211  1  0.233000  0.358400  0.080400  1
  H  H212  1  0.767000  0.641600  0.919600  1
  H  H213  1  0.145700  0.404900  0.064100  1
  H  H214  1  0.854300  0.595100  0.935900  1
  H  H215  1  0.221700  0.407400  0.023300  1
  H  H216  1  0.778300  0.592600  0.976700  1
  H  H217  1  0.189300  0.391900  0.948600  1
  H  H218  1  0.810700  0.608100  0.051400  1
  H  H219  1  0.098700  0.420500  0.965100  1
  H  H220  1  0.901300  0.579500  0.034900  1
  H  H221  1  0.110800  0.365800  0.951500  1
  H  H222  1  0.889200  0.634200  0.048500  1
  H  H223  1  0.280600  0.302400  0.027200  1
  H  H224  1  0.719400  0.697600  0.972800  1
  H  H225  1  0.214000  0.290400  0.995200  1
  H  H226  1  0.786000  0.709600  0.004800  1
  H  H227  1  0.216900  0.266100  0.059000  1
  H  H228  1  0.783100  0.733900  0.941000  1
  H  H229  1  0.795000  0.346600  0.061200  1
  H  H230  1  0.205000  0.653400  0.938800  1
  H  H231  1  0.785500  0.399300  0.007100  1
  H  H232  1  0.214500  0.600700  0.992900  1
  H  H233  1  0.722800  0.401700  0.054900  1
  H  H234  1  0.277200  0.598300  0.945100  1
  H  H235  1  0.890100  0.477600  0.035300  1
  H  H236  1  0.109900  0.522400  0.964700  1
  H  H237  1  0.790000  0.492600  0.025900  1
  H  H238  1  0.210000  0.507400  0.974100  1
  H  H239  1  0.852000  0.463200  0.990700  1
  H  H240  1  0.148000  0.536800  0.009300  1
  H  H241  1  0.751600  0.432500  0.117100  1
  H  H242  1  0.248400  0.567500  0.882900  1
  H  H243  1  0.840800  0.444000  0.122900  1
  H  H244  1  0.159200  0.556000  0.877100  1
  H  H245  1  0.828400  0.382500  0.149100  1
  H  H246  1  0.171600  0.617500  0.850900  1
  H  H247  1  0.762700  0.079700  0.221300  1
  H  H248  1  0.237300  0.920300  0.778700  1
  H  H249  1  0.750800  0.960500  0.165100  1
  H  H250  1  0.249200  0.039500  0.834900  1
  H  H251  1  0.977500  0.978500  0.193000  1
  H  H252  1  0.022500  0.021500  0.807000  1
  H  H253  1  0.619300  0.070600  0.103500  1
  H  H254  1  0.380700  0.929400  0.896500  1
  H  H255  1  0.653000  0.112600  0.121300  1
  H  H256  1  0.347000  0.887400  0.878700  1
  H  H257  1  0.557900  0.107400  0.132900  1
  H  H258  1  0.442100  0.892600  0.867100  1
  H  H259  1  0.545400  0.067300  0.228900  1
  H  H260  1  0.454600  0.932700  0.771100  1
  H  H261  1  0.614200  0.102700  0.217700  1
  H  H262  1  0.385800  0.897300  0.782300  1
  H  H263  1  0.633600  0.041500  0.261600  1
  H  H264  1  0.366400  0.958500  0.738400  1
  H  H265  1  0.554900  0.997700  0.213500  1
  H  H266  1  0.445100  0.002300  0.786500  1
  H  H267  1  0.649200  0.959200  0.222700  1
  H  H268  1  0.350800  0.040800  0.777300  1
  H  H269  1  0.604700  0.984300  0.164800  1
  H  H270  1  0.395300  0.015700  0.835200  1
  H  H271  1  0.019700  0.875700  0.210100  1
  H  H272  1  0.980300  0.124300  0.789900  1
  H  H273  1  0.027200  0.929000  0.159500  1
  H  H274  1  0.972800  0.071000  0.840500  1
  H  H275  1  0.036600  0.871100  0.152600  1
  H  H276  1  0.963400  0.128900  0.847400  1
  H  H277  1  0.955900  0.924300  0.082700  1
  H  H278  1  0.044100  0.075700  0.917300  1
  H  H279  1  0.860600  0.958100  0.084700  1
  H  H280  1  0.139400  0.041900  0.915300  1
  H  H281  1  0.881400  0.893300  0.095600  1
  H  H282  1  0.118600  0.106700  0.904400  1
  H  H283  1  0.907000  0.837300  0.221200  1
  H  H284  1  0.093000  0.162700  0.778800  1
  H  H285  1  0.868000  0.844400  0.165500  1
  H  H286  1  0.132000  0.155600  0.834500  1
  H  H287  1  0.816500  0.878700  0.200300  1
  H  H288  1  0.183500  0.121300  0.799700  1
  H  H289  1  0.614700  0.463400  0.249800  1
  H  H290  1  0.385300  0.536600  0.750200  1
  H  H291  1  0.395800  0.490400  0.171400  1
  H  H292  1  0.604200  0.509600  0.828600  1
  H  H293  1  0.443600  0.611400  0.212300  1
  H  H294  1  0.556400  0.388600  0.787700  1
  H  H295  1  0.549800  0.379300  0.153900  1
  H  H296  1  0.450200  0.620700  0.846100  1
  H  H297  1  0.639900  0.384600  0.167600  1
  H  H298  1  0.360100  0.615400  0.832400  1
  H  H299  1  0.568300  0.439000  0.137100  1
  H  H300  1  0.431700  0.561000  0.862900  1
  H  H301  1  0.606100  0.390000  0.286000  1
  H  H302  1  0.393900  0.610000  0.714000  1
  H  H303  1  0.667500  0.390300  0.237000  1
  H  H304  1  0.332500  0.609700  0.763000  1
  H  H305  1  0.627600  0.338700  0.266200  1
  H  H306  1  0.372400  0.661300  0.733800  1
  H  H307  1  0.460300  0.372500  0.197900  1
  H  H308  1  0.539700  0.627500  0.802100  1
  H  H309  1  0.436500  0.386700  0.250600  1
  H  H310  1  0.563500  0.613300  0.749400  1
  H  H311  1  0.509700  0.333100  0.253100  1
  H  H312  1  0.490300  0.666900  0.746900  1
  H  H313  1  0.266800  0.527100  0.229500  1
  H  H314  1  0.733200  0.472900  0.770500  1
  H  H315  1  0.265700  0.525200  0.170900  1
  H  H316  1  0.734300  0.474800  0.829100  1
  H  H317  1  0.197400  0.571600  0.185900  1
  H  H318  1  0.802600  0.428400  0.814100  1
  H  H319  1  0.348100  0.624900  0.097000  1
  H  H320  1  0.651900  0.375100  0.903000  1
  H  H321  1  0.250200  0.648000  0.106000  1
  H  H322  1  0.749800  0.352000  0.894000  1
  H  H323  1  0.282200  0.589600  0.098600  1
  H  H324  1  0.717800  0.410400  0.901400  1
  H  H325  1  0.326300  0.655200  0.182700  1
  H  H326  1  0.673700  0.344800  0.817300  1
  H  H327  1  0.281700  0.618500  0.232400  1
  H  H328  1  0.718300  0.381500  0.767600  1
  H  H329  1  0.229500  0.655500  0.177600  1
  H  H330  1  0.770500  0.344500  0.822400  1
  H  H331  1  0.897000  0.566700  0.501400  1
  H  H332  1  0.103000  0.433300  0.498600  1
  H  H333  1  0.043900  0.658500  0.527300  1
  H  H334  1  0.956100  0.341500  0.472700  1
  H  H335  1  0.903200  0.720500  0.390100  1
  H  H336  1  0.096800  0.279500  0.609900  1
  H  H337  1  0.126600  0.726500  0.420500  1
  H  H338  1  0.873400  0.273500  0.579500  1
  H  H339  1  0.112900  0.713300  0.482900  1
  H  H340  1  0.887100  0.286700  0.517100  1
  H  H341  1  0.110900  0.775100  0.443600  1
  H  H342  1  0.889100  0.224900  0.556400  1
  H  H343  1  0.928500  0.785300  0.372100  1
  H  H344  1  0.071500  0.214700  0.627900  1
  H  H345  1  0.027600  0.772200  0.361300  1
  H  H346  1  0.972400  0.227800  0.638700  1
  H  H347  1  0.983500  0.824300  0.377600  1
  H  H348  1  0.016500  0.175700  0.622400  1
  H  H349  1  0.001900  0.807900  0.473200  1
  H  H350  1  0.998100  0.192100  0.526800  1
  H  H351  1  0.962600  0.758200  0.510000  1
  H  H352  1  0.037400  0.241800  0.490000  1
  H  H353  1  0.908500  0.807000  0.460600  1
  H  H354  1  0.091500  0.193000  0.539400  1
  H  H355  1  0.967100  0.593700  0.629900  1
  H  H356  1  0.032900  0.406300  0.370100  1
  H  H357  1  0.044300  0.615500  0.597400  1
  H  H358  1  0.955700  0.384500  0.402600  1
  H  H359  1  0.061100  0.554900  0.642300  1
  H  H360  1  0.938900  0.445100  0.357700  1
  H  H361  1  0.978500  0.487600  0.591500  1
  H  H362  1  0.021500  0.512400  0.408500  1
  H  H363  1  0.899000  0.540100  0.576500  1
  H  H364  1  0.101000  0.459900  0.423500  1
  H  H365  1  0.947400  0.518300  0.632900  1
  H  H366  1  0.052600  0.481700  0.367100  1
  H  H367  1  0.111600  0.493300  0.598900  1
  H  H368  1  0.888400  0.506700  0.401100  1
  H  H369  1  0.136500  0.549800  0.564400  1
  H  H370  1  0.863500  0.450200  0.435600  1
  H  H371  1  0.099700  0.517600  0.535300  1
  H  H372  1  0.900300  0.482400  0.464700  1
  H  H373  1  0.320700  0.713400  0.564100  1
  H  H374  1  0.679300  0.286600  0.435900  1
  H  H375  1  0.311600  0.002300  0.368200  1
  H  H376  1  0.688400  0.997700  0.631800  1
  H  H377  1  0.758100  0.139700  0.981600  1
  H  H378  1  0.241900  0.860300  0.018400  1
  C  C379  1  0.968200  0.022000  0.284800  1
  C  C380  1  0.031800  0.978000  0.715200  1
  C  C381  1  0.954300  0.966700  0.316800  1
  C  C382  1  0.045700  0.033300  0.683200  1
  C  C383  1  0.992100  0.946800  0.363500  1
  C  C384  1  0.007900  0.053200  0.636500  1
  C  C385  1  0.033000  0.988500  0.362900  1
  C  C386  1  0.967000  0.011500  0.637100  1
  C  C387  1  0.081600  0.986200  0.400400  1
  C  C388  1  0.918400  0.013800  0.599600  1
  C  C389  1  0.126100  0.025500  0.402700  1
  C  C390  1  0.873900  0.974500  0.597300  1
  C  C391  1  0.174200  0.017100  0.448000  1
  C  C392  1  0.825800  0.982900  0.552000  1
  C  C393  1  0.208700  0.067000  0.433100  1
  C  C394  1  0.791300  0.933000  0.566900  1
  C  C395  1  0.176300  0.099600  0.378700  1
  C  C396  1  0.823700  0.900400  0.621300  1
  C  C397  1  0.186100  0.149600  0.345900  1
  C  C398  1  0.813900  0.850400  0.654100  1
  C  C399  1  0.152500  0.185300  0.293800  1
  C  C400  1  0.847500  0.814700  0.706200  1
  C  C401  1  0.169200  0.239100  0.263100  1
  C  C402  1  0.830800  0.760900  0.736900  1
  C  C403  1  0.126500  0.258200  0.221200  1
  C  C404  1  0.873500  0.741800  0.778800  1
  C  C405  1  0.079900  0.219300  0.219600  1
  C  C406  1  0.920100  0.780700  0.780400  1
  C  C407  1  0.029000  0.222300  0.182000  1
  C  C408  1  0.971000  0.777700  0.818000  1
  C  C409  1  0.981300  0.185800  0.179800  1
  C  C410  1  0.018700  0.814200  0.820200  1
  C  C411  1  0.927600  0.192000  0.136900  1
  C  C412  1  0.072400  0.808000  0.863100  1
  C  C413  1  0.901100  0.143600  0.151800  1
  C  C414  1  0.098900  0.856400  0.848200  1
  C  C415  1  0.940000  0.110700  0.207600  1
  C  C416  1  0.060000  0.889300  0.792400  1
  C  C417  1  0.928000  0.054900  0.235100  1
  C  C418  1  0.072000  0.945100  0.764900  1
  C  C419  1  0.542700  0.578700  0.307600  1
  C  C420  1  0.457300  0.421300  0.692400  1
  C  C421  1  0.464000  0.570600  0.327400  1
  C  C422  1  0.536000  0.429400  0.672600  1
  C  C423  1  0.452700  0.583200  0.369800  1
  C  C424  1  0.547300  0.416800  0.630200  1
  C  C425  1  0.525900  0.599800  0.384400  1
  C  C426  1  0.474100  0.400200  0.615600  1
  C  C427  1  0.551100  0.607400  0.423000  1
  C  C428  1  0.448900  0.392600  0.577000  1
  C  C429  1  0.621900  0.619200  0.435900  1
  C  C430  1  0.378100  0.380800  0.564100  1
  C  C431  1  0.636100  0.632000  0.477600  1
  C  C432  1  0.363900  0.368000  0.522400  1
  C  C433  1  0.716500  0.635800  0.474800  1
  C  C434  1  0.283500  0.364200  0.525200  1
  C  C435  1  0.751500  0.630800  0.429400  1
  C  C436  1  0.248500  0.369200  0.570600  1
  C  C437  1  0.836100  0.629000  0.405100  1
  C  C438  1  0.163900  0.371000  0.594900  1
  C  C439  1  0.865600  0.625500  0.359300  1
  C  C440  1  0.134400  0.374500  0.640700  1
  C  C441  1  0.942000  0.627200  0.336800  1
  C  C442  1  0.058000  0.372800  0.663200  1
  C  C443  1  0.959900  0.622600  0.291600  1
  C  C444  1  0.040100  0.377400  0.708400  1
  C  C445  1  0.881100  0.612300  0.279700  1
  C  C446  1  0.118900  0.387700  0.720300  1
  C  C447  1  0.856400  0.599900  0.239100  1
  C  C448  1  0.143600  0.400100  0.760900  1
  C  C449  1  0.780000  0.587200  0.225800  1
  C  C450  1  0.220000  0.412800  0.774200  1
  C  C451  1  0.764700  0.569600  0.185500  1
  C  C452  1  0.235300  0.430400  0.814500  1
  C  C453  1  0.690800  0.562900  0.195700  1
  C  C454  1  0.309200  0.437100  0.804300  1
  C  C455  1  0.647600  0.570400  0.239300  1
  C  C456  1  0.352400  0.429600  0.760700  1
  C  C457  1  0.576300  0.568000  0.264400  1
  C  C458  1  0.423700  0.432000  0.735600  1
  C  C459  1  0.418400  0.975200  0.156800  1
  C  C460  1  0.581600  0.024800  0.843200  1
  C  C461  1  0.403500  0.933000  0.205900  1
  C  C462  1  0.596500  0.067000  0.794100  1
  C  C463  1  0.462800  0.887300  0.208400  1
  C  C464  1  0.537200  0.112700  0.791600  1
  C  C465  1  0.515900  0.899600  0.164200  1
  C  C466  1  0.484100  0.100400  0.835800  1
  C  C467  1  0.589200  0.865300  0.154500  1
  C  C468  1  0.410800  0.134700  0.845500  1
  C  C469  1  0.645600  0.878400  0.111700  1
  C  C470  1  0.354400  0.121600  0.888300  1
  C  C471  1  0.725200  0.841000  0.105200  1
  C  C472  1  0.274800  0.159000  0.894800  1
  C  C473  1  0.764800  0.869500  0.060600  1
  C  C474  1  0.235200  0.130500  0.939400  1
  C  C475  1  0.703500  0.921500  0.037100  1
  C  C476  1  0.296500  0.078500  0.962900  1
  C  C477  1  0.716900  0.965000  0.990700  1
  C  C478  1  0.283100  0.035000  0.009300  1
  C  C479  1  0.665900  0.017900  0.971200  1
  C  C480  1  0.334100  0.982100  0.028800  1
  C  C481  1  0.680600  0.063500  0.923100  1
  C  C482  1  0.319400  0.936500  0.076900  1
  C  C483  1  0.620100  0.106500  0.916800  1
  C  C484  1  0.379900  0.893500  0.083200  1
  C  C485  1  0.566900  0.098400  0.964100  1
  C  C486  1  0.433100  0.901600  0.035900  1
  C  C487  1  0.504500  0.130900  0.982000  1
  C  C488  1  0.495500  0.869100  0.018000  1
  C  C489  1  0.456500  0.122200  0.023900  1
  C  C490  1  0.543500  0.877800  0.976100  1
  C  C491  1  0.395500  0.158000  0.042900  1
  C  C492  1  0.604500  0.842000  0.957100  1
  C  C493  1  0.352500  0.133800  0.086500  1
  C  C494  1  0.647500  0.866200  0.913500  1
  C  C495  1  0.399500  0.073500  0.096600  1
  C  C496  1  0.600500  0.926500  0.903400  1
  C  C497  1  0.378100  0.031600  0.141000  1
  C  C498  1  0.621900  0.968400  0.859000  1
  C  C499  1  0.171700  0.043600  0.214500  1
  C  C500  1  0.828300  0.956400  0.785500  1
  C  C501  1  0.229200  0.028100  0.180000  1
  C  C502  1  0.770800  0.971900  0.820000  1
  C  C503  1  0.307500  0.044600  0.179700  1
  C  C504  1  0.692500  0.955400  0.820300  1
  C  C505  1  0.310000  0.075200  0.207900  1
  C  C506  1  0.690000  0.924800  0.792100  1
  C  C507  1  0.244100  0.088200  0.241100  1
  C  C508  1  0.755900  0.911800  0.758900  1
  C  C509  1  0.706600  0.734000  0.271200  1
  C  C510  1  0.293400  0.266000  0.728800  1
  C  C511  1  0.687900  0.790500  0.232500  1
  C  C512  1  0.312100  0.209500  0.767500  1
  C  C513  1  0.618000  0.807500  0.198900  1
  C  C514  1  0.382000  0.192500  0.801100  1
  C  C515  1  0.558000  0.772100  0.199300  1
  C  C516  1  0.442000  0.227900  0.800700  1
  C  C517  1  0.589600  0.717700  0.244800  1
  C  C518  1  0.410400  0.282300  0.755200  1
  C  C519  1  0.085400  0.934800  0.449300  1
  C  C520  1  0.914600  0.065200  0.550700  1
  C  C521  1  0.020100  0.933700  0.488100  1
  C  C522  1  0.979900  0.066300  0.511900  1
  C  C523  1  0.019700  0.888100  0.534600  1
  C  C524  1  0.980300  0.111900  0.465400  1
  C  C525  1  0.086300  0.842600  0.544400  1
  C  C526  1  0.913700  0.157400  0.455600  1
  C  C527  1  0.154100  0.842500  0.510400  1
  C  C528  1  0.845900  0.157500  0.489600  1
  C  C529  1  0.152800  0.890700  0.460000  1
  C  C530  1  0.847200  0.109300  0.540000  1
  C  C531  1  0.483300  0.606400  0.461900  1
  C  C532  1  0.516700  0.393600  0.538100  1
  C  C533  1  0.400300  0.648500  0.457700  1
  C  C534  1  0.599700  0.351500  0.542300  1
  C  C535  1  0.343300  0.643800  0.498000  1
  C  C536  1  0.656700  0.356200  0.502000  1
  C  C537  1  0.360900  0.599200  0.545700  1
  C  C538  1  0.639100  0.400800  0.454300  1
  C  C539  1  0.431400  0.556400  0.555900  1
  C  C540  1  0.568600  0.443600  0.444100  1
  C  C541  1  0.492300  0.561200  0.513800  1
  C  C542  1  0.507700  0.438800  0.486200  1
  C  C543  1  0.486500  0.195300  0.945100  1
  C  C544  1  0.513500  0.804700  0.054900  1
  C  C545  1  0.406200  0.225000  0.924700  1
  C  C546  1  0.593800  0.775000  0.075300  1
  C  C547  1  0.388000  0.286600  0.887900  1
  C  C548  1  0.612000  0.713400  0.112100  1
  C  C549  1  0.458600  0.302800  0.884900  1
  C  C550  1  0.541400  0.697200  0.115100  1
  C  C551  1  0.553000  0.276800  0.911700  1
  C  C552  1  0.447000  0.723200  0.088300  1
  C  C553  1  0.554600  0.219500  0.938000  1
  C  C554  1  0.445400  0.780500  0.062000  1
  C  C555  1  0.800800  0.948100  0.963100  1
  C  C556  1  0.199200  0.051900  0.036900  1
  C  C557  1  0.818800  0.906400  0.948200  1
  C  C558  1  0.181200  0.093600  0.051800  1
  C  C559  1  0.896800  0.892700  0.917900  1
  C  C560  1  0.103200  0.107300  0.082100  1
  C  C561  1  0.953000  0.927200  0.916100  1
  C  C562  1  0.047000  0.072800  0.083900  1
  C  C563  1  0.929500  0.969700  0.933700  1
  C  C564  1  0.070500  0.030300  0.066300  1
  C  C565  1  0.854100  0.984300  0.957100  1
  C  C566  1  0.145900  0.015700  0.042900  1
  C  C567  1  0.086500  0.787000  0.593500  1
  C  C568  1  0.913500  0.213000  0.406500  1
  C  C569  1  0.033800  0.795000  0.636500  1
  C  C570  1  0.966200  0.205000  0.363500  1
  C  C571  1  0.038900  0.743100  0.677000  1
  C  C572  1  0.961100  0.256900  0.323000  1
  C  C573  1  0.089800  0.694900  0.678800  1
  C  C574  1  0.910200  0.305100  0.321200  1
  C  C575  1  0.140600  0.695200  0.632300  1
  C  C576  1  0.859400  0.304800  0.367700  1
  C  C577  1  0.193900  0.645800  0.632200  1
  C  C578  1  0.806100  0.354200  0.367800  1
  C  C579  1  0.197300  0.589900  0.671400  1
  C  C580  1  0.802700  0.410100  0.328600  1
  C  C581  1  0.243500  0.544200  0.668000  1
  C  C582  1  0.756500  0.455800  0.332000  1
  C  C583  1  0.297400  0.544100  0.625300  1
  C  C584  1  0.702600  0.455900  0.374700  1
  C  C585  1  0.306100  0.596100  0.586900  1
  C  C586  1  0.693900  0.403900  0.413100  1
  C  C587  1  0.096300  0.638700  0.721100  1
  C  C588  1  0.903700  0.361300  0.278900  1
  C  C589  1  0.148000  0.592900  0.719200  1
  C  C590  1  0.852000  0.407100  0.280800  1
  C  C591  1  0.923800  0.598600  0.199900  1
  C  C592  1  0.076200  0.401400  0.800100  1
  C  C593  1  0.977700  0.550600  0.197700  1
  C  C594  1  0.022300  0.449400  0.802300  1
  C  C595  1  0.049200  0.595100  0.127200  1
  C  C596  1  0.950800  0.404900  0.872800  1
  C  C597  1  0.939500  0.646800  0.161200  1
  C  C598  1  0.060500  0.353200  0.838800  1
  C  C599  1  0.042400  0.543600  0.161700  1
  C  C600  1  0.957600  0.456400  0.838300  1
  C  C601  1  0.086100  0.485300  0.162800  1
  C  C602  1  0.913900  0.514700  0.837200  1
  C  C603  1  0.160000  0.487400  0.126900  1
  C  C604  1  0.840000  0.512600  0.873100  1
  C  C605  1  0.024300  0.462500  0.140400  1
  C  C606  1  0.975700  0.537500  0.859600  1
  C  C607  1  0.106400  0.446500  0.219100  1
  C  C608  1  0.893600  0.553500  0.780900  1
  C  C609  1  0.999600  0.647600  0.122700  1
  C  C610  1  0.000400  0.352400  0.877300  1
  C  C611  1  0.008000  0.704200  0.083500  1
  C  C612  1  0.992000  0.295800  0.916500  1
  C  C613  1  0.925500  0.736500  0.054600  1
  C  C614  1  0.074500  0.263500  0.945400  1
  C  C615  1  0.073400  0.696600  0.040100  1
  C  C616  1  0.926600  0.303400  0.959900  1
  C  C617  1  0.043200  0.732800  0.112000  1
  C  C618  1  0.956800  0.267200  0.888000  1
  C  C619  1  0.251400  0.166300  0.368200  1
  C  C620  1  0.748600  0.833700  0.631800  1
  C  C621  1  0.336900  0.135700  0.380600  1
  C  C622  1  0.663100  0.864300  0.619400  1
  C  C623  1  0.371700  0.203900  0.407100  1
  C  C624  1  0.628300  0.796100  0.592900  1
  C  C625  1  0.233400  0.216100  0.378000  1
  C  C626  1  0.766600  0.783900  0.622000  1
  C  C627  1  0.396300  0.154700  0.399300  1
  C  C628  1  0.603700  0.845300  0.600700  1
  C  C629  1  0.483100  0.111600  0.417200  1
  C  C630  1  0.516900  0.888400  0.582800  1
  C  C631  1  0.549400  0.135500  0.427600  1
  C  C632  1  0.450600  0.864500  0.572400  1
  C  C633  1  0.515500  0.091200  0.371100  1
  C  C634  1  0.484500  0.908800  0.628900  1
  C  C635  1  0.472000  0.060200  0.462900  1
  C  C636  1  0.528000  0.939800  0.537100  1
  C  C637  1  0.290700  0.238000  0.394200  1
  C  C638  1  0.709300  0.762000  0.605800  1
  C  C639  1  0.259800  0.295700  0.397600  1
  C  C640  1  0.740200  0.704300  0.602400  1
  C  C641  1  0.234300  0.338000  0.343100  1
  C  C642  1  0.765700  0.662000  0.656900  1
  C  C643  1  0.333500  0.311100  0.417900  1
  C  C644  1  0.666500  0.688900  0.582100  1
  C  C645  1  0.192900  0.295500  0.438200  1
  C  C646  1  0.807100  0.704500  0.561800  1
  C  C647  1  0.017100  0.276900  0.128500  1
  C  C648  1  0.982900  0.723100  0.871500  1
  C  C649  1  0.087600  0.284000  0.098700  1
  C  C650  1  0.912400  0.716000  0.901300  1
  C  C651  1  0.002200  0.372800  0.047700  1
  C  C652  1  0.997800  0.627200  0.952300  1
  C  C653  1  0.938900  0.317200  0.119800  1
  C  C654  1  0.061100  0.682800  0.880200  1
  C  C655  1  0.081200  0.333900  0.056700  1
  C  C656  1  0.918800  0.666100  0.943300  1
  C  C657  1  0.160500  0.348700  0.027500  1
  C  C658  1  0.839500  0.651300  0.972500  1
  C  C659  1  0.193000  0.382800  0.050800  1
  C  C660  1  0.807000  0.617200  0.949200  1
  C  C661  1  0.137700  0.385100  0.967600  1
  C  C662  1  0.862300  0.614900  0.032400  1
  C  C663  1  0.223400  0.297500  0.027200  1
  C  C664  1  0.776600  0.702500  0.972800  1
  C  C665  1  0.928700  0.368000  0.076500  1
  C  C666  1  0.071300  0.632000  0.923500  1
  C  C667  1  0.840400  0.407800  0.068300  1
  C  C668  1  0.159600  0.592200  0.931700  1
  C  C669  1  0.780800  0.387100  0.045900  1
  C  C670  1  0.219200  0.612900  0.954100  1
  C  C671  1  0.843400  0.465700  0.026100  1
  C  C672  1  0.156600  0.534300  0.973900  1
  C  C673  1  0.813000  0.417500  0.118700  1
  C  C674  1  0.187000  0.582500  0.881300  1
  C  C675  1  0.874400  0.030900  0.208400  1
  C  C676  1  0.125600  0.969100  0.791600  1
  C  C677  1  0.788900  0.050700  0.208900  1
  C  C678  1  0.211100  0.949300  0.791100  1
  C  C679  1  0.784400  0.979400  0.175200  1
  C  C680  1  0.215600  0.020600  0.824800  1
  C  C681  1  0.917500  0.988600  0.192400  1
  C  C682  1  0.082500  0.011400  0.807600  1
  C  C683  1  0.743700  0.023700  0.189000  1
  C  C684  1  0.256300  0.976300  0.811000  1
  C  C685  1  0.644600  0.042100  0.184000  1
  C  C686  1  0.355400  0.957900  0.816000  1
  C  C687  1  0.616200  0.087100  0.130800  1
  C  C688  1  0.383800  0.912900  0.869200  1
  C  C689  1  0.606000  0.065500  0.226900  1
  C  C690  1  0.394000  0.934500  0.773100  1
  C  C691  1  0.610000  0.991300  0.197400  1
  C  C692  1  0.390000  0.008700  0.802600  1
  C  C693  1  0.871100  0.960500  0.175100  1
  C  C694  1  0.128900  0.039500  0.824900  1
  C  C695  1  0.914300  0.909400  0.161300  1
  C  C696  1  0.085700  0.090600  0.838700  1
  C  C697  1  0.007500  0.895100  0.171800  1
  C  C698  1  0.992500  0.104900  0.828200  1
  C  C699  1  0.901900  0.922500  0.100400  1
  C  C700  1  0.098100  0.077500  0.899600  1
  C  C701  1  0.872900  0.863500  0.189500  1
  C  C702  1  0.127100  0.136500  0.810500  1
  C  C703  1  0.537600  0.540300  0.234400  1
  C  C704  1  0.462400  0.459700  0.765600  1
  C  C705  1  0.561900  0.486900  0.233900  1
  C  C706  1  0.438100  0.513100  0.766100  1
  C  C707  1  0.432400  0.503300  0.186800  1
  C  C708  1  0.567600  0.496700  0.813200  1
  C  C709  1  0.460800  0.575200  0.211000  1
  C  C710  1  0.539200  0.424800  0.789000  1
  C  C711  1  0.507700  0.466000  0.209600  1
  C  C712  1  0.492300  0.534000  0.790400  1
  C  C713  1  0.546400  0.405100  0.218400  1
  C  C714  1  0.453600  0.594900  0.781600  1
  C  C715  1  0.579000  0.401700  0.164300  1
  C  C716  1  0.421000  0.598300  0.835700  1
  C  C717  1  0.618000  0.379000  0.254800  1
  C  C718  1  0.382000  0.621000  0.745200  1
  C  C719  1  0.483000  0.371400  0.231000  1
  C  C720  1  0.517000  0.628600  0.769000  1
  C  C721  1  0.405700  0.556400  0.184300  1
  C  C722  1  0.594300  0.443600  0.815700  1
  C  C723  1  0.311800  0.585400  0.174300  1
  C  C724  1  0.688200  0.414600  0.825700  1
  C  C725  1  0.256000  0.549500  0.191500  1
  C  C726  1  0.744000  0.450500  0.808500  1
  C  C727  1  0.296700  0.614600  0.113400  1
  C  C728  1  0.703300  0.385400  0.886600  1
  C  C729  1  0.285000  0.632700  0.193400  1
  C  C730  1  0.715000  0.367300  0.806600  1
  C  C731  1  0.894700  0.643400  0.441200  1
  C  C732  1  0.105300  0.356600  0.558800  1
  C  C733  1  0.917800  0.599000  0.490200  1
  C  C734  1  0.082200  0.401000  0.509800  1
  C  C735  1  0.005400  0.654700  0.505000  1
  C  C736  1  0.994600  0.345300  0.495000  1
  C  C737  1  0.922500  0.691900  0.423300  1
  C  C738  1  0.077500  0.308100  0.576700  1
  C  C739  1  0.978300  0.696600  0.455200  1
  C  C740  1  0.021700  0.303400  0.544800  1
  C  C741  1  0.000400  0.752400  0.438100  1
  C  C742  1  0.999600  0.247600  0.561900  1
  C  C743  1  0.096400  0.740700  0.447100  1
  C  C744  1  0.903600  0.259300  0.552900  1
  C  C745  1  0.983700  0.786200  0.382900  1
  C  C746  1  0.016300  0.213800  0.617100  1
  C  C747  1  0.965300  0.784100  0.473500  1
  C  C748  1  0.034700  0.215900  0.526500  1
  C  C749  1  0.975000  0.607900  0.520800  1
  C  C750  1  0.025000  0.392100  0.479200  1
  C  C751  1  0.009200  0.559200  0.572000  1
  C  C752  1  0.990800  0.440800  0.428000  1
  C  C753  1  0.021600  0.583000  0.614200  1
  C  C754  1  0.978400  0.417000  0.385800  1
  C  C755  1  0.954200  0.523500  0.595000  1
  C  C756  1  0.045800  0.476500  0.405000  1
  C  C757  1  0.096800  0.527200  0.567200  1
  C  C758  1  0.903200  0.472800  0.432800  1
  C  C759  1  0.368200  0.728300  0.569100  1
  C  C760  1  0.631800  0.271700  0.430900  1
  C  C761  1  0.351200  0.967400  0.367200  1
  C  C762  1  0.648800  0.032600  0.632800  1
  C  C763  1  0.813000  0.138200  0.996500  1
  C  C764  1  0.187000  0.861800  0.003500  1
  N  N765  1  0.018000  0.033700  0.312100  1
  N  N766  1  0.982000  0.966300  0.687900  1
  N  N767  1  0.990200  0.134100  0.222400  1
  N  N768  1  0.009800  0.865900  0.777600  1
  N  N769  1  0.103100  0.172700  0.268600  1
  N  N770  1  0.896900  0.827300  0.731400  1
  N  N771  1  0.125900  0.072000  0.361800  1
  N  N772  1  0.874100  0.928000  0.638200  1
  N  N773  1  0.579700  0.594200  0.339000  1
  N  N774  1  0.420300  0.405800  0.661000  1
  N  N775  1  0.692900  0.617900  0.404300  1
  N  N776  1  0.307100  0.382100  0.595700  1
  N  N777  1  0.824000  0.618300  0.321800  1
  N  N778  1  0.176000  0.381700  0.678200  1
  N  N779  1  0.713200  0.589200  0.260500  1
  N  N780  1  0.286800  0.410800  0.739500  1
  N  N781  1  0.483900  0.953600  0.131300  1
  N  N782  1  0.516100  0.046400  0.868700  1
  N  N783  1  0.633100  0.928200  0.070500  1
  N  N784  1  0.366900  0.071800  0.929500  1
  N  N785  1  0.601900  0.039600  0.998300  1
  N  N786  1  0.398100  0.960400  0.001700  1
  N  N787  1  0.453700  0.067500  0.060000  1
  N  N788  1  0.546300  0.932500  0.940000  1
  N  N789  1  0.174000  0.071000  0.243200  1
  N  N790  1  0.826000  0.929000  0.756800  1
  N  N791  1  0.656700  0.699800  0.275300  1
  N  N792  1  0.343300  0.300200  0.724700  1
  N  N793  1  0.143800  0.740300  0.590900  1
  N  N794  1  0.856200  0.259700  0.409100  1
  N  N795  1  0.248900  0.642700  0.591500  1
  N  N796  1  0.751100  0.357300  0.408500  1
  Cl  Cl797  1  0.333600  0.761400  0.612500  1
  Cl  Cl798  1  0.666400  0.238600  0.387500  1
  Cl  Cl799  1  0.386700  0.771700  0.507200  1
  Cl  Cl800  1  0.613300  0.228300  0.492800  1
  Cl  Cl801  1  0.451500  0.672200  0.594200  1
  Cl  Cl802  1  0.548500  0.327800  0.405800  1
  Cl  Cl803  1  0.374900  0.929500  0.431300  1
  Cl  Cl804  1  0.625100  0.070500  0.568700  1
  Cl  Cl805  1  0.292400  0.942200  0.336700  1
  Cl  Cl806  1  0.707600  0.057800  0.663300  1
  Cl  Cl807  1  0.428100  0.989100  0.329700  1
  Cl  Cl808  1  0.571900  0.010900  0.670300  1
  Cl  Cl809  1  0.815000  0.084400  0.050100  1
  Cl  Cl810  1  0.185000  0.915600  0.949900  1
  Cl  Cl811  1  0.785000  0.199100  0.001200  1
  Cl  Cl812  1  0.215000  0.800900  0.998800  1
  Cl  Cl813  1  0.870400  0.130700  0.946500  1
  Cl  Cl814  1  0.129600  0.869300  0.053500  1
