# generated using pymatgen
data_Si4Ge2C69Cl4
_symmetry_space_group_name_H-M   'P 1'
_cell_length_a   18.89750000
_cell_length_b   20.79000000
_cell_length_c   24.37970000
_cell_angle_alpha   90.00000000
_cell_angle_beta   90.22900000
_cell_angle_gamma   90.00000000
_symmetry_Int_Tables_number   1
_chemical_formula_structural   Si4Ge2C69Cl4
_chemical_formula_sum   'Si24 Ge12 C414 Cl24'
_cell_volume   9578.19626211
_cell_formula_units_Z   6
loop_
 _symmetry_equiv_pos_site_id
 _symmetry_equiv_pos_as_xyz
  1  'x, y, z'
loop_
 _atom_site_type_symbol
 _atom_site_label
 _atom_site_symmetry_multiplicity
 _atom_site_fract_x
 _atom_site_fract_y
 _atom_site_fract_z
 _atom_site_occupancy
  Si  Si1  1  0.198600  0.147700  0.844700  1
  Si  Si2  1  0.801400  0.647700  0.155300  1
  Si  Si3  1  0.767700  0.410200  0.838600  1
  Si  Si4  1  0.232300  0.910200  0.161400  1
  Si  Si5  1  0.638100  0.546000  0.617900  1
  Si  Si6  1  0.361900  0.046000  0.382100  1
  Si  Si7  1  0.859800  0.382600  0.249500  1
  Si  Si8  1  0.140200  0.882600  0.750500  1
  Si  Si9  1  0.107100  0.166000  0.244300  1
  Si  Si10  1  0.892900  0.666000  0.755700  1
  Si  Si11  1  0.352800  0.037200  0.623200  1
  Si  Si12  1  0.647200  0.537200  0.376800  1
  Si  Si13  1  0.730300  0.121800  0.338600  1
  Si  Si14  1  0.269700  0.621800  0.661400  1
  Si  Si15  1  0.301600  0.384700  0.341700  1
  Si  Si16  1  0.698400  0.884700  0.658300  1
  Si  Si17  1  0.147100  0.497900  0.121200  1
  Si  Si18  1  0.852900  0.997900  0.878800  1
  Si  Si19  1  0.393700  0.363800  0.742200  1
  Si  Si20  1  0.606300  0.863800  0.257800  1
  Si  Si21  1  0.643900  0.151000  0.750800  1
  Si  Si22  1  0.356100  0.651000  0.249200  1
  Si  Si23  1  0.860000  0.982200  0.121400  1
  Si  Si24  1  0.140000  0.482200  0.878600  1
  Ge  Ge25  1  0.314740  0.079000  0.755840  1
  Ge  Ge26  1  0.685260  0.579000  0.244160  1
  Ge  Ge27  1  0.669430  0.501600  0.750230  1
  Ge  Ge28  1  0.330570  0.001600  0.249770  1
  Ge  Ge29  1  0.972720  0.263400  0.212260  1
  Ge  Ge30  1  0.027280  0.763400  0.787740  1
  Ge  Ge31  1  0.828930  0.029900  0.252270  1
  Ge  Ge32  1  0.171070  0.529900  0.747730  1
  Ge  Ge33  1  0.184970  0.454200  0.252920  1
  Ge  Ge34  1  0.815030  0.954200  0.747080  1
  Ge  Ge35  1  0.529240  0.268200  0.711910  1
  Ge  Ge36  1  0.470760  0.768200  0.288090  1
  C  C37  1  0.227000  0.122900  0.774200  1
  C  C38  1  0.773000  0.622900  0.225800  1
  C  C39  1  0.201000  0.136200  0.725700  1
  C  C40  1  0.799000  0.636200  0.274300  1
  C  C41  1  0.133800  0.174100  0.718700  1
  C  C42  1  0.866200  0.674100  0.281300  1
  C  C43  1  0.138700  0.238300  0.699600  1
  C  C44  1  0.861300  0.738300  0.300400  1
  C  C45  1  0.068300  0.151900  0.726900  1
  C  C46  1  0.931700  0.651900  0.273100  1
  C  C47  1  0.077700  0.276400  0.698900  1
  C  C48  1  0.922300  0.776400  0.301100  1
  C  C49  1  0.009800  0.188800  0.723800  1
  C  C50  1  0.990200  0.688800  0.276200  1
  C  C51  1  0.011900  0.257000  0.711600  1
  C  C52  1  0.988100  0.757000  0.288400  1
  C  C53  1  0.952600  0.297600  0.712100  1
  C  C54  1  0.047400  0.797600  0.287900  1
  C  C55  1  0.958100  0.363500  0.725900  1
  C  C56  1  0.041900  0.863500  0.274100  1
  C  C57  1  0.886300  0.278200  0.695800  1
  C  C58  1  0.113700  0.778200  0.304200  1
  C  C59  1  0.900600  0.404300  0.727900  1
  C  C60  1  0.099400  0.904300  0.272100  1
  C  C61  1  0.825900  0.320200  0.697400  1
  C  C62  1  0.174100  0.820200  0.302600  1
  C  C63  1  0.834400  0.385100  0.714000  1
  C  C64  1  0.165600  0.885100  0.286000  1
  C  C65  1  0.770700  0.429400  0.719800  1
  C  C66  1  0.229300  0.929400  0.280200  1
  C  C67  1  0.745400  0.440200  0.769000  1
  C  C68  1  0.254600  0.940200  0.231000  1
  C  C69  1  0.688900  0.500700  0.672700  1
  C  C70  1  0.311100  0.000700  0.327300  1
  C  C71  1  0.740600  0.459400  0.667800  1
  C  C72  1  0.259400  0.959400  0.332200  1
  C  C73  1  0.771600  0.439100  0.614800  1
  C  C74  1  0.228400  0.939100  0.385200  1
  C  C75  1  0.741000  0.391600  0.584100  1
  C  C76  1  0.259000  0.891600  0.415900  1
  C  C77  1  0.829700  0.470000  0.590900  1
  C  C78  1  0.170300  0.970000  0.409100  1
  C  C79  1  0.857800  0.447600  0.543700  1
  C  C80  1  0.142200  0.947600  0.456300  1
  C  C81  1  0.773600  0.366400  0.535800  1
  C  C82  1  0.226400  0.866400  0.464200  1
  C  C83  1  0.834200  0.397800  0.513600  1
  C  C84  1  0.165800  0.897800  0.486400  1
  C  C85  1  0.863700  0.373000  0.464800  1
  C  C86  1  0.136300  0.873000  0.535200  1
  C  C87  1  0.848000  0.315000  0.446000  1
  C  C88  1  0.152000  0.815000  0.554000  1
  C  C89  1  0.917000  0.396000  0.440000  1
  C  C90  1  0.083000  0.896000  0.560000  1
  C  C91  1  0.870000  0.300000  0.388000  1
  C  C92  1  0.130000  0.800000  0.612000  1
  C  C93  1  0.945000  0.379000  0.391000  1
  C  C94  1  0.055000  0.879000  0.609000  1
  C  C95  1  0.927600  0.320100  0.363800  1
  C  C96  1  0.072400  0.820100  0.636200  1
  C  C97  1  0.953400  0.295700  0.313600  1
  C  C98  1  0.046600  0.795700  0.686400  1
  C  C99  1  0.928200  0.319000  0.266500  1
  C  C100  1  0.071800  0.819000  0.733500  1
  C  C101  1  0.031500  0.220000  0.264800  1
  C  C102  1  0.968500  0.720000  0.735200  1
  C  C103  1  0.010300  0.244100  0.313200  1
  C  C104  1  0.989700  0.744100  0.686800  1
  C  C105  1  0.043800  0.225400  0.365200  1
  C  C106  1  0.956200  0.725400  0.634800  1
  C  C107  1  0.100000  0.250100  0.383300  1
  C  C108  1  0.900000  0.750100  0.616700  1
  C  C109  1  0.018000  0.181000  0.398000  1
  C  C110  1  0.982000  0.681000  0.602000  1
  C  C111  1  0.046000  0.162000  0.447900  1
  C  C112  1  0.954000  0.662000  0.552100  1
  C  C113  1  0.131000  0.230000  0.432900  1
  C  C114  1  0.869000  0.730000  0.567100  1
  C  C115  1  0.112900  0.181300  0.466600  1
  C  C116  1  0.887100  0.681300  0.533400  1
  C  C117  1  0.142100  0.162800  0.516300  1
  C  C118  1  0.857900  0.662800  0.483700  1
  C  C119  1  0.202000  0.193000  0.537200  1
  C  C120  1  0.798000  0.693000  0.462800  1
  C  C121  1  0.118200  0.116900  0.547600  1
  C  C122  1  0.881800  0.616900  0.452400  1
  C  C123  1  0.149200  0.096300  0.598000  1
  C  C124  1  0.850800  0.596300  0.402000  1
  C  C125  1  0.234000  0.174000  0.587300  1
  C  C126  1  0.766000  0.674000  0.412700  1
  C  C127  1  0.203900  0.125600  0.617300  1
  C  C128  1  0.796100  0.625600  0.382700  1
  C  C129  1  0.236800  0.112200  0.672900  1
  C  C130  1  0.763200  0.612200  0.327100  1
  C  C131  1  0.297400  0.079200  0.677500  1
  C  C132  1  0.702600  0.579200  0.322500  1
  C  C133  1  0.270700  0.126600  0.891400  1
  C  C134  1  0.729300  0.626600  0.108600  1
  C  C135  1  0.185000  0.239000  0.848500  1
  C  C136  1  0.815000  0.739000  0.151500  1
  C  C137  1  0.116000  0.102000  0.863000  1
  C  C138  1  0.884000  0.602000  0.137000  1
  C  C139  1  0.780000  0.321000  0.835000  1
  C  C140  1  0.220000  0.821000  0.165000  1
  C  C141  1  0.850000  0.446000  0.863900  1
  C  C142  1  0.150000  0.946000  0.136100  1
  C  C143  1  0.694000  0.429600  0.884600  1
  C  C144  1  0.306000  0.929600  0.115400  1
  C  C145  1  0.575000  0.601000  0.658000  1
  C  C146  1  0.425000  0.101000  0.342000  1
  C  C147  1  0.594000  0.493000  0.571000  1
  C  C148  1  0.406000  0.993000  0.429000  1
  C  C149  1  0.696000  0.602000  0.582200  1
  C  C150  1  0.304000  0.102000  0.417800  1
  C  C151  1  0.776000  0.368000  0.303000  1
  C  C152  1  0.224000  0.868000  0.697000  1
  C  C153  1  0.870000  0.457000  0.297000  1
  C  C154  1  0.130000  0.957000  0.703000  1
  C  C155  1  0.825000  0.367000  0.177000  1
  C  C156  1  0.175000  0.867000  0.823000  1
  C  C157  1  0.081600  0.125600  0.176200  1
  C  C158  1  0.918400  0.625600  0.823800  1
  C  C159  1  0.184000  0.222000  0.228600  1
  C  C160  1  0.816000  0.722000  0.771400  1
  C  C161  1  0.130200  0.101200  0.297100  1
  C  C162  1  0.869800  0.601200  0.702900  1
  C  C163  1  0.296000  0.985000  0.573000  1
  C  C164  1  0.704000  0.485000  0.427000  1
  C  C165  1  0.371000  0.103000  0.565000  1
  C  C166  1  0.629000  0.603000  0.435000  1
  C  C167  1  0.444000  0.025000  0.654000  1
  C  C168  1  0.556000  0.525000  0.346000  1
  C  C169  1  0.753400  0.090200  0.270000  1
  C  C170  1  0.246600  0.590200  0.730000  1
  C  C171  1  0.724700  0.102000  0.220300  1
  C  C172  1  0.275300  0.602000  0.779700  1
  C  C173  1  0.664700  0.144800  0.215500  1
  C  C174  1  0.335300  0.644800  0.784500  1
  C  C175  1  0.595500  0.126400  0.228000  1
  C  C176  1  0.404500  0.626400  0.772000  1
  C  C177  1  0.669700  0.209200  0.194400  1
  C  C178  1  0.330300  0.709200  0.805600  1
  C  C179  1  0.538800  0.167700  0.225600  1
  C  C180  1  0.461200  0.667700  0.774400  1
  C  C181  1  0.611300  0.251500  0.193300  1
  C  C182  1  0.388700  0.751500  0.806700  1
  C  C183  1  0.546100  0.231000  0.212200  1
  C  C184  1  0.453900  0.731000  0.787800  1
  C  C185  1  0.484400  0.273500  0.211600  1
  C  C186  1  0.515600  0.773500  0.788400  1
  C  C187  1  0.419300  0.256300  0.197300  1
  C  C188  1  0.580700  0.756300  0.802700  1
  C  C189  1  0.489800  0.340000  0.224900  1
  C  C190  1  0.510200  0.840000  0.775100  1
  C  C191  1  0.359200  0.294000  0.197100  1
  C  C192  1  0.640800  0.794000  0.802900  1
  C  C193  1  0.429600  0.379200  0.227800  1
  C  C194  1  0.570400  0.879200  0.772200  1
  C  C195  1  0.364500  0.355600  0.216900  1
  C  C196  1  0.635500  0.855600  0.783100  1
  C  C197  1  0.298400  0.396700  0.222500  1
  C  C198  1  0.701600  0.896700  0.777500  1
  C  C199  1  0.271100  0.408200  0.271100  1
  C  C200  1  0.728900  0.908200  0.728900  1
  C  C201  1  0.199100  0.454600  0.174500  1
  C  C202  1  0.800900  0.954600  0.825500  1
  C  C203  1  0.263600  0.421400  0.170600  1
  C  C204  1  0.736400  0.921400  0.829400  1
  C  C205  1  0.296200  0.406200  0.114800  1
  C  C206  1  0.703800  0.906200  0.885200  1
  C  C207  1  0.356300  0.433700  0.098200  1
  C  C208  1  0.643700  0.933700  0.901800  1
  C  C209  1  0.264000  0.363000  0.081800  1
  C  C210  1  0.736000  0.863000  0.918200  1
  C  C211  1  0.387700  0.415500  0.048700  1
  C  C212  1  0.612300  0.915500  0.951300  1
  C  C213  1  0.295000  0.350000  0.031600  1
  C  C214  1  0.705000  0.850000  0.968400  1
  C  C215  1  0.359000  0.371600  0.014600  1
  C  C216  1  0.641000  0.871600  0.985400  1
  C  C217  1  0.392600  0.350700  0.963900  1
  C  C218  1  0.607400  0.850700  0.036100  1
  C  C219  1  0.376000  0.296300  0.937800  1
  C  C220  1  0.624000  0.796300  0.062200  1
  C  C221  1  0.445000  0.389600  0.935800  1
  C  C222  1  0.555000  0.889600  0.064200  1
  C  C223  1  0.475300  0.367900  0.890500  1
  C  C224  1  0.524700  0.867900  0.109500  1
  C  C225  1  0.406800  0.276300  0.888800  1
  C  C226  1  0.593200  0.776300  0.111200  1
  C  C227  1  0.458400  0.310000  0.865600  1
  C  C228  1  0.541600  0.810000  0.134400  1
  C  C229  1  0.491700  0.288800  0.811800  1
  C  C230  1  0.508300  0.788800  0.188200  1
  C  C231  1  0.470000  0.312200  0.762800  1
  C  C232  1  0.530000  0.812200  0.237200  1
  C  C233  1  0.574200  0.212800  0.767500  1
  C  C234  1  0.425800  0.712800  0.232500  1
  C  C235  1  0.549400  0.235800  0.812000  1
  C  C236  1  0.450600  0.735800  0.188000  1
  C  C237  1  0.573300  0.213700  0.863700  1
  C  C238  1  0.426700  0.713700  0.136300  1
  C  C239  1  0.611000  0.249000  0.900000  1
  C  C240  1  0.389000  0.749000  0.100000  1
  C  C241  1  0.562800  0.148600  0.883300  1
  C  C242  1  0.437200  0.648600  0.116700  1
  C  C243  1  0.644000  0.223000  0.950800  1
  C  C244  1  0.356000  0.723000  0.049200  1
  C  C245  1  0.588600  0.126700  0.932000  1
  C  C246  1  0.411400  0.626700  0.068000  1
  C  C247  1  0.634500  0.159100  0.965300  1
  C  C248  1  0.365500  0.659100  0.034700  1
  C  C249  1  0.666200  0.134400  0.014300  1
  C  C250  1  0.333800  0.634400  0.985700  1
  C  C251  1  0.731200  0.159400  0.032700  1
  C  C252  1  0.268800  0.659400  0.967300  1
  C  C253  1  0.633600  0.083200  0.045600  1
  C  C254  1  0.366400  0.583200  0.954400  1
  C  C255  1  0.759000  0.134800  0.084500  1
  C  C256  1  0.241000  0.634800  0.915500  1
  C  C257  1  0.664100  0.065300  0.093900  1
  C  C258  1  0.335900  0.565300  0.906100  1
  C  C259  1  0.725800  0.090100  0.115400  1
  C  C260  1  0.274200  0.590100  0.884600  1
  C  C261  1  0.758000  0.070200  0.169400  1
  C  C262  1  0.242000  0.570200  0.830600  1
  C  C263  1  0.810200  0.028800  0.175100  1
  C  C264  1  0.189800  0.528800  0.824900  1
  C  C265  1  0.807000  0.107000  0.386100  1
  C  C266  1  0.193000  0.607000  0.613900  1
  C  C267  1  0.651000  0.075000  0.365900  1
  C  C268  1  0.349000  0.575000  0.634100  1
  C  C269  1  0.710000  0.210000  0.335600  1
  C  C270  1  0.290000  0.710000  0.664400  1
  C  C271  1  0.327000  0.301000  0.343900  1
  C  C272  1  0.673000  0.801000  0.656100  1
  C  C273  1  0.377000  0.436000  0.363000  1
  C  C274  1  0.623000  0.936000  0.637000  1
  C  C275  1  0.229100  0.400800  0.391300  1
  C  C276  1  0.770900  0.900800  0.608700  1
  C  C277  1  0.094000  0.568000  0.162000  1
  C  C278  1  0.906000  0.068000  0.838000  1
  C  C279  1  0.204000  0.548800  0.077700  1
  C  C280  1  0.796000  0.048800  0.922300  1
  C  C281  1  0.099000  0.448000  0.074000  1
  C  C282  1  0.901000  0.948000  0.926000  1
  C  C283  1  0.368100  0.426800  0.793700  1
  C  C284  1  0.631900  0.926800  0.206300  1
  C  C285  1  0.319000  0.308000  0.729700  1
  C  C286  1  0.681000  0.808000  0.270300  1
  C  C287  1  0.420800  0.406200  0.676700  1
  C  C288  1  0.579200  0.906200  0.323300  1
  C  C289  1  0.673000  0.164000  0.681000  1
  C  C290  1  0.327000  0.664000  0.319000  1
  C  C291  1  0.606000  0.074000  0.759200  1
  C  C292  1  0.394000  0.574000  0.240800  1
  C  C293  1  0.721000  0.160000  0.794500  1
  C  C294  1  0.279000  0.660000  0.205500  1
  C  C295  1  0.911000  0.037000  0.075600  1
  C  C296  1  0.089000  0.537000  0.924400  1
  C  C297  1  0.801000  0.931000  0.082000  1
  C  C298  1  0.199000  0.431000  0.918000  1
  C  C299  1  0.924000  0.928000  0.160000  1
  C  C300  1  0.076000  0.428000  0.840000  1
  C  C301  1  0.016200  0.306100  0.560400  1
  C  C302  1  0.983800  0.806100  0.439600  1
  C  C303  1  0.037800  0.374700  0.551900  1
  C  C304  1  0.962200  0.874700  0.448100  1
  C  C305  1  0.025700  0.420100  0.592900  1
  C  C306  1  0.974300  0.920100  0.407100  1
  C  C307  1  0.045800  0.484000  0.584900  1
  C  C308  1  0.954200  0.984000  0.415100  1
  C  C309  1  0.078000  0.502400  0.536000  1
  C  C310  1  0.922000  0.002400  0.464000  1
  C  C311  1  0.090000  0.456900  0.495000  1
  C  C312  1  0.910000  0.956900  0.505000  1
  C  C313  1  0.069900  0.393100  0.502900  1
  C  C314  1  0.930100  0.893100  0.497100  1
  C  C315  1  0.416000  0.512000  0.495000  1
  C  C316  1  0.584000  0.012000  0.505000  1
  C  C317  1  0.292200  0.373000  0.548200  1
  C  C318  1  0.707800  0.873000  0.451800  1
  C  C319  1  0.338000  0.320400  0.543500  1
  C  C320  1  0.662000  0.820400  0.456500  1
  C  C321  1  0.408000  0.330300  0.527100  1
  C  C322  1  0.592000  0.830300  0.472900  1
  C  C323  1  0.431800  0.392000  0.515500  1
  C  C324  1  0.568200  0.892000  0.484500  1
  C  C325  1  0.386000  0.444500  0.520200  1
  C  C326  1  0.614000  0.944500  0.479800  1
  C  C327  1  0.316000  0.434500  0.536600  1
  C  C328  1  0.684000  0.934500  0.463400  1
  C  C329  1  0.554000  0.327000  0.370900  1
  C  C330  1  0.446000  0.827000  0.629100  1
  C  C331  1  0.557300  0.284900  0.420500  1
  C  C332  1  0.442700  0.784900  0.579500  1
  C  C333  1  0.518700  0.227700  0.421800  1
  C  C334  1  0.481300  0.727700  0.578200  1
  C  C335  1  0.522000  0.188200  0.468000  1
  C  C336  1  0.478000  0.688200  0.532000  1
  C  C337  1  0.564000  0.205800  0.512800  1
  C  C338  1  0.436000  0.705800  0.487200  1
  C  C339  1  0.602000  0.263000  0.511500  1
  C  C340  1  0.398000  0.763000  0.488500  1
  C  C341  1  0.599200  0.302500  0.465300  1
  C  C342  1  0.400800  0.802500  0.534700  1
  C  C343  1  0.488300  0.227000  0.058900  1
  C  C344  1  0.511700  0.727000  0.941100  1
  C  C345  1  0.466300  0.158600  0.049800  1
  C  C346  1  0.533700  0.658600  0.950200  1
  C  C347  1  0.442200  0.138900  0.998300  1
  C  C348  1  0.557800  0.638900  0.001700  1
  C  C349  1  0.421700  0.075200  0.989900  1
  C  C350  1  0.578300  0.575200  0.010100  1
  C  C351  1  0.425400  0.031100  0.032900  1
  C  C352  1  0.574600  0.531100  0.967100  1
  C  C353  1  0.449500  0.050800  0.084400  1
  C  C354  1  0.550500  0.550800  0.915600  1
  C  C355  1  0.470000  0.114500  0.092900  1
  C  C356  1  0.530000  0.614500  0.907100  1
  C  C357  1  0.081000  0.049000  0.006600  1
  C  C358  1  0.919000  0.549000  0.993400  1
  C  C359  1  0.131900  0.100400  0.024900  1
  C  C360  1  0.868100  0.600400  0.975100  1
  C  C361  1  0.111000  0.164800  0.024000  1
  C  C362  1  0.889000  0.664800  0.976000  1
  C  C363  1  0.158000  0.212600  0.041000  1
  C  C364  1  0.842000  0.712600  0.959000  1
  C  C365  1  0.226000  0.196000  0.058800  1
  C  C366  1  0.774000  0.696000  0.941200  1
  C  C367  1  0.246700  0.132000  0.059700  1
  C  C368  1  0.753300  0.632000  0.940300  1
  C  C369  1  0.199700  0.083900  0.042700  1
  C  C370  1  0.800300  0.583900  0.957300  1
  C  C371  1  0.588600  0.389000  0.076000  1
  C  C372  1  0.411400  0.889000  0.924000  1
  C  C373  1  0.666667  0.385500  0.065800  1
  C  C374  1  0.333333  0.885500  0.934200  1
  C  C375  1  0.702000  0.326700  0.068900  1
  C  C376  1  0.298000  0.826700  0.931100  1
  C  C377  1  0.775000  0.324000  0.059400  1
  C  C378  1  0.225000  0.824000  0.940600  1
  C  C379  1  0.812000  0.380000  0.046900  1
  C  C380  1  0.188000  0.880000  0.953100  1
  C  C381  1  0.704000  0.441400  0.053300  1
  C  C382  1  0.296000  0.941400  0.946700  1
  C  C383  1  0.777000  0.438000  0.043800  1
  C  C384  1  0.223000  0.938000  0.956200  1
  C  C385  1  0.885000  0.098000  0.581000  1
  C  C386  1  0.115000  0.598000  0.419000  1
  C  C387  1  0.942000  0.117000  0.602000  1
  C  C388  1  0.058000  0.617000  0.398000  1
  C  C389  1  0.958000  0.184000  0.583000  1
  C  C390  1  0.042000  0.684000  0.417000  1
  C  C391  1  0.892000  0.209000  0.550000  1
  C  C392  1  0.108000  0.709000  0.450000  1
  C  C393  1  0.841000  0.193000  0.533000  1
  C  C394  1  0.159000  0.693000  0.467000  1
  C  C395  1  0.821000  0.139000  0.558000  1
  C  C396  1  0.179000  0.639000  0.442000  1
  C  C397  1  0.782000  0.104000  0.548000  1
  C  C398  1  0.218000  0.604000  0.452000  1
  C  C399  1  0.414000  0.973000  0.661000  1
  C  C400  1  0.586000  0.473000  0.339000  1
  C  C401  1  0.407000  0.077000  0.579000  1
  C  C402  1  0.593000  0.577000  0.421000  1
  C  C403  1  0.302000  0.971000  0.598000  1
  C  C404  1  0.698000  0.471000  0.402000  1
  C  C405  1  0.893000  0.466000  0.259000  1
  C  C406  1  0.107000  0.966000  0.741000  1
  C  C407  1  0.882000  0.417000  0.177000  1
  C  C408  1  0.118000  0.917000  0.823000  1
  C  C409  1  0.772000  0.349000  0.250000  1
  C  C410  1  0.228000  0.849000  0.750000  1
  C  C411  1  0.551000  0.560000  0.649000  1
  C  C412  1  0.449000  0.060000  0.351000  1
  C  C413  1  0.066000  0.524000  0.155000  1
  C  C414  1  0.934000  0.024000  0.845000  1
  C  C415  1  0.919000  0.221000  0.934000  1
  C  C416  1  0.081000  0.721000  0.066000  1
  C  C417  1  0.976000  0.267000  0.849000  1
  C  C418  1  0.024000  0.767000  0.151000  1
  C  C419  1  0.963000  0.268000  0.912000  1
  C  C420  1  0.037000  0.768000  0.088000  1
  C  C421  1  0.987000  0.315000  0.947000  1
  C  C422  1  0.013000  0.815000  0.053000  1
  C  C423  1  0.005000  0.291000  0.999000  1
  C  C424  1  0.995000  0.791000  0.001000  1
  C  C425  1  0.901000  0.277000  0.015000  1
  C  C426  1  0.099000  0.777000  0.985000  1
  C  C427  1  0.949000  0.201000  0.876000  1
  C  C428  1  0.051000  0.701000  0.124000  1
  C  C429  1  0.913000  0.216000  0.983000  1
  C  C430  1  0.087000  0.716000  0.017000  1
  C  C431  1  0.953000  0.243000  0.025000  1
  C  C432  1  0.047000  0.743000  0.975000  1
  C  C433  1  0.937000  0.334000  0.005000  1
  C  C434  1  0.063000  0.834000  0.995000  1
  C  C435  1  0.236000  0.344000  0.570000  1
  C  C436  1  0.764000  0.844000  0.430000  1
  C  C437  1  0.952000  0.046000  0.606000  1
  C  C438  1  0.048000  0.546000  0.394000  1
  C  C439  1  0.906000  0.143000  0.573000  1
  C  C440  1  0.094000  0.643000  0.427000  1
  C  C441  1  0.718000  0.207000  0.553000  1
  C  C442  1  0.282000  0.707000  0.447000  1
  C  C443  1  0.682000  0.143000  0.542000  1
  C  C444  1  0.318000  0.643000  0.458000  1
  C  C445  1  0.826000  0.078000  0.570000  1
  C  C446  1  0.174000  0.578000  0.430000  1
  C  C447  1  0.737000  0.100000  0.546000  1
  C  C448  1  0.263000  0.600000  0.454000  1
  C  C449  1  0.794000  0.190000  0.560000  1
  C  C450  1  0.206000  0.690000  0.440000  1
  Cl  Cl451  1  0.408900  0.130700  0.778700  1
  Cl  Cl452  1  0.591100  0.630700  0.221300  1
  Cl  Cl453  1  0.328400  0.986500  0.794500  1
  Cl  Cl454  1  0.671600  0.486500  0.205500  1
  Cl  Cl455  1  0.679300  0.594400  0.789400  1
  Cl  Cl456  1  0.320700  0.094400  0.210600  1
  Cl  Cl457  1  0.564500  0.472400  0.772000  1
  Cl  Cl458  1  0.435500  0.972400  0.228000  1
  Cl  Cl459  1  0.897300  0.200900  0.171700  1
  Cl  Cl460  1  0.102700  0.700900  0.828300  1
  Cl  Cl461  1  0.029800  0.308100  0.146700  1
  Cl  Cl462  1  0.970200  0.808100  0.853300  1
  Cl  Cl463  1  0.818800  0.938900  0.293600  1
  Cl  Cl464  1  0.181200  0.438900  0.706400  1
  Cl  Cl465  1  0.934400  0.060500  0.273800  1
  Cl  Cl466  1  0.065600  0.560500  0.726200  1
  Cl  Cl467  1  0.090500  0.403500  0.276000  1
  Cl  Cl468  1  0.909500  0.903500  0.724000  1
  Cl  Cl469  1  0.172500  0.546500  0.291500  1
  Cl  Cl470  1  0.827500  0.046500  0.708500  1
  Cl  Cl471  1  0.603400  0.331500  0.671000  1
  Cl  Cl472  1  0.396600  0.831500  0.329000  1
  Cl  Cl473  1  0.474600  0.220100  0.646500  1
  Cl  Cl474  1  0.525400  0.720100  0.353500  1
