# generated using pymatgen
data_B4H74Pd3C82N14Cl2(O9F8)2
_symmetry_space_group_name_H-M   'P 1'
_cell_length_a   9.25630000
_cell_length_b   12.33320000
_cell_length_c   42.57700000
_cell_angle_alpha   90.00000000
_cell_angle_beta   90.00000000
_cell_angle_gamma   103.79200000
_symmetry_Int_Tables_number   1
_chemical_formula_structural   B4H74Pd3C82N14Cl2(O9F8)2
_chemical_formula_sum   'B8 H148 Pd6 C164 N28 Cl4 O36 F32'
_cell_volume   4720.43941437
_cell_formula_units_Z   2
loop_
 _symmetry_equiv_pos_site_id
 _symmetry_equiv_pos_as_xyz
  1  'x, y, z'
loop_
 _atom_site_type_symbol
 _atom_site_label
 _atom_site_symmetry_multiplicity
 _atom_site_fract_x
 _atom_site_fract_y
 _atom_site_fract_z
 _atom_site_occupancy
  B  B1  1  0.882000  0.963000  0.771600  1
  B  B2  1  0.118000  0.537000  0.271600  1
  B  B3  1  0.118000  0.037000  0.228400  1
  B  B4  1  0.882000  0.463000  0.728400  1
  B  B5  1  0.321000  0.767700  0.897200  1
  B  B6  1  0.679000  0.732300  0.397200  1
  B  B7  1  0.679000  0.232300  0.102800  1
  B  B8  1  0.321000  0.267700  0.602800  1
  H  H9  1  0.193600  0.173000  0.749000  1
  H  H10  1  0.806400  0.327000  0.249000  1
  H  H11  1  0.806400  0.827000  0.251000  1
  H  H12  1  0.193600  0.673000  0.751000  1
  H  H13  1  0.093100  0.203100  0.697800  1
  H  H14  1  0.906900  0.296900  0.197800  1
  H  H15  1  0.906900  0.796900  0.302200  1
  H  H16  1  0.093100  0.703100  0.802200  1
  H  H17  1  0.227000  0.158700  0.683000  1
  H  H18  1  0.773000  0.341300  0.183000  1
  H  H19  1  0.773000  0.841300  0.317000  1
  H  H20  1  0.227000  0.658700  0.817000  1
  H  H21  1  0.206900  0.280300  0.674000  1
  H  H22  1  0.793100  0.219700  0.174000  1
  H  H23  1  0.793100  0.719700  0.326000  1
  H  H24  1  0.206900  0.780300  0.826000  1
  H  H25  1  0.379900  0.436400  0.719000  1
  H  H26  1  0.620100  0.063600  0.219000  1
  H  H27  1  0.620100  0.563600  0.281000  1
  H  H28  1  0.379900  0.936400  0.781000  1
  H  H29  1  0.409000  0.381200  0.686300  1
  H  H30  1  0.591000  0.118800  0.186300  1
  H  H31  1  0.591000  0.618800  0.313700  1
  H  H32  1  0.409000  0.881200  0.813700  1
  H  H33  1  0.501200  0.363400  0.716900  1
  H  H34  1  0.498800  0.136600  0.216900  1
  H  H35  1  0.498800  0.636600  0.283100  1
  H  H36  1  0.501200  0.863400  0.783100  1
  H  H37  1  0.528700  0.581200  0.869600  1.0
  H  H38  1  0.471300  0.918800  0.369600  1.0
  H  H39  1  0.471300  0.418800  0.130400  1.0
  H  H40  1  0.528700  0.081200  0.630400  1.0
  H  H41  1  0.762900  0.759200  0.800200  1.0
  H  H42  1  0.237100  0.740800  0.300200  1.0
  H  H43  1  0.237100  0.240800  0.199800  1.0
  H  H44  1  0.762900  0.259200  0.699800  1.0
  H  H45  1  0.682500  0.610000  0.767100  1.0
  H  H46  1  0.317500  0.890000  0.267100  1.0
  H  H47  1  0.317500  0.390000  0.232900  1.0
  H  H48  1  0.682500  0.110000  0.732900  1.0
  H  H49  1  0.534200  0.446900  0.785400  1.0
  H  H50  1  0.465800  0.053100  0.285400  1.0
  H  H51  1  0.465800  0.553100  0.214600  1.0
  H  H52  1  0.534200  0.946900  0.714600  1.0
  H  H53  1  0.623600  0.825000  0.857100  1.0
  H  H54  1  0.376400  0.675000  0.357100  1.0
  H  H55  1  0.376400  0.175000  0.142900  1.0
  H  H56  1  0.623600  0.325000  0.642900  1.0
  H  H57  1  0.795600  0.822600  0.856500  1.0
  H  H58  1  0.204400  0.677400  0.356500  1.0
  H  H59  1  0.204400  0.177400  0.143500  1.0
  H  H60  1  0.795600  0.322600  0.643500  1.0
  H  H61  1  0.591200  0.632700  0.940900  1.0
  H  H62  1  0.408800  0.867300  0.440900  1.0
  H  H63  1  0.408800  0.367300  0.059100  1.0
  H  H64  1  0.591200  0.132700  0.559100  1.0
  H  H65  1  0.654300  0.714800  0.029900  1.0
  H  H66  1  0.345700  0.785200  0.529900  1.0
  H  H67  1  0.345700  0.285200  0.970100  1.0
  H  H68  1  0.654300  0.214800  0.470100  1.0
  H  H69  1  0.807300  0.941300  0.963300  1.0
  H  H70  1  0.192700  0.558700  0.463300  1.0
  H  H71  1  0.192700  0.058700  0.036700  1.0
  H  H72  1  0.807300  0.441300  0.536700  1.0
  H  H73  1  0.213400  0.458600  0.884600  1.0
  H  H74  1  0.786600  0.041400  0.384600  1.0
  H  H75  1  0.786600  0.541400  0.115400  1.0
  H  H76  1  0.213400  0.958600  0.615400  1.0
  H  H77  1  0.851600  0.490500  0.835600  1.0
  H  H78  1  0.148400  0.009500  0.335600  1.0
  H  H79  1  0.148400  0.509500  0.164400  1.0
  H  H80  1  0.851600  0.990500  0.664400  1.0
  H  H81  1  0.943600  0.415400  0.791900  1.0
  H  H82  1  0.056400  0.084600  0.291900  1.0
  H  H83  1  0.056400  0.584600  0.208100  1.0
  H  H84  1  0.943600  0.915400  0.708100  1.0
  H  H85  1  0.170800  0.361100  0.796600  1.0
  H  H86  1  0.829200  0.138900  0.296600  1.0
  H  H87  1  0.829200  0.638900  0.203400  1.0
  H  H88  1  0.170800  0.861100  0.703400  1.0
  H  H89  1  0.957000  0.609900  0.885600  1.0
  H  H90  1  0.043000  0.890100  0.385600  1.0
  H  H91  1  0.043000  0.390100  0.114400  1.0
  H  H92  1  0.957000  0.109900  0.614400  1.0
  H  H93  1  0.855000  0.489900  0.894800  1.0
  H  H94  1  0.145000  0.010100  0.394800  1.0
  H  H95  1  0.145000  0.510100  0.105200  1.0
  H  H96  1  0.855000  0.989900  0.605200  1.0
  H  H97  1  0.260300  0.516500  0.954800  1.0
  H  H98  1  0.739700  0.983500  0.454800  1.0
  H  H99  1  0.739700  0.483500  0.045200  1.0
  H  H100  1  0.260300  0.016500  0.545200  1.0
  H  H101  1  0.333200  0.617300  0.042300  1.0
  H  H102  1  0.666800  0.882700  0.542300  1.0
  H  H103  1  0.666800  0.382700  0.957700  1.0
  H  H104  1  0.333200  0.117300  0.457700  1.0
  H  H105  1  0.990800  0.690200  0.994600  1.0
  H  H106  1  0.009200  0.809800  0.494600  1.0
  H  H107  1  0.009200  0.309800  0.005400  1.0
  H  H108  1  0.990800  0.190200  0.505400  1.0
  H  H109  1  0.377000  0.695600  0.111600  1.0
  H  H110  1  0.623000  0.804400  0.611600  1.0
  H  H111  1  0.623000  0.304400  0.888400  1.0
  H  H112  1  0.377000  0.195600  0.388400  1.0
  H  H113  1  0.133400  0.876900  0.156000  1.0
  H  H114  1  0.866600  0.623100  0.656000  1.0
  H  H115  1  0.866600  0.123100  0.844000  1.0
  H  H116  1  0.133400  0.376900  0.344000  1.0
  H  H117  1  0.258800  0.860000  0.201700  1.0
  H  H118  1  0.741200  0.640000  0.701700  1.0
  H  H119  1  0.741200  0.140000  0.798300  1.0
  H  H120  1  0.258800  0.360000  0.298300  1.0
  H  H121  1  0.441300  0.759300  0.201700  1.0
  H  H122  1  0.558700  0.740700  0.701700  1.0
  H  H123  1  0.558700  0.240700  0.798300  1.0
  H  H124  1  0.441300  0.259300  0.298300  1.0
  H  H125  1  0.184800  0.879400  0.093100  1.0
  H  H126  1  0.815200  0.620600  0.593100  1.0
  H  H127  1  0.815200  0.120600  0.906900  1.0
  H  H128  1  0.184800  0.379400  0.406900  1.0
  H  H129  1  0.049500  0.779700  0.104200  1.0
  H  H130  1  0.950500  0.720300  0.604200  1.0
  H  H131  1  0.950500  0.220300  0.895800  1.0
  H  H132  1  0.049500  0.279700  0.395800  1.0
  H  H133  1  0.712400  0.786000  0.099500  1.0
  H  H134  1  0.287600  0.714000  0.599500  1.0
  H  H135  1  0.287600  0.214000  0.900500  1.0
  H  H136  1  0.712400  0.286000  0.400500  1.0
  H  H137  1  0.941200  0.094000  0.129500  1.0
  H  H138  1  0.058800  0.406000  0.629500  1.0
  H  H139  1  0.058800  0.906000  0.870500  1.0
  H  H140  1  0.941200  0.594000  0.370500  1.0
  H  H141  1  0.868700  0.023700  0.178800  1.0
  H  H142  1  0.131300  0.476300  0.678800  1.0
  H  H143  1  0.131300  0.976300  0.821200  1.0
  H  H144  1  0.868700  0.523700  0.321200  1.0
  H  H145  1  0.781300  0.849100  0.190100  1.0
  H  H146  1  0.218700  0.650900  0.690100  1.0
  H  H147  1  0.218700  0.150900  0.809900  1.0
  H  H148  1  0.781300  0.349100  0.309900  1.0
  H  H149  1  0.959100  0.015100  0.071200  1.0
  H  H150  1  0.040900  0.484900  0.571200  1.0
  H  H151  1  0.040900  0.984900  0.928800  1.0
  H  H152  1  0.959100  0.515100  0.428800  1.0
  H  H153  1  0.804600  0.052300  0.072400  1.0
  H  H154  1  0.195400  0.447700  0.572400  1.0
  H  H155  1  0.195400  0.947700  0.927600  1.0
  H  H156  1  0.804600  0.552300  0.427600  1.0
  Pd  Pd157  1  0.500000  0.500000  0.000000  1
  Pd  Pd158  1  0.500000  0.000000  0.500000  1
  Pd  Pd159  1  0.394250  0.347200  0.843320  1.0
  Pd  Pd160  1  0.605750  0.152800  0.343320  1.0
  Pd  Pd161  1  0.605750  0.652800  0.156680  1.0
  Pd  Pd162  1  0.394250  0.847200  0.656680  1.0
  C  C163  1  0.274000  0.236000  0.745200  1
  C  C164  1  0.726000  0.264000  0.245200  1
  C  C165  1  0.726000  0.764000  0.254800  1
  C  C166  1  0.274000  0.736000  0.754800  1
  C  C167  1  0.197000  0.225000  0.690800  1
  C  C168  1  0.803000  0.275000  0.190800  1
  C  C169  1  0.803000  0.775000  0.309200  1
  C  C170  1  0.197000  0.725000  0.809200  1
  C  C171  1  0.404000  0.371000  0.709200  1
  C  C172  1  0.596000  0.129000  0.209200  1
  C  C173  1  0.596000  0.629000  0.290800  1
  C  C174  1  0.404000  0.871000  0.790800  1
  C  C175  1  0.566400  0.586800  0.848800  1.0
  C  C176  1  0.433600  0.913200  0.348800  1.0
  C  C177  1  0.433600  0.413200  0.151200  1.0
  C  C178  1  0.566400  0.086800  0.651200  1.0
  C  C179  1  0.662300  0.688100  0.839700  1.0
  C  C180  1  0.337700  0.811900  0.339700  1.0
  C  C181  1  0.337700  0.311900  0.160300  1.0
  C  C182  1  0.662300  0.188100  0.660300  1.0
  C  C183  1  0.701000  0.692300  0.808300  1.0
  C  C184  1  0.299000  0.807700  0.308300  1.0
  C  C185  1  0.299000  0.307700  0.191700  1.0
  C  C186  1  0.701000  0.192300  0.691700  1.0
  C  C187  1  0.654000  0.604000  0.788600  1.0
  C  C188  1  0.346000  0.896000  0.288600  1.0
  C  C189  1  0.346000  0.396000  0.211400  1.0
  C  C190  1  0.654000  0.104000  0.711400  1.0
  C  C191  1  0.566000  0.507500  0.799500  1.0
  C  C192  1  0.434000  0.992500  0.299500  1.0
  C  C193  1  0.434000  0.492500  0.200500  1.0
  C  C194  1  0.566000  0.007500  0.700500  1.0
  C  C195  1  0.694000  0.777100  0.860800  1.0
  C  C196  1  0.306000  0.722900  0.360800  1.0
  C  C197  1  0.306000  0.222900  0.139200  1.0
  C  C198  1  0.694000  0.277100  0.639200  1.0
  C  C199  1  0.728800  0.827700  0.913400  1.0
  C  C200  1  0.271200  0.672300  0.413400  1.0
  C  C201  1  0.271200  0.172300  0.086600  1.0
  C  C202  1  0.728800  0.327700  0.586600  1.0
  C  C203  1  0.707600  0.789400  0.946900  1.0
  C  C204  1  0.292400  0.710600  0.446900  1.0
  C  C205  1  0.292400  0.210600  0.053100  1.0
  C  C206  1  0.707600  0.289400  0.553100  1.0
  C  C207  1  0.634400  0.686200  0.956400  1.0
  C  C208  1  0.365600  0.813800  0.456400  1.0
  C  C209  1  0.365600  0.313800  0.043600  1.0
  C  C210  1  0.634400  0.186200  0.543600  1.0
  C  C211  1  0.672500  0.733300  0.008400  1.0
  C  C212  1  0.327500  0.766700  0.508400  1.0
  C  C213  1  0.327500  0.266700  0.991600  1.0
  C  C214  1  0.672500  0.233300  0.491600  1.0
  C  C215  1  0.758000  0.846600  0.000000  1.0
  C  C216  1  0.242000  0.653400  0.500000  1.0
  C  C217  1  0.242000  0.153400  0.000000  1.0
  C  C218  1  0.758000  0.346600  0.500000  1.0
  C  C219  1  0.762700  0.867300  0.969900  1.0
  C  C220  1  0.237300  0.632700  0.469900  1.0
  C  C221  1  0.237300  0.132700  0.030100  1.0
  C  C222  1  0.762700  0.367300  0.530100  1.0
  C  C223  1  0.810000  0.932900  0.023800  1.0
  C  C224  1  0.190000  0.567100  0.523800  1.0
  C  C225  1  0.190000  0.067100  0.976200  1.0
  C  C226  1  0.810000  0.432900  0.476200  1.0
  C  C227  1  0.157000  0.448900  0.865700  1.0
  C  C228  1  0.843000  0.051100  0.365700  1.0
  C  C229  1  0.843000  0.551100  0.134300  1.0
  C  C230  1  0.157000  0.948900  0.634300  1.0
  C  C231  1  0.022600  0.481000  0.864500  1.0
  C  C232  1  0.977400  0.019000  0.364500  1.0
  C  C233  1  0.977400  0.519000  0.135500  1.0
  C  C234  1  0.022600  0.981000  0.635500  1.0
  C  C235  1  0.943000  0.468500  0.836800  1.0
  C  C236  1  0.057000  0.031500  0.336800  1.0
  C  C237  1  0.057000  0.531500  0.163200  1.0
  C  C238  1  0.943000  0.968500  0.663200  1.0
  C  C239  1  0.996000  0.424400  0.811200  1.0
  C  C240  1  0.004000  0.075600  0.311200  1.0
  C  C241  1  0.004000  0.575600  0.188800  1.0
  C  C242  1  0.996000  0.924400  0.688800  1.0
  C  C243  1  0.131800  0.392500  0.814100  1.0
  C  C244  1  0.868200  0.107500  0.314100  1.0
  C  C245  1  0.868200  0.607500  0.185900  1.0
  C  C246  1  0.131800  0.892500  0.685900  1.0
  C  C247  1  0.958600  0.532100  0.891000  1.0
  C  C248  1  0.041400  0.967900  0.391000  1.0
  C  C249  1  0.041400  0.467900  0.109000  1.0
  C  C250  1  0.958600  0.032100  0.609000  1.0
  C  C251  1  0.012100  0.589200  0.942400  1.0
  C  C252  1  0.987900  0.910800  0.442400  1.0
  C  C253  1  0.987900  0.410800  0.057600  1.0
  C  C254  1  0.012100  0.089200  0.557600  1.0
  C  C255  1  0.109200  0.598600  0.970800  1.0
  C  C256  1  0.890800  0.901400  0.470800  1.0
  C  C257  1  0.890800  0.401400  0.029200  1.0
  C  C258  1  0.109200  0.098600  0.529200  1.0
  C  C259  1  0.231500  0.552700  0.972600  1.0
  C  C260  1  0.768500  0.947300  0.472600  1.0
  C  C261  1  0.768500  0.447300  0.027400  1.0
  C  C262  1  0.231500  0.052700  0.527400  1.0
  C  C263  1  0.275200  0.613200  0.023800  1.0
  C  C264  1  0.724800  0.886800  0.523800  1.0
  C  C265  1  0.724800  0.386800  0.976200  1.0
  C  C266  1  0.275200  0.113200  0.476200  1.0
  C  C267  1  0.156600  0.664400  0.023100  1.0
  C  C268  1  0.843400  0.835600  0.523100  1.0
  C  C269  1  0.843400  0.335600  0.976900  1.0
  C  C270  1  0.156600  0.164400  0.476900  1.0
  C  C271  1  0.072600  0.656300  0.995800  1.0
  C  C272  1  0.927400  0.843700  0.495800  1.0
  C  C273  1  0.927400  0.343700  0.004200  1.0
  C  C274  1  0.072600  0.156300  0.504200  1.0
  C  C275  1  0.351600  0.729300  0.130300  1.0
  C  C276  1  0.648400  0.770700  0.630300  1.0
  C  C277  1  0.648400  0.270700  0.869700  1.0
  C  C278  1  0.351600  0.229300  0.369700  1.0
  C  C279  1  0.240300  0.787400  0.129100  1.0
  C  C280  1  0.759700  0.712600  0.629100  1.0
  C  C281  1  0.759700  0.212600  0.870900  1.0
  C  C282  1  0.240300  0.287400  0.370900  1.0
  C  C283  1  0.208000  0.835800  0.156000  1.0
  C  C284  1  0.792000  0.664200  0.656000  1.0
  C  C285  1  0.792000  0.164200  0.844000  1.0
  C  C286  1  0.208000  0.335800  0.344000  1.0
  C  C287  1  0.282000  0.826100  0.182900  1.0
  C  C288  1  0.718000  0.673900  0.682900  1.0
  C  C289  1  0.718000  0.173900  0.817100  1.0
  C  C290  1  0.282000  0.326100  0.317100  1.0
  C  C291  1  0.390000  0.766600  0.182800  1.0
  C  C292  1  0.610000  0.733400  0.682800  1.0
  C  C293  1  0.610000  0.233400  0.817200  1.0
  C  C294  1  0.390000  0.266600  0.317200  1.0
  C  C295  1  0.158000  0.800400  0.100000  1.0
  C  C296  1  0.842000  0.699600  0.600000  1.0
  C  C297  1  0.842000  0.199600  0.900000  1.0
  C  C298  1  0.158000  0.300400  0.400000  1.0
  C  C299  1  0.115000  0.730300  0.049300  1.0
  C  C300  1  0.885000  0.769700  0.549300  1.0
  C  C301  1  0.885000  0.269700  0.950700  1.0
  C  C302  1  0.115000  0.230300  0.450700  1.0
  C  C303  1  0.750500  0.838000  0.115700  1.0
  C  C304  1  0.249500  0.662000  0.615700  1.0
  C  C305  1  0.249500  0.162000  0.884300  1.0
  C  C306  1  0.750500  0.338000  0.384300  1.0
  C  C307  1  0.827500  0.947300  0.108300  1.0
  C  C308  1  0.172500  0.552700  0.608300  1.0
  C  C309  1  0.172500  0.052700  0.891700  1.0
  C  C310  1  0.827500  0.447300  0.391700  1.0
  C  C311  1  0.883000  0.020100  0.132500  1.0
  C  C312  1  0.117000  0.479900  0.632500  1.0
  C  C313  1  0.117000  0.979900  0.867500  1.0
  C  C314  1  0.883000  0.520100  0.367500  1.0
  C  C315  1  0.846000  0.973200  0.161600  1.0
  C  C316  1  0.154000  0.526800  0.661600  1.0
  C  C317  1  0.154000  0.026800  0.838400  1.0
  C  C318  1  0.846000  0.473200  0.338400  1.0
  C  C319  1  0.787000  0.874500  0.169000  1.0
  C  C320  1  0.213000  0.625500  0.669000  1.0
  C  C321  1  0.213000  0.125500  0.831000  1.0
  C  C322  1  0.787000  0.374500  0.331000  1.0
  C  C323  1  0.851200  0.988600  0.075400  1.0
  C  C324  1  0.148800  0.511400  0.575400  1.0
  C  C325  1  0.148800  0.011400  0.924600  1.0
  C  C326  1  0.851200  0.488600  0.424600  1.0
  N  N327  1  0.291000  0.271700  0.717000  1
  N  N328  1  0.709000  0.228300  0.217000  1
  N  N329  1  0.709000  0.728300  0.283000  1
  N  N330  1  0.291000  0.771700  0.783000  1
  N  N331  1  0.523100  0.494700  0.829500  1.0
  N  N332  1  0.476900  0.005300  0.329500  1.0
  N  N333  1  0.476900  0.505300  0.170500  1.0
  N  N334  1  0.523100  0.994700  0.670500  1.0
  N  N335  1  0.620400  0.656400  0.986800  1.0
  N  N336  1  0.379600  0.843600  0.486800  1.0
  N  N337  1  0.379600  0.343600  0.013200  1.0
  N  N338  1  0.620400  0.156400  0.513200  1.0
  N  N339  1  0.205900  0.405500  0.841100  1.0
  N  N340  1  0.794100  0.094500  0.341100  1.0
  N  N341  1  0.794100  0.594500  0.158900  1.0
  N  N342  1  0.205900  0.905500  0.658900  1.0
  N  N343  1  0.308500  0.559000  0.999000  1.0
  N  N344  1  0.691500  0.941000  0.499000  1.0
  N  N345  1  0.691500  0.441000  0.001000  1.0
  N  N346  1  0.308500  0.059000  0.501000  1.0
  N  N347  1  0.423800  0.719300  0.156800  1.0
  N  N348  1  0.576200  0.780700  0.656800  1.0
  N  N349  1  0.576200  0.280700  0.843200  1.0
  N  N350  1  0.423800  0.219300  0.343200  1.0
  N  N351  1  0.731900  0.808400  0.145500  1.0
  N  N352  1  0.268100  0.691600  0.645500  1.0
  N  N353  1  0.268100  0.191600  0.854500  1.0
  N  N354  1  0.731900  0.308400  0.354500  1.0
  Cl  Cl355  1  0.450700  0.419500  0.921250  1
  Cl  Cl356  1  0.549300  0.080500  0.421250  1
  Cl  Cl357  1  0.549300  0.580500  0.078750  1
  Cl  Cl358  1  0.450700  0.919500  0.578750  1
  O  O359  1  0.350900  0.274900  0.768200  1
  O  O360  1  0.649100  0.225100  0.268200  1
  O  O361  1  0.649100  0.725100  0.231800  1
  O  O362  1  0.350900  0.774900  0.731800  1
  O  O363  1  0.684600  0.743300  0.893000  1.0
  O  O364  1  0.315400  0.756700  0.393000  1.0
  O  O365  1  0.315400  0.256700  0.107000  1.0
  O  O366  1  0.684600  0.243300  0.607000  1.0
  O  O367  1  0.784200  0.920900  0.905600  1.0
  O  O368  1  0.215800  0.579100  0.405600  1.0
  O  O369  1  0.215800  0.079100  0.094400  1.0
  O  O370  1  0.784200  0.420900  0.594400  1.0
  O  O371  1  0.876900  0.027200  0.015500  1.0
  O  O372  1  0.123100  0.472800  0.515500  1.0
  O  O373  1  0.123100  0.972800  0.984500  1.0
  O  O374  1  0.876900  0.527200  0.484500  1.0
  O  O375  1  0.786700  0.900300  0.053400  1.0
  O  O376  1  0.213300  0.599700  0.553400  1.0
  O  O377  1  0.213300  0.099700  0.946600  1.0
  O  O378  1  0.786700  0.400300  0.446600  1.0
  O  O379  1  0.047100  0.531300  0.919100  1.0
  O  O380  1  0.952900  0.968700  0.419100  1.0
  O  O381  1  0.952900  0.468700  0.080900  1.0
  O  O382  1  0.047100  0.031300  0.580900  1.0
  O  O383  1  0.905500  0.630600  0.941700  1.0
  O  O384  1  0.094500  0.869400  0.441700  1.0
  O  O385  1  0.094500  0.369400  0.058300  1.0
  O  O386  1  0.905500  0.130600  0.558300  1.0
  O  O387  1  0.192600  0.730100  0.075200  1.0
  O  O388  1  0.807400  0.769900  0.575200  1.0
  O  O389  1  0.807400  0.269900  0.924800  1.0
  O  O390  1  0.192600  0.230100  0.424800  1.0
  O  O391  1  0.021000  0.780200  0.047000  1.0
  O  O392  1  0.979000  0.719800  0.547000  1.0
  O  O393  1  0.979000  0.219800  0.953000  1.0
  O  O394  1  0.021000  0.280200  0.453000  1.0
  F  F395  1  0.925800  0.074600  0.763600  1
  F  F396  1  0.074200  0.425400  0.263600  1
  F  F397  1  0.074200  0.925400  0.236400  1
  F  F398  1  0.925800  0.574600  0.736400  1
  F  F399  1  0.769800  0.909800  0.751100  1
  F  F400  1  0.230200  0.590200  0.251100  1
  F  F401  1  0.230200  0.090200  0.248900  1
  F  F402  1  0.769800  0.409800  0.748900  1
  F  F403  1  0.829700  0.953500  0.801500  1
  F  F404  1  0.170300  0.546500  0.301500  1
  F  F405  1  0.170300  0.046500  0.198500  1
  F  F406  1  0.829700  0.453500  0.698500  1
  F  F407  1  0.997600  0.915700  0.768300  1
  F  F408  1  0.002400  0.584300  0.268300  1
  F  F409  1  0.002400  0.084300  0.231700  1
  F  F410  1  0.997600  0.415700  0.731700  1
  F  F411  1  0.334500  0.680300  0.879800  1
  F  F412  1  0.665500  0.819700  0.379800  1
  F  F413  1  0.665500  0.319700  0.120200  1
  F  F414  1  0.334500  0.180300  0.620200  1
  F  F415  1  0.401600  0.867000  0.888500  1
  F  F416  1  0.598400  0.633000  0.388500  1
  F  F417  1  0.598400  0.133000  0.111500  1
  F  F418  1  0.401600  0.367000  0.611500  1
  F  F419  1  0.170400  0.767200  0.898100  1
  F  F420  1  0.829600  0.732800  0.398100  1
  F  F421  1  0.829600  0.232800  0.101900  1
  F  F422  1  0.170400  0.267200  0.601900  1
  F  F423  1  0.355000  0.747300  0.928300  1
  F  F424  1  0.645000  0.752700  0.428300  1
  F  F425  1  0.645000  0.252700  0.071700  1
  F  F426  1  0.355000  0.247300  0.571700  1
