# generated using pymatgen
data_B2H30PdC38N6(O4F5)2
_symmetry_space_group_name_H-M   'P 1'
_cell_length_a   9.54630000
_cell_length_b   10.17550000
_cell_length_c   12.21340000
_cell_angle_alpha   78.27660000
_cell_angle_beta   74.03680000
_cell_angle_gamma   65.84350000
_symmetry_Int_Tables_number   1
_chemical_formula_structural   B2H30PdC38N6(O4F5)2
_chemical_formula_sum   'B2 H30 Pd1 C38 N6 O8 F10'
_cell_volume   1035.18581181
_cell_formula_units_Z   1
loop_
 _symmetry_equiv_pos_site_id
 _symmetry_equiv_pos_as_xyz
  1  'x, y, z'
loop_
 _atom_site_type_symbol
 _atom_site_label
 _atom_site_symmetry_multiplicity
 _atom_site_fract_x
 _atom_site_fract_y
 _atom_site_fract_z
 _atom_site_occupancy
  B  B1  1  0.628900  0.816200  0.597100  1
  B  B2  1  0.371100  0.183800  0.402900  1
  H  H3  1  0.008900  0.246100  0.588400  1.0
  H  H4  1  0.991100  0.753900  0.411600  1.0
  H  H5  1  0.840000  0.449400  0.675700  1.0
  H  H6  1  0.160000  0.550600  0.324300  1.0
  H  H7  1  0.573300  0.499300  0.722400  1.0
  H  H8  1  0.426700  0.500700  0.277600  1.0
  H  H9  1  0.656800  0.136200  0.598000  1.0
  H  H10  1  0.343200  0.863800  0.402000  1.0
  H  H11  1  0.354500  0.425400  0.744400  1.0
  H  H12  1  0.645500  0.574600  0.255600  1.0
  H  H13  1  0.372800  0.350000  0.637600  1.0
  H  H14  1  0.627200  0.650000  0.362400  1.0
  H  H15  1  0.082900  0.089800  0.966800  1.0
  H  H16  1  0.917100  0.910200  0.033200  1.0
  H  H17  1  0.357900  0.705600  0.063900  1.0
  H  H18  1  0.642100  0.294400  0.936100  1.0
  H  H19  1  0.545700  0.968200  0.845400  1.0
  H  H20  1  0.454300  0.031800  0.154600  1.0
  H  H21  1  0.918500  0.566100  0.845900  1.0
  H  H22  1  0.081500  0.433900  0.154100  1.0
  H  H23  1  0.936600  0.607700  0.957200  1.0
  H  H24  1  0.063400  0.392300  0.042800  1.0
  H  H25  1  0.253000  0.919000  0.627100  1.0
  H  H26  1  0.747000  0.081000  0.372900  1.0
  H  H27  1  0.334600  0.767700  0.784200  1.0
  H  H28  1  0.665400  0.232300  0.215800  1.0
  H  H29  1  0.178800  0.649200  0.903200  1.0
  H  H30  1  0.821200  0.350800  0.096800  1.0
  H  H31  1  0.876500  0.823900  0.695800  1.0
  H  H32  1  0.123500  0.176100  0.304200  1.0
  Pd  Pd33  1  0.000000  0.000000  0.500000  1
  C  C34  1  0.901600  0.265400  0.607900  1.0
  C  C35  1  0.098400  0.734600  0.392100  1.0
  C  C36  1  0.801200  0.386700  0.659800  1.0
  C  C37  1  0.198800  0.613300  0.340200  1.0
  C  C38  1  0.642600  0.415800  0.688400  1.0
  C  C39  1  0.357400  0.584200  0.311600  1.0
  C  C40  1  0.587000  0.322000  0.666667  1.0
  C  C41  1  0.413000  0.678000  0.333333  1.0
  C  C42  1  0.693300  0.200700  0.613700  1.0
  C  C43  1  0.306700  0.799300  0.386300  1.0
  C  C44  1  0.415900  0.340500  0.703300  1.0
  C  C45  1  0.584100  0.659500  0.296700  1.0
  C  C46  1  0.280900  0.198000  0.829300  1.0
  C  C47  1  0.719100  0.802000  0.170700  1.0
  C  C48  1  0.308800  0.053000  0.895300  1.0
  C  C49  1  0.691200  0.947000  0.104700  1.0
  C  C50  1  0.183700  0.019800  0.964200  1.0
  C  C51  1  0.816300  0.980200  0.035800  1.0
  C  C52  1  0.344700  0.794700  0.020700  1.0
  C  C53  1  0.655300  0.205300  0.979300  1.0
  C  C54  1  0.477300  0.816500  0.953700  1.0
  C  C55  1  0.522700  0.183500  0.046300  1.0
  C  C56  1  0.458900  0.949100  0.890400  1.0
  C  C57  1  0.541100  0.050900  0.109600  1.0
  C  C58  1  0.634900  0.699400  0.951200  1.0
  C  C59  1  0.365100  0.300600  0.048800  1.0
  C  C60  1  0.907400  0.646000  0.883700  1.0
  C  C61  1  0.092600  0.354000  0.116300  1.0
  C  C62  1  0.192300  0.868500  0.673200  1.0
  C  C63  1  0.807700  0.131500  0.326800  1.0
  C  C64  1  0.240300  0.779500  0.767900  1.0
  C  C65  1  0.759700  0.220500  0.232100  1.0
  C  C66  1  0.148200  0.708000  0.838200  1.0
  C  C67  1  0.851800  0.292000  0.161800  1.0
  C  C68  1  0.009700  0.724000  0.811600  1.0
  C  C69  1  0.990300  0.276000  0.188400  1.0
  C  C70  1  0.969000  0.812500  0.714800  1.0
  C  C71  1  0.031000  0.187500  0.285200  1.0
  N  N72  1  0.058700  0.883300  0.646600  1.0
  N  N73  1  0.941300  0.116700  0.353400  1.0
  N  N74  1  0.848100  0.173600  0.584500  1.0
  N  N75  1  0.151900  0.826400  0.415500  1.0
  N  N76  1  0.199200  0.893000  0.027300  1.0
  N  N77  1  0.800800  0.107000  0.972700  1.0
  O  O78  1  0.156100  0.293100  0.826700  1.0
  O  O79  1  0.843900  0.706900  0.173300  1.0
  O  O80  1  0.658700  0.577100  0.992200  1.0
  O  O81  1  0.341300  0.422900  0.007800  1.0
  O  O82  1  0.416300  0.211100  0.776600  1.0
  O  O83  1  0.583700  0.788900  0.223400  1.0
  O  O84  1  0.748000  0.749400  0.899400  1.0
  O  O85  1  0.252000  0.250600  0.100600  1.0
  F  F86  1  0.677300  0.720600  0.688800  1
  F  F87  1  0.322700  0.279400  0.311200  1
  F  F88  1  0.728400  0.886400  0.540700  1
  F  F89  1  0.271600  0.113600  0.459300  1
  F  F90  1  0.556300  0.769000  0.539700  1
  F  F91  1  0.443700  0.231000  0.460300  1
  F  F92  1  0.755200  0.712500  0.535800  1
  F  F93  1  0.244800  0.287500  0.464200  1
  F  F94  1  0.510700  0.940200  0.639400  1
  F  F95  1  0.489300  0.059800  0.360600  1
