# generated using pymatgen
data_Ni3H102C79S12N19O5
_symmetry_space_group_name_H-M   'P 1'
_cell_length_a   18.28000000
_cell_length_b   18.49000000
_cell_length_c   19.33000000
_cell_angle_alpha   112.37100000
_cell_angle_beta   114.13500000
_cell_angle_gamma   95.88200000
_symmetry_Int_Tables_number   1
_chemical_formula_structural   Ni3H102C79S12N19O5
_chemical_formula_sum   'Ni6 H204 C158 S24 N38 O10'
_cell_volume   5249.41754003
_cell_formula_units_Z   2
loop_
 _symmetry_equiv_pos_site_id
 _symmetry_equiv_pos_as_xyz
  1  'x, y, z'
loop_
 _atom_site_type_symbol
 _atom_site_label
 _atom_site_symmetry_multiplicity
 _atom_site_fract_x
 _atom_site_fract_y
 _atom_site_fract_z
 _atom_site_occupancy
  Ni  Ni1  1  0.620650  0.482730  0.230410  1
  Ni  Ni2  1  0.379350  0.517270  0.769590  1
  Ni  Ni3  1  0.121020  0.814970  0.766910  1
  Ni  Ni4  1  0.878980  0.185030  0.233090  1
  Ni  Ni5  1  0.346940  0.108730  0.525820  1
  Ni  Ni6  1  0.653060  0.891270  0.474180  1
  H  H7  1  0.511500  0.844700  0.074200  1
  H  H8  1  0.488500  0.155300  0.925800  1
  H  H9  1  0.379300  0.803100  0.968200  1
  H  H10  1  0.620700  0.196900  0.031800  1
  H  H11  1  0.385100  0.035300  0.012200  1
  H  H12  1  0.614900  0.964700  0.987800  1
  H  H13  1  0.502100  0.192400  0.122900  1
  H  H14  1  0.497900  0.807600  0.877100  1
  H  H15  1  0.740400  0.276000  0.311800  1
  H  H16  1  0.259600  0.724000  0.688200  1
  H  H17  1  0.744300  0.142000  0.293800  1
  H  H18  1  0.255700  0.858000  0.706200  1
  H  H19  1  0.638100  0.933900  0.220800  1
  H  H20  1  0.361900  0.066100  0.779200  1
  H  H21  1  0.709900  0.017200  0.273600  1
  H  H22  1  0.290100  0.982800  0.726400  1
  H  H23  1  0.677200  0.894800  0.114300  1
  H  H24  1  0.322800  0.105200  0.885700  1
  H  H25  1  0.750100  0.978300  0.168400  1
  H  H26  1  0.249900  0.021700  0.831600  1
  H  H27  1  0.739200  0.861600  0.224100  1
  H  H28  1  0.260800  0.138400  0.775900  1
  H  H29  1  0.813400  0.943300  0.274400  1
  H  H30  1  0.186600  0.056700  0.725600  1
  H  H31  1  0.852500  0.832400  0.207100  1
  H  H32  1  0.147500  0.167600  0.792900  1
  H  H33  1  0.854900  0.894800  0.170700  1
  H  H34  1  0.145100  0.105200  0.829300  1
  H  H35  1  0.779100  0.813800  0.117700  1
  H  H36  1  0.220900  0.186200  0.882300  1
  H  H37  1  0.261900  0.931700  0.905800  1
  H  H38  1  0.738100  0.068300  0.094200  1
  H  H39  1  0.283300  0.568100  0.894400  1
  H  H40  1  0.716700  0.431900  0.105600  1
  H  H41  1  0.248400  0.638500  0.932000  1
  H  H42  1  0.751600  0.361500  0.068000  1
  H  H43  1  0.319600  0.656900  0.910100  1
  H  H44  1  0.680400  0.343100  0.089900  1
  H  H45  1  0.681200  0.379000  0.286100  1
  H  H46  1  0.318800  0.621000  0.713900  1
  H  H47  1  0.311800  0.325200  0.878200  1
  H  H48  1  0.688200  0.674800  0.121800  1
  H  H49  1  0.404000  0.385000  0.930600  1
  H  H50  1  0.596000  0.615000  0.069400  1
  H  H51  1  0.344500  0.395400  0.971100  1
  H  H52  1  0.655500  0.604600  0.028900  1
  H  H53  1  0.717300  0.694100  0.660900  1
  H  H54  1  0.282700  0.305900  0.339100  1
  H  H55  1  0.714500  0.645500  0.525600  1
  H  H56  1  0.285500  0.354500  0.474400  1
  H  H57  1  0.595300  0.440400  0.344600  1
  H  H58  1  0.404700  0.559600  0.655400  1
  H  H59  1  0.569500  0.415000  0.434300  1
  H  H60  1  0.430500  0.585000  0.565700  1
  H  H61  1  0.490700  0.336800  0.501600  1
  H  H62  1  0.509300  0.663200  0.498400  1
  H  H63  1  0.499600  0.398000  0.728400  1
  H  H64  1  0.500400  0.602000  0.271600  1
  H  H65  1  0.571300  0.534500  0.780100  1
  H  H66  1  0.428700  0.465500  0.219900  1
  H  H67  1  0.731300  0.693700  0.791300  1
  H  H68  1  0.268700  0.306300  0.208700  1
  H  H69  1  0.685600  0.650100  0.824900  1
  H  H70  1  0.314400  0.349900  0.175100  1
  H  H71  1  0.570400  0.691100  0.775200  1
  H  H72  1  0.429600  0.308900  0.224800  1
  H  H73  1  0.595700  0.713300  0.716100  1
  H  H74  1  0.404300  0.286700  0.283900  1
  H  H75  1  0.693800  0.839100  0.831600  1
  H  H76  1  0.306200  0.160900  0.168400  1
  H  H77  1  0.609800  0.834300  0.836400  1
  H  H78  1  0.390200  0.165700  0.163600  1
  H  H79  1  0.722300  0.874200  0.967400  1
  H  H80  1  0.277700  0.125800  0.032600  1
  H  H81  1  0.742100  0.791900  0.930300  1
  H  H82  1  0.257900  0.208100  0.069700  1
  H  H83  1  0.659100  0.790300  0.936400  1
  H  H84  1  0.340900  0.209700  0.063600  1
  H  H85  1  0.826200  0.838800  0.383200  1
  H  H86  1  0.173800  0.161200  0.616800  1
  H  H87  1  0.731600  0.784600  0.328400  1
  H  H88  1  0.268400  0.215400  0.671600  1
  H  H89  1  0.799500  0.750700  0.308100  1
  H  H90  1  0.200500  0.249300  0.691900  1
  H  H91  1  0.414200  0.237600  0.504400  1
  H  H92  1  0.585800  0.762400  0.495600  1
  H  H93  1  0.541300  0.374300  0.926300  1
  H  H94  1  0.458700  0.625700  0.073700  1
  H  H95  1  0.482000  0.380000  0.844100  1
  H  H96  1  0.518000  0.620000  0.155900  1
  H  H97  1  0.563500  0.355200  0.852300  1
  H  H98  1  0.436500  0.644800  0.147700  1
  H  H99  1  0.980600  0.144000  0.948300  1
  H  H100  1  0.019400  0.856000  0.051700  1
  H  H101  1  0.016900  0.046900  0.859900  1
  H  H102  1  0.983100  0.953100  0.140100  1
  H  H103  1  0.156800  0.995700  0.050700  1
  H  H104  1  0.843200  0.004300  0.949300  1
  H  H105  1  0.206600  0.071900  0.237300  1
  H  H106  1  0.793400  0.928100  0.762700  1
  H  H107  1  0.154400  0.248100  0.394600  1
  H  H108  1  0.845600  0.751900  0.605400  1
  H  H109  1  0.063000  0.266300  0.280000  1
  H  H110  1  0.937000  0.733700  0.720000  1
  H  H111  1  0.956700  0.247300  0.141600  1
  H  H112  1  0.043300  0.752700  0.858400  1
  H  H113  1  0.938900  0.214100  0.046100  1
  H  H114  1  0.061100  0.785900  0.953900  1
  H  H115  1  0.094400  0.351200  0.189400  1
  H  H116  1  0.905600  0.648800  0.810600  1
  H  H117  1  0.065300  0.323300  0.091300  1
  H  H118  1  0.934700  0.676700  0.908700  1
  H  H119  1  0.993800  0.426200  0.120300  1
  H  H120  1  0.006200  0.573800  0.879700  1
  H  H121  1  0.978000  0.401100  0.182300  1
  H  H122  1  0.022000  0.598900  0.817700  1
  H  H123  1  0.850900  0.297900  0.072600  1
  H  H124  1  0.149100  0.702100  0.927400  1
  H  H125  1  0.881500  0.278200  0.004500  1
  H  H126  1  0.118500  0.721800  0.995500  1
  H  H127  1  0.848700  0.354200  0.028900  1
  H  H128  1  0.151300  0.645800  0.971100  1
  H  H129  1  0.142200  0.922900  0.928000  1
  H  H130  1  0.857800  0.077100  0.072000  1
  H  H131  1  0.904400  0.036100  0.640100  1
  H  H132  1  0.095600  0.963900  0.359900  1
  H  H133  1  0.992100  0.059800  0.719800  1
  H  H134  1  0.007900  0.940200  0.280200  1
  H  H135  1  0.912800  0.999400  0.702900  1
  H  H136  1  0.087200  0.000600  0.297100  1
  H  H137  1  0.262500  0.211500  0.457200  1
  H  H138  1  0.737500  0.788500  0.542800  1
  H  H139  1  0.133700  0.822200  0.140200  1
  H  H140  1  0.866300  0.177800  0.859800  1
  H  H141  1  0.185300  0.914100  0.179200  1
  H  H142  1  0.814700  0.085900  0.820800  1
  H  H143  1  0.116300  0.892600  0.202700  1
  H  H144  1  0.883700  0.107400  0.797300  1
  H  H145  1  0.844100  0.208400  0.619600  1
  H  H146  1  0.155900  0.791600  0.380400  1
  H  H147  1  0.990500  0.105800  0.535500  1
  H  H148  1  0.009500  0.894200  0.464500  1
  H  H149  1  0.007500  0.133200  0.629500  1
  H  H150  1  0.992500  0.866800  0.370500  1
  H  H151  1  0.013800  0.199100  0.598100  1
  H  H152  1  0.986200  0.800900  0.401900  1
  H  H153  1  0.859700  0.081500  0.438300  1
  H  H154  1  0.140300  0.918500  0.561700  1
  H  H155  1  0.847700  0.168300  0.474500  1
  H  H156  1  0.152300  0.831700  0.525500  1
  H  H157  1  0.794300  0.093900  0.471200  1
  H  H158  1  0.205700  0.906100  0.528800  1
  H  H159  1  0.529000  0.219500  0.358700  1
  H  H160  1  0.471000  0.780500  0.641300  1
  H  H161  1  0.614100  0.134200  0.351700  1
  H  H162  1  0.385900  0.865800  0.648300  1
  H  H163  1  0.578500  0.051800  0.349100  1
  H  H164  1  0.421500  0.948200  0.650900  1
  H  H165  1  0.641000  0.128700  0.437200  1
  H  H166  1  0.359000  0.871300  0.562800  1
  H  H167  1  0.449200  0.106700  0.430700  1
  H  H168  1  0.550800  0.893300  0.569300  1
  H  H169  1  0.543200  0.113700  0.485800  1
  H  H170  1  0.456800  0.886300  0.514200  1
  H  H171  1  0.485700  0.036200  0.396700  1
  H  H172  1  0.514300  0.963800  0.603300  1
  H  H173  1  0.244600  0.791200  0.044600  1
  H  H174  1  0.755400  0.208800  0.955400  1
  H  H175  1  0.370200  0.803200  0.166400  1
  H  H176  1  0.629800  0.196800  0.833600  1
  H  H177  1  0.407800  0.885200  0.252100  1
  H  H178  1  0.592200  0.114800  0.747900  1
  H  H179  1  0.442600  0.875300  0.188200  1
  H  H180  1  0.557400  0.124700  0.811800  1
  H  H181  1  0.313900  0.006400  0.155500  1
  H  H182  1  0.686100  0.993600  0.844500  1
  H  H183  1  0.408000  0.007300  0.187700  1
  H  H184  1  0.592000  0.992700  0.812300  1
  H  H185  1  0.367100  0.012400  0.246000  1
  H  H186  1  0.632900  0.987600  0.754000  1
  H  H187  1  0.858300  0.544200  0.642100  1
  H  H188  1  0.141700  0.455800  0.357900  1
  H  H189  1  0.841600  0.594000  0.590200  1
  H  H190  1  0.158400  0.406000  0.409800  1
  H  H191  1  0.931500  0.585400  0.633800  1
  H  H192  1  0.068500  0.414600  0.366200  1
  H  H193  1  0.863500  0.465600  0.428600  1
  H  H194  1  0.136500  0.534400  0.571400  1
  H  H195  1  0.938400  0.540700  0.509800  1
  H  H196  1  0.061600  0.459300  0.490200  1
  H  H197  1  0.850200  0.551900  0.464500  1
  H  H198  1  0.149800  0.448100  0.535500  1
  H  H199  1  0.842800  0.387900  0.525900  1
  H  H200  1  0.157200  0.612100  0.474100  1
  H  H201  1  0.010200  0.437100  0.159100  1
  H  H202  1  0.989800  0.562900  0.840900  1
  H  H203  1  0.953800  0.371600  0.161800  1
  H  H204  1  0.046200  0.628400  0.838200  1
  H  H205  1  0.913300  0.390700  0.010700  1
  H  H206  1  0.086700  0.609300  0.989300  1
  H  H207  1  0.860000  0.401300  0.058100  1
  H  H208  1  0.140000  0.598700  0.941900  1
  H  H209  1  0.861700  0.313500  0.004900  1
  H  H210  1  0.138300  0.686500  0.995100  1
  C  C211  1  0.532900  0.968600  0.112000  1
  C  C212  1  0.467100  0.031400  0.888000  1
  C  C213  1  0.486500  0.883300  0.063200  1
  C  C214  1  0.513500  0.116700  0.936800  1
  C  C215  1  0.406600  0.859300  0.001600  1
  C  C216  1  0.593400  0.140700  0.998400  1
  C  C217  1  0.360100  0.912400  0.983200  1
  C  C218  1  0.639900  0.087600  0.016800  1
  C  C219  1  0.408800  0.997800  0.027200  1
  C  C220  1  0.591200  0.002200  0.972800  1
  C  C221  1  0.492400  0.023900  0.092800  1
  C  C222  1  0.507600  0.976100  0.907200  1
  C  C223  1  0.550700  0.107400  0.151000  1
  C  C224  1  0.449300  0.892600  0.849000  1
  C  C225  1  0.549800  0.185400  0.159300  1
  C  C226  1  0.450200  0.814600  0.840700  1
  C  C227  1  0.619100  0.251600  0.221100  1
  C  C228  1  0.380900  0.748400  0.778900  1
  C  C229  1  0.691800  0.232100  0.270300  1
  C  C230  1  0.308200  0.767900  0.729700  1
  C  C231  1  0.696600  0.152400  0.261700  1
  C  C232  1  0.303400  0.847600  0.738300  1
  C  C233  1  0.623100  0.095500  0.201500  1
  C  C234  1  0.376900  0.904500  0.798500  1
  C  C235  1  0.668800  0.976000  0.215800  1
  C  C236  1  0.331200  0.024000  0.784200  1
  C  C237  1  0.716900  0.936900  0.172100  1
  C  C238  1  0.283100  0.063100  0.827900  1
  C  C239  1  0.772400  0.900300  0.217500  1
  C  C240  1  0.227600  0.099700  0.782500  1
  C  C241  1  0.819000  0.856300  0.174300  1
  C  C242  1  0.181000  0.143700  0.825700  1
  C  C243  1  0.274900  0.887300  0.914200  1
  C  C244  1  0.725100  0.112700  0.085800  1
  C  C245  1  0.181400  0.688900  0.797600  1
  C  C246  1  0.818600  0.311100  0.202400  1
  C  C247  1  0.269800  0.616600  0.893200  1
  C  C248  1  0.730200  0.383400  0.106800  1
  C  C249  1  0.631000  0.340800  0.238800  1
  C  C250  1  0.369000  0.659200  0.761200  1
  C  C251  1  0.483300  0.350200  0.077300  1
  C  C252  1  0.516700  0.649800  0.922700  1
  C  C253  1  0.359900  0.356400  0.934200  1
  C  C254  1  0.640100  0.643600  0.065800  1
  C  C255  1  0.689700  0.639900  0.618400  1
  C  C256  1  0.310300  0.360100  0.381600  1
  C  C257  1  0.686500  0.608600  0.535300  1
  C  C258  1  0.313500  0.391400  0.464700  1
  C  C259  1  0.644300  0.526400  0.467400  1
  C  C260  1  0.355700  0.473600  0.532600  1
  C  C261  1  0.633700  0.492700  0.382500  1
  C  C262  1  0.366300  0.507300  0.617500  1
  C  C263  1  0.598900  0.468600  0.477700  1
  C  C264  1  0.401100  0.531400  0.522300  1
  C  C265  1  0.600200  0.497100  0.560300  1
  C  C266  1  0.399800  0.502900  0.439700  1
  C  C267  1  0.646600  0.579700  0.627500  1
  C  C268  1  0.353400  0.420300  0.372500  1
  C  C269  1  0.563400  0.452800  0.591500  1
  C  C270  1  0.436600  0.547200  0.408500  1
  C  C271  1  0.509200  0.374700  0.558100  1
  C  C272  1  0.490800  0.625300  0.441900  1
  C  C273  1  0.482500  0.352200  0.605800  1
  C  C274  1  0.517500  0.647800  0.394200  1
  C  C275  1  0.512200  0.413500  0.693100  1
  C  C276  1  0.487800  0.586500  0.306900  1
  C  C277  1  0.558400  0.493900  0.726500  1
  C  C278  1  0.441600  0.506100  0.273500  1
  C  C279  1  0.584700  0.509500  0.672200  1
  C  C280  1  0.415300  0.490500  0.327800  1
  C  C281  1  0.677100  0.663500  0.778900  1
  C  C282  1  0.322900  0.336500  0.221100  1
  C  C283  1  0.617700  0.716000  0.772300  1
  C  C284  1  0.382300  0.284000  0.227700  1
  C  C285  1  0.655000  0.809900  0.841500  1
  C  C286  1  0.345000  0.190100  0.158500  1
  C  C287  1  0.698200  0.817200  0.925900  1
  C  C288  1  0.301800  0.182800  0.074100  1
  C  C289  1  0.734100  0.643700  0.360700  1
  C  C290  1  0.265900  0.356300  0.639300  1
  C  C291  1  0.788800  0.783800  0.352900  1
  C  C292  1  0.211200  0.216200  0.647100  1
  C  C293  1  0.430500  0.266800  0.562200  1
  C  C294  1  0.569500  0.733200  0.437800  1
  C  C295  1  0.425100  0.213300  0.707900  1
  C  C296  1  0.574900  0.786700  0.292100  1
  C  C297  1  0.518400  0.350900  0.865400  1
  C  C298  1  0.481600  0.649100  0.134600  1
  C  C299  1  0.053000  0.132300  0.054300  1
  C  C300  1  0.947000  0.867700  0.945700  1
  C  C301  1  0.016600  0.116300  0.968900  1
  C  C302  1  0.983400  0.883700  0.031100  1
  C  C303  1  0.036900  0.056900  0.916300  1
  C  C304  1  0.963100  0.943100  0.083700  1
  C  C305  1  0.086400  0.011700  0.945800  1
  C  C306  1  0.913600  0.988300  0.054200  1
  C  C307  1  0.123700  0.026300  0.031900  1
  C  C308  1  0.876300  0.973700  0.968100  1
  C  C309  1  0.107300  0.091800  0.089400  1
  C  C310  1  0.892700  0.908200  0.910600  1
  C  C311  1  0.130600  0.123200  0.178600  1
  C  C312  1  0.869400  0.876800  0.821400  1
  C  C313  1  0.180000  0.112200  0.245700  1
  C  C314  1  0.820000  0.887800  0.754300  1
  C  C315  1  0.191200  0.158000  0.323700  1
  C  C316  1  0.808800  0.842000  0.676300  1
  C  C317  1  0.146900  0.217900  0.339900  1
  C  C318  1  0.853100  0.782100  0.660100  1
  C  C319  1  0.093400  0.229300  0.272500  1
  C  C320  1  0.906600  0.770700  0.727500  1
  C  C321  1  0.086800  0.183700  0.193800  1
  C  C322  1  0.913200  0.816300  0.806200  1
  C  C323  1  0.982700  0.239500  0.105500  1
  C  C324  1  0.017300  0.760500  0.894500  1
  C  C325  1  0.046300  0.328100  0.132500  1
  C  C326  1  0.953700  0.671900  0.867500  1
  C  C327  1  0.977200  0.380300  0.128300  1
  C  C328  1  0.022800  0.619700  0.871700  1
  C  C329  1  0.879100  0.321300  0.050200  1
  C  C330  1  0.120900  0.678700  0.949800  1
  C  C331  1  0.110700  0.946700  0.896600  1
  C  C332  1  0.889300  0.053300  0.103400  1
  C  C333  1  0.025900  0.907600  0.689100  1
  C  C334  1  0.974100  0.092400  0.310900  1
  C  C335  1  0.940400  0.016500  0.676400  1
  C  C336  1  0.059600  0.983500  0.323600  1
  C  C337  1  0.248600  0.164000  0.407800  1
  C  C338  1  0.751400  0.836000  0.592200  1
  C  C339  1  0.268700  0.967200  0.356900  1
  C  C340  1  0.731300  0.032800  0.643100  1
  C  C341  1  0.159000  0.875000  0.190000  1
  C  C342  1  0.841000  0.125000  0.810000  1
  C  C343  1  0.890600  0.189900  0.624800  1
  C  C344  1  0.109400  0.810100  0.375200  1
  C  C345  1  0.984400  0.144200  0.581500  1
  C  C346  1  0.015600  0.855800  0.418500  1
  C  C347  1  0.848200  0.119000  0.480100  1
  C  C348  1  0.151800  0.881000  0.519900  1
  C  C349  1  0.500100  0.186500  0.371300  1
  C  C350  1  0.499900  0.813500  0.628700  1
  C  C351  1  0.595600  0.110700  0.380500  1
  C  C352  1  0.404400  0.889300  0.619500  1
  C  C353  1  0.498300  0.094500  0.428700  1
  C  C354  1  0.501700  0.905500  0.571300  1
  C  C355  1  0.257900  0.848100  0.071900  1
  C  C356  1  0.742100  0.151900  0.928100  1
  C  C357  1  0.393200  0.861800  0.192800  1
  C  C358  1  0.606800  0.138200  0.807200  1
  C  C359  1  0.357100  0.989100  0.188100  1
  C  C360  1  0.642900  0.010900  0.811900  1
  C  C361  1  0.872200  0.558100  0.605000  1
  C  C362  1  0.127800  0.441900  0.395000  1
  C  C363  1  0.878600  0.514900  0.479600  1
  C  C364  1  0.121400  0.485100  0.520400  1
  C  C365  1  0.814800  0.421000  0.506200  1
  C  C366  1  0.185200  0.579000  0.493800  1
  C  C367  1  0.894200  0.370400  0.041300  1
  C  C368  1  0.105800  0.629600  0.958700  1
  S  S369  1  0.106930  0.685840  0.708830  1
  S  S370  1  0.893070  0.314160  0.291170  1
  S  S371  1  0.194650  0.592080  0.791010  1
  S  S372  1  0.805350  0.407920  0.208990  1
  S  S373  1  0.533270  0.451180  0.101000  1
  S  S374  1  0.466730  0.548820  0.899000  1
  S  S375  1  0.395680  0.289260  0.976410  1
  S  S376  1  0.604320  0.710740  0.023590  1
  S  S377  1  0.682830  0.599580  0.251190  1
  S  S378  1  0.317170  0.400420  0.748810  1
  S  S379  1  0.806130  0.741120  0.426380  1
  S  S380  1  0.193870  0.258880  0.573620  1
  S  S381  1  0.387090  0.105720  0.644450  1
  S  S382  1  0.612910  0.894280  0.355550  1
  S  S383  1  0.459220  0.244240  0.815640  1
  S  S384  1  0.540780  0.755760  0.184360  1
  S  S385  1  0.045560  0.809820  0.646760  1
  S  S386  1  0.954440  0.190180  0.353240  1
  S  S387  1  0.963000  0.930900  0.613320  1
  S  S388  1  0.037000  0.069100  0.386680  1
  S  S389  1  0.314670  0.977930  0.462400  1
  S  S390  1  0.685330  0.022070  0.537600  1
  S  S391  1  0.237570  0.867740  0.280390  1
  S  S392  1  0.762430  0.132260  0.719610  1
  N  N393  1  0.610500  0.014000  0.179600  1
  N  N394  1  0.389500  0.986000  0.820400  1
  N  N395  1  0.231700  0.753100  0.867300  1
  N  N396  1  0.768300  0.246900  0.132700  1
  N  N397  1  0.212900  0.822200  0.861800  1
  N  N398  1  0.787100  0.177800  0.138200  1
  N  N399  1  0.511500  0.318300  0.125600  1
  N  N400  1  0.488500  0.681700  0.874400  1
  N  N401  1  0.580200  0.368900  0.196200  1
  N  N402  1  0.419800  0.631100  0.803800  1
  N  N403  1  0.639500  0.587700  0.696900  1
  N  N404  1  0.360500  0.412300  0.303100  1
  N  N405  1  0.724600  0.608200  0.404700  1
  N  N406  1  0.275400  0.391800  0.595300  1
  N  N407  1  0.670200  0.524500  0.350500  1
  N  N408  1  0.329800  0.475500  0.649500  1
  N  N409  1  0.433800  0.264200  0.679600  1
  N  N410  1  0.566200  0.735800  0.320400  1
  N  N411  1  0.405500  0.228700  0.592600  1
  N  N412  1  0.594500  0.771300  0.407400  1
  N  N413  1  0.041300  0.188400  0.119900  1
  N  N414  1  0.958700  0.811600  0.880100  1
  N  N415  1  0.049000  0.948300  0.766800  1
  N  N416  1  0.951000  0.051700  0.233200  1
  N  N417  1  0.098000  0.914800  0.818500  1
  N  N418  1  0.902000  0.085200  0.181500  1
  N  N419  1  0.257900  0.024300  0.341200  1
  N  N420  1  0.742100  0.975700  0.658800  1
  N  N421  1  0.282800  0.101200  0.416200  1
  N  N422  1  0.717200  0.898800  0.583800  1
  N  N423  1  0.906300  0.136800  0.556600  1
  N  N424  1  0.093700  0.863200  0.443400  1
  N  N425  1  0.524800  0.136800  0.385900  1
  N  N426  1  0.475200  0.863200  0.614100  1
  N  N427  1  0.329100  0.895800  0.148600  1
  N  N428  1  0.670900  0.104200  0.851400  1
  N  N429  1  0.852400  0.493400  0.537600  1
  N  N430  1  0.147600  0.506600  0.462400  1
  O  O431  1  0.964800  0.205900  0.701200  1
  O  O432  1  0.035200  0.794100  0.298800  1
  O  O433  1  0.425200  0.197200  0.372700  1
  O  O434  1  0.574800  0.802800  0.627300  1
  O  O435  1  0.210900  0.885300  0.039600  1
  O  O436  1  0.789100  0.114700  0.960400  1
  O  O437  1  0.309000  0.677200  0.265100  1
  O  O438  1  0.691000  0.322800  0.734900  1
  O  O439  1  0.737100  0.389000  0.446200  1
  O  O440  1  0.262900  0.611000  0.553800  1
