# generated using pymatgen
data_CuH20C22(NO2)2
_symmetry_space_group_name_H-M   'P 1'
_cell_length_a   7.47210000
_cell_length_b   16.31927228
_cell_length_c   16.31927228
_cell_angle_alpha   86.99568514
_cell_angle_beta   76.76563051
_cell_angle_gamma   76.76563051
_symmetry_Int_Tables_number   1
_chemical_formula_structural   CuH20C22(NO2)2
_chemical_formula_sum   'Cu4 H80 C88 N8 O16'
_cell_volume   1885.66347487
_cell_formula_units_Z   4
loop_
 _symmetry_equiv_pos_site_id
 _symmetry_equiv_pos_as_xyz
  1  'x, y, z'
loop_
 _atom_site_type_symbol
 _atom_site_label
 _atom_site_symmetry_multiplicity
 _atom_site_fract_x
 _atom_site_fract_y
 _atom_site_fract_z
 _atom_site_occupancy
  C  C1  1  0.398360  0.833530  0.925150  1.0
  C  C2  1  0.157040  0.166470  0.074850  1.0
  C  C3  1  0.676490  0.925150  0.166470  1.0
  C  C4  1  0.768110  0.074850  0.833530  1.0
  C  C5  1  0.439940  0.779980  0.857740  1.0
  C  C6  1  0.077660  0.220020  0.142260  1.0
  C  C7  1  0.702320  0.857740  0.220020  1.0
  C  C8  1  0.780080  0.142260  0.779980  1.0
  C  C9  1  0.449270  0.693900  0.862960  1.0
  C  C10  1  0.006130  0.306100  0.137040  1.0
  C  C11  1  0.687770  0.862960  0.306100  1.0
  C  C12  1  0.856830  0.137040  0.693900  1.0
  C  C13  1  0.461340  0.644130  0.786990  1.0
  C  C14  1  0.892460  0.355870  0.213010  1.0
  C  C15  1  0.751670  0.786990  0.355870  1.0
  C  C16  1  0.894530  0.213010  0.644130  1.0
  C  C17  1  0.489880  0.558220  0.791620  1.0
  C  C18  1  0.839720  0.441780  0.208380  1.0
  C  C19  1  0.718500  0.791620  0.441780  1.0
  C  C20  1  0.951900  0.208380  0.558220  1.0
  C  C21  1  0.499700  0.510300  0.723300  1.0
  C  C22  1  0.733300  0.489700  0.276700  1.0
  C  C23  1  0.777000  0.723300  0.489700  1.0
  C  C24  1  0.990000  0.276700  0.510300  1.0
  C  C25  1  0.474600  0.548500  0.647900  1.0
  C  C26  1  0.671000  0.451500  0.352100  1.0
  C  C27  1  0.877500  0.647900  0.451500  1.0
  C  C28  1  0.976900  0.352100  0.548500  1.0
  C  C29  1  0.443500  0.635700  0.642700  1.0
  C  C30  1  0.721900  0.364300  0.357300  1.0
  C  C31  1  0.913800  0.642700  0.364300  1.0
  C  C32  1  0.920800  0.357300  0.635700  1.0
  C  C33  1  0.440100  0.681800  0.709600  1.0
  C  C34  1  0.831500  0.318200  0.290400  1.0
  C  C35  1  0.850300  0.709600  0.318200  1.0
  C  C36  1  0.878100  0.290400  0.681800  1.0
  C  C37  1  0.840010  0.675020  0.078760  1.0
  C  C38  1  0.593790  0.324980  0.921240  1.0
  C  C39  1  0.081230  0.078760  0.324980  1.0
  C  C40  1  0.484970  0.921240  0.675020  1.0
  C  C41  1  0.812690  0.625580  0.136240  1.0
  C  C42  1  0.574510  0.374420  0.863760  1.0
  C  C43  1  0.051070  0.136240  0.374420  1.0
  C  C44  1  0.561730  0.863760  0.625580  1.0
  C  C45  1  0.206520  0.824850  0.180510  1.0
  C  C46  1  0.211880  0.175150  0.819490  1.0
  C  C47  1  0.612970  0.180510  0.175150  1.0
  C  C48  1  0.968630  0.819490  0.824850  1.0
  C  C49  1  0.153730  0.860510  0.258030  1.0
  C  C50  1  0.272270  0.139490  0.741970  1.0
  C  C51  1  0.588240  0.258030  0.139490  1.0
  C  C52  1  0.985760  0.741970  0.860510  1.0
  C  C53  1  0.215700  0.818220  0.326780  1.0
  C  C54  1  0.360700  0.181780  0.673220  1.0
  C  C55  1  0.457520  0.326780  0.181780  1.0
  C  C56  1  0.966080  0.673220  0.818220  1.0
  C  C57  1  0.334120  0.739680  0.308880  1.0
  C  C58  1  0.382680  0.260320  0.691120  1.0
  C  C59  1  0.357000  0.308880  0.260320  1.0
  C  C60  1  0.926200  0.691120  0.739680  1.0
  C  C61  1  0.384060  0.707160  0.229120  1.0
  C  C62  1  0.320340  0.292840  0.770880  1.0
  C  C63  1  0.386820  0.229120  0.292840  1.0
  C  C64  1  0.908780  0.770880  0.707160  1.0
  C  C65  1  0.149260  0.853740  0.413540  1.0
  C  C66  1  0.416540  0.146260  0.586460  1.0
  C  C67  1  0.437200  0.413540  0.146260  1.0
  C  C68  1  0.997000  0.586460  0.853740  1.0
  C  C69  1  0.990430  0.917790  0.436150  1.0
  C  C70  1  0.344370  0.082210  0.563850  1.0
  C  C71  1  0.573420  0.436150  0.082210  1.0
  C  C72  1  0.091780  0.563850  0.917790  1.0
  C  C73  1  0.552970  0.518370  0.054290  1.0
  C  C74  1  0.125630  0.481630  0.945710  1.0
  C  C75  1  0.392740  0.054290  0.481630  1.0
  C  C76  1  0.928660  0.945710  0.518370  1.0
  C  C77  1  0.267200  0.556900  0.146700  1.0
  C  C78  1  0.970800  0.443100  0.853300  1.0
  C  C79  1  0.586100  0.146700  0.443100  1.0
  C  C80  1  0.175900  0.853300  0.556900  1.0
  C  C81  1  0.243700  0.821700  0.477500  1.0
  C  C82  1  0.542900  0.178300  0.522500  1.0
  C  C83  1  0.278800  0.477500  0.178300  1.0
  C  C84  1  0.934600  0.522500  0.821700  1.0
  C  C85  1  0.377900  0.926200  0.908800  1.0
  C  C86  1  0.212900  0.073800  0.091200  1.0
  C  C87  1  0.713300  0.908800  0.073800  1.0
  C  C88  1  0.695900  0.091200  0.926200  1.0
  Cu  Cu89  1  0.395650  0.698750  0.044530  1.0
  Cu  Cu90  1  0.138930  0.301250  0.955470  1.0
  Cu  Cu91  1  0.559820  0.044530  0.301250  1.0
  Cu  Cu92  1  0.905600  0.955470  0.698750  1.0
  H  H93  1  0.464000  0.803200  0.804200  1.0
  H  H94  1  0.071400  0.196800  0.195800  1.0
  H  H95  1  0.731800  0.804200  0.196800  1.0
  H  H96  1  0.732800  0.195800  0.803200  1.0
  H  H97  1  0.503000  0.531600  0.842400  1.0
  H  H98  1  0.877000  0.468400  0.157600  1.0
  H  H99  1  0.654600  0.842400  0.468400  1.0
  H  H100  1  0.965400  0.157600  0.531600  1.0
  H  H101  1  0.523400  0.452000  0.727800  1.0
  H  H102  1  0.703200  0.548000  0.272200  1.0
  H  H103  1  0.748800  0.727800  0.548000  1.0
  H  H104  1  0.024600  0.272200  0.452000  1.0
  H  H105  1  0.478200  0.516600  0.601800  1.0
  H  H106  1  0.596600  0.483400  0.398200  1.0
  H  H107  1  0.920000  0.601800  0.483400  1.0
  H  H108  1  0.005200  0.398200  0.516600  1.0
  H  H109  1  0.424900  0.662600  0.592600  1.0
  H  H110  1  0.680100  0.337400  0.407400  1.0
  H  H111  1  0.982500  0.592600  0.337400  1.0
  H  H112  1  0.912500  0.407400  0.662600  1.0
  H  H113  1  0.423200  0.740000  0.704200  1.0
  H  H114  1  0.867400  0.260000  0.295800  1.0
  H  H115  1  0.872600  0.704200  0.260000  1.0
  H  H116  1  0.836800  0.295800  0.740000  1.0
  H  H117  1  0.876700  0.634300  0.178700  1.0
  H  H118  1  0.689700  0.365700  0.821300  1.0
  H  H119  1  0.944600  0.178700  0.365700  1.0
  H  H120  1  0.489000  0.821300  0.634300  1.0
  H  H121  1  0.860000  0.569000  0.115200  1.0
  H  H122  1  0.544200  0.431000  0.884800  1.0
  H  H123  1  0.024800  0.115200  0.431000  1.0
  H  H124  1  0.571000  0.884800  0.569000  1.0
  H  H125  1  0.679900  0.634300  0.160100  1.0
  H  H126  1  0.474300  0.365700  0.839900  1.0
  H  H127  1  0.160000  0.160100  0.365700  1.0
  H  H128  1  0.685800  0.839900  0.634300  1.0
  H  H129  1  0.162100  0.855200  0.136600  1.0
  H  H130  1  0.153900  0.144800  0.863400  1.0
  H  H131  1  0.701300  0.136600  0.144800  1.0
  H  H132  1  0.982700  0.863400  0.855200  1.0
  H  H133  1  0.075200  0.914000  0.265600  1.0
  H  H134  1  0.254800  0.086000  0.734400  1.0
  H  H135  1  0.659200  0.265600  0.086000  1.0
  H  H136  1  0.010800  0.734400  0.914000  1.0
  H  H137  1  0.380700  0.708400  0.351800  1.0
  H  H138  1  0.440900  0.291600  0.648200  1.0
  H  H139  1  0.267500  0.351800  0.291600  1.0
  H  H140  1  0.910900  0.648200  0.708400  1.0
  H  H141  1  0.466000  0.654600  0.219400  1.0
  H  H142  1  0.340000  0.345400  0.780600  1.0
  H  H143  1  0.314600  0.219400  0.345400  1.0
  H  H144  1  0.879400  0.780600  0.654600  1.0
  H  H145  1  0.924800  0.942200  0.395800  1.0
  H  H146  1  0.262800  0.057800  0.604200  1.0
  H  H147  1  0.679400  0.395800  0.057800  1.0
  H  H148  1  0.133000  0.604200  0.942200  1.0
  H  H149  1  0.647400  0.531900  0.011500  1.0
  H  H150  1  0.190800  0.468100  0.988500  1.0
  H  H151  1  0.341100  0.011500  0.468100  1.0
  H  H152  1  0.820700  0.988500  0.531900  1.0
  H  H153  1  0.159400  0.597800  0.168200  1.0
  H  H154  1  0.925400  0.402200  0.831800  1.0
  H  H155  1  0.672400  0.168200  0.402200  1.0
  H  H156  1  0.242800  0.831800  0.597800  1.0
  H  H157  1  0.352200  0.779000  0.465600  1.0
  H  H158  1  0.596800  0.221000  0.534400  1.0
  H  H159  1  0.182200  0.465600  0.221000  1.0
  H  H160  1  0.868800  0.534400  0.779000  1.0
  H  H161  1  0.301900  0.957000  0.958000  1.0
  H  H162  1  0.216900  0.043000  0.042000  1.0
  H  H163  1  0.740100  0.958000  0.043000  1.0
  H  H164  1  0.741100  0.042000  0.957000  1.0
  H  H165  1  0.318500  0.941800  0.862200  1.0
  H  H166  1  0.122500  0.058200  0.137800  1.0
  H  H167  1  0.819300  0.862200  0.058200  1.0
  H  H168  1  0.739700  0.137800  0.941800  1.0
  H  H169  1  0.500300  0.939300  0.895700  1.0
  H  H170  1  0.335300  0.060700  0.104300  1.0
  H  H171  1  0.604000  0.895700  0.060700  1.0
  H  H172  1  0.560400  0.104300  0.939300  1.0
  N  N173  1  0.319720  0.747950  0.163810  1.0
  N  N174  1  0.231480  0.252050  0.836190  1.0
  N  N175  1  0.516470  0.163810  0.252050  1.0
  N  N176  1  0.932330  0.836190  0.747950  1.0
  N  N177  1  0.402540  0.579880  0.086240  1.0
  N  N178  1  0.068660  0.420120  0.913760  1.0
  N  N179  1  0.511220  0.086240  0.420120  1.0
  N  N180  1  0.017580  0.913760  0.579880  1.0
  O  O181  1  0.366730  0.811930  0.002210  1.0
  O  O182  1  0.180870  0.188070  0.997790  1.0
  O  O183  1  0.631060  0.002210  0.188070  1.0
  O  O184  1  0.821340  0.997790  0.811930  1.0
  O  O185  1  0.728730  0.695410  0.031930  1.0
  O  O186  1  0.456070  0.304590  0.968070  1.0
  O  O187  1  0.239340  0.031930  0.304590  1.0
  O  O188  1  0.575860  0.968070  0.695410  1.0
  O  O189  1  0.979000  0.705370  0.068030  1.0
  O  O190  1  0.752400  0.294630  0.931970  1.0
  O  O191  1  0.952970  0.068030  0.294630  1.0
  O  O192  1  0.315630  0.931970  0.705370  1.0
  O  O193  1  0.439850  0.652890  0.932410  1.0
  O  O194  1  0.025150  0.347110  0.067590  1.0
  O  O195  1  0.627740  0.932410  0.347110  1.0
  O  O196  1  0.907260  0.067590  0.652890  1.0
