# generated using pymatgen
data_FeH40C48(NO)4
_symmetry_space_group_name_H-M   'P 1'
_cell_length_a   9.93760000
_cell_length_b   12.63750000
_cell_length_c   15.92700000
_cell_angle_alpha   74.30500000
_cell_angle_beta   76.56500000
_cell_angle_gamma   86.63900000
_symmetry_Int_Tables_number   1
_chemical_formula_structural   FeH40C48(NO)4
_chemical_formula_sum   'Fe2 H80 C96 N8 O8'
_cell_volume   1872.92179396
_cell_formula_units_Z   2
loop_
 _symmetry_equiv_pos_site_id
 _symmetry_equiv_pos_as_xyz
  1  'x, y, z'
loop_
 _atom_site_type_symbol
 _atom_site_label
 _atom_site_symmetry_multiplicity
 _atom_site_fract_x
 _atom_site_fract_y
 _atom_site_fract_z
 _atom_site_occupancy
  Fe  Fe1  1  0.851950  0.232330  0.151310  1
  Fe  Fe2  1  0.148050  0.767670  0.848690  1
  H  H3  1  0.882000  0.545400  0.323100  1
  H  H4  1  0.118000  0.454600  0.676900  1
  H  H5  1  0.059000  0.463000  0.229500  1
  H  H6  1  0.941000  0.537000  0.770500  1
  H  H7  1  0.601000  0.460700  0.162400  1
  H  H8  1  0.399000  0.539300  0.837600  1
  H  H9  1  0.775000  0.592700  0.155400  1
  H  H10  1  0.225000  0.407300  0.844600  1
  H  H11  1  0.893000  0.786000  0.131300  1
  H  H12  1  0.107000  0.214000  0.868700  1
  H  H13  1  0.905000  0.972000  0.163500  1
  H  H14  1  0.095000  0.028000  0.836500  1
  H  H15  1  0.520000  0.141000  0.407400  1
  H  H16  1  0.480000  0.859000  0.592600  1
  H  H17  1  0.278000  0.068000  0.495700  1
  H  H18  1  0.722000  0.932000  0.504300  1
  H  H19  1  0.082000  0.921000  0.547000  1
  H  H20  1  0.918000  0.079000  0.453000  1
  H  H21  1  0.910000  0.787000  0.543600  1
  H  H22  1  0.090000  0.213000  0.456400  1
  H  H23  1  0.751000  0.802000  0.377300  1
  H  H24  1  0.249000  0.198000  0.622700  1
  H  H25  1  0.525000  0.770000  0.446000  1
  H  H26  1  0.475000  0.230000  0.554000  1
  H  H27  1  0.316000  0.743000  0.546000  1
  H  H28  1  0.684000  0.257000  0.454000  1
  H  H29  1  0.223000  0.620000  0.578000  1
  H  H30  1  0.777000  0.380000  0.422000  1
  H  H31  1  0.319000  0.670000  0.468000  1
  H  H32  1  0.681000  0.330000  0.532000  1
  H  H33  1  0.620000  0.482000  0.609000  1
  H  H34  1  0.380000  0.518000  0.391000  1
  H  H35  1  0.852000  0.522000  0.530000  1
  H  H36  1  0.148000  0.478000  0.470000  1
  H  H37  1  0.288000  0.313000  0.300000  1
  H  H38  1  0.712000  0.687000  0.700000  1
  H  H39  1  0.302000  0.153000  0.257000  1
  H  H40  1  0.698000  0.847000  0.743000  1
  H  H41  1  0.388000  0.060000  0.012000  1
  H  H42  1  0.612000  0.940000  0.988000  1
  H  H43  1  0.485000  0.161000  0.990000  1
  H  H44  1  0.515000  0.839000  0.010000  1
  H  H45  1  0.318000  0.178000  0.979000  1
  H  H46  1  0.682000  0.822000  0.021000  1
  H  H47  1  0.391000  0.328000  0.003000  1
  H  H48  1  0.609000  0.672000  0.997000  1
  H  H49  1  0.377000  0.488000  0.047700  1
  H  H50  1  0.623000  0.512000  0.952300  1
  H  H51  1  0.947000  0.053500  0.269900  1
  H  H52  1  0.053000  0.946500  0.730100  1
  H  H53  1  0.010000  0.244000  0.261500  1
  H  H54  1  0.990000  0.756000  0.738500  1
  H  H55  1  0.806000  0.373000  0.249900  1
  H  H56  1  0.194000  0.627000  0.750100  1
  H  H57  1  0.602000  0.267000  0.253900  1
  H  H58  1  0.398000  0.733000  0.746100  1
  H  H59  1  0.777000  0.117000  0.049000  1
  H  H60  1  0.223000  0.883000  0.951000  1
  H  H61  1  0.030000  0.126000  0.048000  1
  H  H62  1  0.970000  0.874000  0.952000  1
  H  H63  1  0.084000  0.328000  0.046000  1
  H  H64  1  0.916000  0.672000  0.954000  1
  H  H65  1  0.871000  0.440000  0.040000  1
  H  H66  1  0.129000  0.560000  0.960000  1
  H  H67  1  0.689000  0.307000  0.040000  1
  H  H68  1  0.311000  0.693000  0.960000  1
  H  H69  1  0.212000  0.819000  0.338300  1
  H  H70  1  0.788000  0.181000  0.661700  1
  H  H71  1  0.426000  0.721000  0.221400  1
  H  H72  1  0.574000  0.279000  0.778600  1
  H  H73  1  0.526000  0.860000  0.267000  1
  H  H74  1  0.474000  0.140000  0.733000  1
  H  H75  1  0.201000  0.949000  0.110000  1
  H  H76  1  0.799000  0.051000  0.890000  1
  H  H77  1  0.094000  0.873000  0.218000  1
  H  H78  1  0.906000  0.127000  0.782000  1
  H  H79  1  0.182000  0.815000  0.152000  1
  H  H80  1  0.818000  0.185000  0.848000  1
  H  H81  1  0.332000  0.941000  0.196000  1
  H  H82  1  0.668000  0.059000  0.804000  1
  C  C83  1  0.978800  0.690030  0.400310  1
  C  C84  1  0.021200  0.309970  0.599690  1
  C  C85  1  0.035800  0.632470  0.339000  1
  C  C86  1  0.964200  0.367530  0.661000  1
  C  C87  1  0.970800  0.558100  0.309020  1
  C  C88  1  0.029200  0.441900  0.690980  1
  C  C89  1  0.068400  0.510300  0.257260  1
  C  C90  1  0.931600  0.489700  0.742740  1
  C  C91  1  0.198800  0.553000  0.251710  1
  C  C92  1  0.801200  0.447000  0.748290  1
  C  C93  1  0.327100  0.521690  0.212350  1
  C  C94  1  0.672900  0.478310  0.787650  1
  C  C95  1  0.459200  0.569210  0.201440  1
  C  C96  1  0.540800  0.430790  0.798560  1
  C  C97  1  0.588800  0.525200  0.174050  1
  C  C98  1  0.411200  0.474800  0.825950  1
  C  C99  1  0.689400  0.597600  0.170300  1
  C  C100  1  0.310600  0.402400  0.829700  1
  C  C101  1  0.624000  0.688200  0.195700  1
  C  C102  1  0.376000  0.311800  0.804300  1
  C  C103  1  0.684000  0.785540  0.199630  1
  C  C104  1  0.316000  0.214460  0.800370  1
  C  C105  1  0.820900  0.824200  0.165630  1
  C  C106  1  0.179100  0.175800  0.834370  1
  C  C107  1  0.826900  0.925100  0.181760  1
  C  C108  1  0.173100  0.074900  0.818240  1
  C  C109  1  0.695900  0.949250  0.229090  1
  C  C110  1  0.304100  0.050750  0.770910  1
  C  C111  1  0.648100  0.033720  0.272590  1
  C  C112  1  0.351900  0.966280  0.727410  1
  C  C113  1  0.516700  0.028470  0.328230  1
  C  C114  1  0.483300  0.971530  0.671770  1
  C  C115  1  0.466600  0.087000  0.395470  1
  C  C116  1  0.533400  0.913000  0.604530  1
  C  C117  1  0.341100  0.044800  0.441880  1
  C  C118  1  0.658900  0.955200  0.558120  1
  C  C119  1  0.310800  0.961990  0.403240  1
  C  C120  1  0.689200  0.038010  0.596760  1
  C  C121  1  0.192500  0.895200  0.429880  1
  C  C122  1  0.807500  0.104800  0.570120  1
  C  C123  1  0.082500  0.885000  0.504700  1
  C  C124  1  0.917500  0.115000  0.495300  1
  C  C125  1  0.992000  0.808100  0.503280  1
  C  C126  1  0.008000  0.191900  0.496720  1
  C  C127  1  0.042800  0.768100  0.428590  1
  C  C128  1  0.957200  0.231900  0.571410  1
  C  C129  1  0.829000  0.666390  0.445820  1
  C  C130  1  0.171000  0.333610  0.554180  1
  C  C131  1  0.729000  0.739900  0.422500  1
  C  C132  1  0.271000  0.260100  0.577500  1
  C  C133  1  0.589500  0.720300  0.463540  1
  C  C134  1  0.410500  0.279700  0.536460  1
  C  C135  1  0.552100  0.626200  0.531020  1
  C  C136  1  0.447900  0.373800  0.468980  1
  C  C137  1  0.313400  0.665400  0.540800  1
  C  C138  1  0.686600  0.334600  0.459200  1
  C  C139  1  0.651300  0.551800  0.556770  1
  C  C140  1  0.348700  0.448200  0.443230  1
  C  C141  1  0.788500  0.572400  0.513620  1
  C  C142  1  0.211500  0.427600  0.486380  1
  C  C143  1  0.330600  0.418990  0.181820  1
  C  C144  1  0.669400  0.581010  0.818180  1
  C  C145  1  0.308200  0.317600  0.243900  1
  C  C146  1  0.691800  0.682400  0.756100  1
  C  C147  1  0.315600  0.221100  0.217130  1
  C  C148  1  0.684400  0.778900  0.782870  1
  C  C149  1  0.348600  0.225610  0.127220  1
  C  C150  1  0.651400  0.774390  0.872780  1
  C  C151  1  0.391800  0.128500  0.014900  1
  C  C152  1  0.608200  0.871500  0.985100  1
  C  C153  1  0.370900  0.325500  0.064100  1
  C  C154  1  0.629100  0.674500  0.935900  1
  C  C155  1  0.361600  0.421500  0.092180  1
  C  C156  1  0.638400  0.578500  0.907820  1
  C  C157  1  0.741000  0.124430  0.264400  1
  C  C158  1  0.259000  0.875570  0.735600  1
  C  C159  1  0.884700  0.121500  0.264410  1
  C  C160  1  0.115300  0.878500  0.735590  1
  C  C161  1  0.926500  0.228900  0.260600  1
  C  C162  1  0.073500  0.771100  0.739400  1
  C  C163  1  0.811200  0.298300  0.257100  1
  C  C164  1  0.188800  0.701700  0.742900  1
  C  C165  1  0.697300  0.235900  0.259120  1
  C  C166  1  0.302700  0.764100  0.740880  1
  C  C167  1  0.829200  0.186600  0.043100  1
  C  C168  1  0.170800  0.813400  0.956900  1
  C  C169  1  0.969800  0.191400  0.042800  1
  C  C170  1  0.030200  0.808600  0.957200  1
  C  C171  1  0.000600  0.300500  0.040600  1
  C  C172  1  0.999400  0.699500  0.959400  1
  C  C173  1  0.879100  0.362000  0.038700  1
  C  C174  1  0.120900  0.638000  0.961300  1
  C  C175  1  0.773100  0.291700  0.040800  1
  C  C176  1  0.226900  0.708300  0.959200  1
  C  C177  1  0.193700  0.885100  0.161600  1
  C  C178  1  0.806300  0.114900  0.838400  1
  N  N179  1  0.166800  0.820990  0.386090  1
  N  N180  1  0.833200  0.179010  0.613910  1
  N  N181  1  0.483500  0.668650  0.215690  1
  N  N182  1  0.516500  0.331350  0.784310  1
  N  N183  1  0.612000  0.862500  0.236710  1
  N  N184  1  0.388000  0.137500  0.763290  1
  N  N185  1  0.416300  0.952660  0.334040  1
  N  N186  1  0.583700  0.047340  0.665960  1
  O  O187  1  0.177750  0.633270  0.299830  1
  O  O188  1  0.822250  0.366730  0.700170  1
  O  O189  1  0.417820  0.597630  0.576440  1
  O  O190  1  0.582180  0.402370  0.423560  1
  O  O191  1  0.355800  0.125500  0.107310  1
  O  O192  1  0.644200  0.874500  0.892690  1
  O  O193  1  0.313120  0.872030  0.194240  1
  O  O194  1  0.686880  0.127970  0.805760  1
