# generated using pymatgen
data_Si2H24PdC16(NCl2)2
_symmetry_space_group_name_H-M   'P 1'
_cell_length_a   6.91460000
_cell_length_b   23.04800000
_cell_length_c   27.54020000
_cell_angle_alpha   106.70100000
_cell_angle_beta   90.00000000
_cell_angle_gamma   90.00000000
_symmetry_Int_Tables_number   1
_chemical_formula_structural   Si2H24PdC16(NCl2)2
_chemical_formula_sum   'Si16 H192 Pd8 C128 N16 Cl32'
_cell_volume   4203.87849607
_cell_formula_units_Z   8
loop_
 _symmetry_equiv_pos_site_id
 _symmetry_equiv_pos_as_xyz
  1  'x, y, z'
loop_
 _atom_site_type_symbol
 _atom_site_label
 _atom_site_symmetry_multiplicity
 _atom_site_fract_x
 _atom_site_fract_y
 _atom_site_fract_z
 _atom_site_occupancy
  Si  Si1  1  0.558430  0.653170  0.228900  1.0
  Si  Si2  1  0.558430  0.846830  0.771100  1.0
  Si  Si3  1  0.058430  0.653170  0.728900  1.0
  Si  Si4  1  0.058430  0.846830  0.271100  1.0
  Si  Si5  1  0.441570  0.346830  0.771100  1.0
  Si  Si6  1  0.441570  0.153170  0.228900  1.0
  Si  Si7  1  0.941570  0.346830  0.271100  1.0
  Si  Si8  1  0.941570  0.153170  0.728900  1.0
  Si  Si9  1  0.629710  0.688380  0.072700  1.0
  Si  Si10  1  0.629710  0.811620  0.927300  1.0
  Si  Si11  1  0.129710  0.688380  0.572700  1.0
  Si  Si12  1  0.129710  0.811620  0.427300  1.0
  Si  Si13  1  0.370290  0.311620  0.927300  1.0
  Si  Si14  1  0.370290  0.188380  0.072700  1.0
  Si  Si15  1  0.870290  0.311620  0.427300  1.0
  Si  Si16  1  0.870290  0.188380  0.572700  1.0
  H  H17  1  0.889000  0.583400  0.177900  1.0
  H  H18  1  0.889000  0.916600  0.822100  1.0
  H  H19  1  0.389000  0.583400  0.677900  1.0
  H  H20  1  0.389000  0.916600  0.322100  1.0
  H  H21  1  0.111000  0.416600  0.822100  1.0
  H  H22  1  0.111000  0.083400  0.177900  1.0
  H  H23  1  0.611000  0.416600  0.322100  1.0
  H  H24  1  0.611000  0.083400  0.677900  1.0
  H  H25  1  0.400400  0.534000  0.234100  1.0
  H  H26  1  0.400400  0.966000  0.765900  1.0
  H  H27  1  0.900400  0.534000  0.734100  1.0
  H  H28  1  0.900400  0.966000  0.265900  1.0
  H  H29  1  0.599600  0.466000  0.765900  1.0
  H  H30  1  0.599600  0.034000  0.234100  1.0
  H  H31  1  0.099600  0.466000  0.265900  1.0
  H  H32  1  0.099600  0.034000  0.734100  1.0
  H  H33  1  0.491900  0.433000  0.200400  1.0
  H  H34  1  0.491900  0.067000  0.799600  1.0
  H  H35  1  0.991900  0.433000  0.700400  1.0
  H  H36  1  0.991900  0.067000  0.299600  1.0
  H  H37  1  0.508100  0.567000  0.799600  1.0
  H  H38  1  0.508100  0.933000  0.200400  1.0
  H  H39  1  0.008100  0.567000  0.299600  1.0
  H  H40  1  0.008100  0.933000  0.700400  1.0
  H  H41  1  0.775000  0.410300  0.153800  1.0
  H  H42  1  0.775000  0.089700  0.846200  1.0
  H  H43  1  0.275000  0.410300  0.653800  1.0
  H  H44  1  0.275000  0.089700  0.346200  1.0
  H  H45  1  0.225000  0.589700  0.846200  1.0
  H  H46  1  0.225000  0.910300  0.153800  1.0
  H  H47  1  0.725000  0.589700  0.346200  1.0
  H  H48  1  0.725000  0.910300  0.653800  1.0
  H  H49  1  0.588400  0.729700  0.186200  1.0
  H  H50  1  0.588400  0.770300  0.813800  1.0
  H  H51  1  0.088400  0.729700  0.686200  1.0
  H  H52  1  0.088400  0.770300  0.313800  1.0
  H  H53  1  0.411600  0.270300  0.813800  1.0
  H  H54  1  0.411600  0.229700  0.186200  1.0
  H  H55  1  0.911600  0.270300  0.313800  1.0
  H  H56  1  0.911600  0.229700  0.686200  1.0
  H  H57  1  0.783100  0.690800  0.179100  1.0
  H  H58  1  0.783100  0.809200  0.820900  1.0
  H  H59  1  0.283100  0.690800  0.679100  1.0
  H  H60  1  0.283100  0.809200  0.320900  1.0
  H  H61  1  0.216900  0.309200  0.820900  1.0
  H  H62  1  0.216900  0.190800  0.179100  1.0
  H  H63  1  0.716900  0.309200  0.320900  1.0
  H  H64  1  0.716900  0.190800  0.679100  1.0
  H  H65  1  0.435300  0.645700  0.124700  1.0
  H  H66  1  0.435300  0.854300  0.875300  1.0
  H  H67  1  0.935300  0.645700  0.624700  1.0
  H  H68  1  0.935300  0.854300  0.375300  1.0
  H  H69  1  0.564700  0.354300  0.875300  1.0
  H  H70  1  0.564700  0.145700  0.124700  1.0
  H  H71  1  0.064700  0.354300  0.375300  1.0
  H  H72  1  0.064700  0.145700  0.624700  1.0
  H  H73  1  0.639800  0.612300  0.115300  1.0
  H  H74  1  0.639800  0.887700  0.884700  1.0
  H  H75  1  0.139800  0.612300  0.615300  1.0
  H  H76  1  0.139800  0.887700  0.384700  1.0
  H  H77  1  0.360200  0.387700  0.884700  1.0
  H  H78  1  0.360200  0.112300  0.115300  1.0
  H  H79  1  0.860200  0.387700  0.384700  1.0
  H  H80  1  0.860200  0.112300  0.615300  1.0
  H  H81  1  0.836700  0.623900  0.978300  1.0
  H  H82  1  0.836700  0.876100  0.021700  1.0
  H  H83  1  0.336700  0.623900  0.478300  1.0
  H  H84  1  0.336700  0.876100  0.521700  1.0
  H  H85  1  0.163300  0.376100  0.021700  1.0
  H  H86  1  0.163300  0.123900  0.978300  1.0
  H  H87  1  0.663300  0.376100  0.521700  1.0
  H  H88  1  0.663300  0.123900  0.478300  1.0
  H  H89  1  0.504000  0.490300  0.902300  1.0
  H  H90  1  0.504000  0.009700  0.097700  1.0
  H  H91  1  0.004000  0.490300  0.402300  1.0
  H  H92  1  0.004000  0.009700  0.597700  1.0
  H  H93  1  0.496000  0.509700  0.097700  1.0
  H  H94  1  0.496000  0.990300  0.902300  1.0
  H  H95  1  0.996000  0.509700  0.597700  1.0
  H  H96  1  0.996000  0.990300  0.402300  1.0
  H  H97  1  0.253700  0.524600  0.960000  1.0
  H  H98  1  0.253700  0.975400  0.040000  1.0
  H  H99  1  0.753700  0.524600  0.460000  1.0
  H  H100  1  0.753700  0.975400  0.540000  1.0
  H  H101  1  0.746300  0.475400  0.040000  1.0
  H  H102  1  0.746300  0.024600  0.960000  1.0
  H  H103  1  0.246300  0.475400  0.540000  1.0
  H  H104  1  0.246300  0.024600  0.460000  1.0
  H  H105  1  0.303300  0.607500  0.029300  1.0
  H  H106  1  0.303300  0.892500  0.970700  1.0
  H  H107  1  0.803300  0.607500  0.529300  1.0
  H  H108  1  0.803300  0.892500  0.470700  1.0
  H  H109  1  0.696700  0.392500  0.970700  1.0
  H  H110  1  0.696700  0.107500  0.029300  1.0
  H  H111  1  0.196700  0.392500  0.470700  1.0
  H  H112  1  0.196700  0.107500  0.529300  1.0
  H  H113  1  0.638700  0.735800  0.300200  1.0
  H  H114  1  0.638700  0.764200  0.699800  1.0
  H  H115  1  0.138700  0.735800  0.800200  1.0
  H  H116  1  0.138700  0.764200  0.199800  1.0
  H  H117  1  0.361300  0.264200  0.699800  1.0
  H  H118  1  0.361300  0.235800  0.300200  1.0
  H  H119  1  0.861300  0.264200  0.199800  1.0
  H  H120  1  0.861300  0.235800  0.800200  1.0
  H  H121  1  0.817000  0.689700  0.286300  1.0
  H  H122  1  0.817000  0.810300  0.713700  1.0
  H  H123  1  0.317000  0.689700  0.786300  1.0
  H  H124  1  0.317000  0.810300  0.213700  1.0
  H  H125  1  0.183000  0.310300  0.713700  1.0
  H  H126  1  0.183000  0.189700  0.286300  1.0
  H  H127  1  0.683000  0.310300  0.213700  1.0
  H  H128  1  0.683000  0.189700  0.786300  1.0
  H  H129  1  0.634800  0.674400  0.316300  1.0
  H  H130  1  0.634800  0.825600  0.683700  1.0
  H  H131  1  0.134800  0.674400  0.816300  1.0
  H  H132  1  0.134800  0.825600  0.183700  1.0
  H  H133  1  0.365200  0.325600  0.683700  1.0
  H  H134  1  0.365200  0.174400  0.316300  1.0
  H  H135  1  0.865200  0.325600  0.183700  1.0
  H  H136  1  0.865200  0.174400  0.816300  1.0
  H  H137  1  0.251200  0.638400  0.261800  1.0
  H  H138  1  0.251200  0.861600  0.738200  1.0
  H  H139  1  0.751200  0.638400  0.761800  1.0
  H  H140  1  0.751200  0.861600  0.238200  1.0
  H  H141  1  0.748800  0.361600  0.738200  1.0
  H  H142  1  0.748800  0.138400  0.261800  1.0
  H  H143  1  0.248800  0.361600  0.238200  1.0
  H  H144  1  0.248800  0.138400  0.761800  1.0
  H  H145  1  0.234600  0.629100  0.202100  1.0
  H  H146  1  0.234600  0.870900  0.797900  1.0
  H  H147  1  0.734600  0.629100  0.702100  1.0
  H  H148  1  0.734600  0.870900  0.297900  1.0
  H  H149  1  0.765400  0.370900  0.797900  1.0
  H  H150  1  0.765400  0.129100  0.202100  1.0
  H  H151  1  0.265400  0.370900  0.297900  1.0
  H  H152  1  0.265400  0.129100  0.702100  1.0
  H  H153  1  0.243800  0.696000  0.240500  1.0
  H  H154  1  0.243800  0.804000  0.759500  1.0
  H  H155  1  0.743800  0.696000  0.740500  1.0
  H  H156  1  0.743800  0.804000  0.259500  1.0
  H  H157  1  0.756200  0.304000  0.759500  1.0
  H  H158  1  0.756200  0.196000  0.240500  1.0
  H  H159  1  0.256200  0.304000  0.259500  1.0
  H  H160  1  0.256200  0.196000  0.740500  1.0
  H  H161  1  0.969000  0.676600  0.074100  1.0
  H  H162  1  0.969000  0.823400  0.925900  1.0
  H  H163  1  0.469000  0.676600  0.574100  1.0
  H  H164  1  0.469000  0.823400  0.425900  1.0
  H  H165  1  0.031000  0.323400  0.925900  1.0
  H  H166  1  0.031000  0.176600  0.074100  1.0
  H  H167  1  0.531000  0.323400  0.425900  1.0
  H  H168  1  0.531000  0.176600  0.574100  1.0
  H  H169  1  0.911800  0.745000  0.103400  1.0
  H  H170  1  0.911800  0.755000  0.896600  1.0
  H  H171  1  0.411800  0.745000  0.603400  1.0
  H  H172  1  0.411800  0.755000  0.396600  1.0
  H  H173  1  0.088200  0.255000  0.896600  1.0
  H  H174  1  0.088200  0.245000  0.103400  1.0
  H  H175  1  0.588200  0.255000  0.396600  1.0
  H  H176  1  0.588200  0.245000  0.603400  1.0
  H  H177  1  0.915100  0.722900  0.042700  1.0
  H  H178  1  0.915100  0.777100  0.957300  1.0
  H  H179  1  0.415100  0.722900  0.542700  1.0
  H  H180  1  0.415100  0.777100  0.457300  1.0
  H  H181  1  0.084900  0.277100  0.957300  1.0
  H  H182  1  0.084900  0.222900  0.042700  1.0
  H  H183  1  0.584900  0.277100  0.457300  1.0
  H  H184  1  0.584900  0.222900  0.542700  1.0
  H  H185  1  0.492200  0.770300  0.048900  1.0
  H  H186  1  0.492200  0.729700  0.951100  1.0
  H  H187  1  0.992200  0.770300  0.548900  1.0
  H  H188  1  0.992200  0.729700  0.451100  1.0
  H  H189  1  0.507800  0.229700  0.951100  1.0
  H  H190  1  0.507800  0.270300  0.048900  1.0
  H  H191  1  0.007800  0.229700  0.451100  1.0
  H  H192  1  0.007800  0.270300  0.548900  1.0
  H  H193  1  0.492800  0.785200  0.109400  1.0
  H  H194  1  0.492800  0.714800  0.890600  1.0
  H  H195  1  0.992800  0.785200  0.609400  1.0
  H  H196  1  0.992800  0.714800  0.390600  1.0
  H  H197  1  0.507200  0.214800  0.890600  1.0
  H  H198  1  0.507200  0.285200  0.109400  1.0
  H  H199  1  0.007200  0.214800  0.390600  1.0
  H  H200  1  0.007200  0.285200  0.609400  1.0
  H  H201  1  0.332800  0.740700  0.076600  1.0
  H  H202  1  0.332800  0.759300  0.923400  1.0
  H  H203  1  0.832800  0.740700  0.576600  1.0
  H  H204  1  0.832800  0.759300  0.423400  1.0
  H  H205  1  0.667200  0.259300  0.923400  1.0
  H  H206  1  0.667200  0.240700  0.076600  1.0
  H  H207  1  0.167200  0.259300  0.423400  1.0
  H  H208  1  0.167200  0.240700  0.576600  1.0
  Pd  Pd209  1  0.091960  0.471395  0.114802  1.0
  Pd  Pd210  1  0.091960  0.028605  0.885198  1.0
  Pd  Pd211  1  0.591960  0.471395  0.614802  1.0
  Pd  Pd212  1  0.591960  0.028605  0.385198  1.0
  Pd  Pd213  1  0.908040  0.528605  0.885198  1.0
  Pd  Pd214  1  0.908040  0.971395  0.114802  1.0
  Pd  Pd215  1  0.408040  0.528605  0.385198  1.0
  Pd  Pd216  1  0.408040  0.971395  0.614802  1.0
  C  C217  1  0.804000  0.552700  0.181930  1.0
  C  C218  1  0.804000  0.947300  0.818070  1.0
  C  C219  1  0.304000  0.552700  0.681930  1.0
  C  C220  1  0.304000  0.947300  0.318070  1.0
  C  C221  1  0.196000  0.447300  0.818070  1.0
  C  C222  1  0.196000  0.052700  0.181930  1.0
  C  C223  1  0.696000  0.447300  0.318070  1.0
  C  C224  1  0.696000  0.052700  0.681930  1.0
  C  C225  1  0.634200  0.571000  0.208460  1.0
  C  C226  1  0.634200  0.929000  0.791540  1.0
  C  C227  1  0.134200  0.571000  0.708460  1.0
  C  C228  1  0.134200  0.929000  0.291540  1.0
  C  C229  1  0.365800  0.429000  0.791540  1.0
  C  C230  1  0.365800  0.071000  0.208460  1.0
  C  C231  1  0.865800  0.429000  0.291540  1.0
  C  C232  1  0.865800  0.071000  0.708460  1.0
  C  C233  1  0.517400  0.524300  0.215450  1.0
  C  C234  1  0.517400  0.975700  0.784550  1.0
  C  C235  1  0.017400  0.524300  0.715450  1.0
  C  C236  1  0.017400  0.975700  0.284550  1.0
  C  C237  1  0.482600  0.475700  0.784550  1.0
  C  C238  1  0.482600  0.024300  0.215450  1.0
  C  C239  1  0.982600  0.475700  0.284550  1.0
  C  C240  1  0.982600  0.024300  0.715450  1.0
  C  C241  1  0.570700  0.464600  0.195460  1.0
  C  C242  1  0.570700  0.035400  0.804540  1.0
  C  C243  1  0.070700  0.464600  0.695460  1.0
  C  C244  1  0.070700  0.035400  0.304540  1.0
  C  C245  1  0.429300  0.535400  0.804540  1.0
  C  C246  1  0.429300  0.964600  0.195460  1.0
  C  C247  1  0.929300  0.535400  0.304540  1.0
  C  C248  1  0.929300  0.964600  0.695460  1.0
  C  C249  1  0.740000  0.451500  0.168270  1.0
  C  C250  1  0.740000  0.048500  0.831730  1.0
  C  C251  1  0.240000  0.451500  0.668270  1.0
  C  C252  1  0.240000  0.048500  0.331730  1.0
  C  C253  1  0.260000  0.548500  0.831730  1.0
  C  C254  1  0.260000  0.951500  0.168270  1.0
  C  C255  1  0.760000  0.548500  0.331730  1.0
  C  C256  1  0.760000  0.951500  0.668270  1.0
  C  C257  1  0.640200  0.688000  0.178270  1.0
  C  C258  1  0.640200  0.812000  0.821730  1.0
  C  C259  1  0.140200  0.688000  0.678270  1.0
  C  C260  1  0.140200  0.812000  0.321730  1.0
  C  C261  1  0.359800  0.312000  0.821730  1.0
  C  C262  1  0.359800  0.188000  0.178270  1.0
  C  C263  1  0.859800  0.312000  0.321730  1.0
  C  C264  1  0.859800  0.188000  0.678270  1.0
  C  C265  1  0.576500  0.652500  0.124240  1.0
  C  C266  1  0.576500  0.847500  0.875760  1.0
  C  C267  1  0.076500  0.652500  0.624240  1.0
  C  C268  1  0.076500  0.847500  0.375760  1.0
  C  C269  1  0.423500  0.347500  0.875760  1.0
  C  C270  1  0.423500  0.152500  0.124240  1.0
  C  C271  1  0.923500  0.347500  0.375760  1.0
  C  C272  1  0.923500  0.152500  0.624240  1.0
  C  C273  1  0.579200  0.626000  0.012640  1.0
  C  C274  1  0.579200  0.874000  0.987360  1.0
  C  C275  1  0.079200  0.626000  0.512640  1.0
  C  C276  1  0.079200  0.874000  0.487360  1.0
  C  C277  1  0.420800  0.374000  0.987360  1.0
  C  C278  1  0.420800  0.126000  0.012640  1.0
  C  C279  1  0.920800  0.374000  0.487360  1.0
  C  C280  1  0.920800  0.126000  0.512640  1.0
  C  C281  1  0.715900  0.603500  0.975120  1.0
  C  C282  1  0.715900  0.896500  0.024880  1.0
  C  C283  1  0.215900  0.603500  0.475120  1.0
  C  C284  1  0.215900  0.896500  0.524880  1.0
  C  C285  1  0.284100  0.396500  0.024880  1.0
  C  C286  1  0.284100  0.103500  0.975120  1.0
  C  C287  1  0.784100  0.396500  0.524880  1.0
  C  C288  1  0.784100  0.103500  0.475120  1.0
  C  C289  1  0.522100  0.525600  0.930010  1.0
  C  C290  1  0.522100  0.974400  0.069990  1.0
  C  C291  1  0.022100  0.525600  0.430010  1.0
  C  C292  1  0.022100  0.974400  0.569990  1.0
  C  C293  1  0.477900  0.474400  0.069990  1.0
  C  C294  1  0.477900  0.025600  0.930010  1.0
  C  C295  1  0.977900  0.474400  0.569990  1.0
  C  C296  1  0.977900  0.025600  0.430010  1.0
  C  C297  1  0.374400  0.545200  0.964600  1.0
  C  C298  1  0.374400  0.954800  0.035400  1.0
  C  C299  1  0.874400  0.545200  0.464600  1.0
  C  C300  1  0.874400  0.954800  0.535400  1.0
  C  C301  1  0.625600  0.454800  0.035400  1.0
  C  C302  1  0.625600  0.045200  0.964600  1.0
  C  C303  1  0.125600  0.454800  0.535400  1.0
  C  C304  1  0.125600  0.045200  0.464600  1.0
  C  C305  1  0.404200  0.594300  0.005250  1.0
  C  C306  1  0.404200  0.905700  0.994750  1.0
  C  C307  1  0.904200  0.594300  0.505250  1.0
  C  C308  1  0.904200  0.905700  0.494750  1.0
  C  C309  1  0.595800  0.405700  0.994750  1.0
  C  C310  1  0.595800  0.094300  0.005250  1.0
  C  C311  1  0.095800  0.405700  0.494750  1.0
  C  C312  1  0.095800  0.094300  0.505250  1.0
  C  C313  1  0.676200  0.693000  0.290190  1.0
  C  C314  1  0.676200  0.807000  0.709810  1.0
  C  C315  1  0.176200  0.693000  0.790190  1.0
  C  C316  1  0.176200  0.807000  0.209810  1.0
  C  C317  1  0.323800  0.307000  0.709810  1.0
  C  C318  1  0.323800  0.193000  0.290190  1.0
  C  C319  1  0.823800  0.307000  0.209810  1.0
  C  C320  1  0.823800  0.193000  0.790190  1.0
  C  C321  1  0.290300  0.654300  0.233900  1.0
  C  C322  1  0.290300  0.845700  0.766100  1.0
  C  C323  1  0.790300  0.654300  0.733900  1.0
  C  C324  1  0.790300  0.845700  0.266100  1.0
  C  C325  1  0.709700  0.345700  0.766100  1.0
  C  C326  1  0.709700  0.154300  0.233900  1.0
  C  C327  1  0.209700  0.345700  0.266100  1.0
  C  C328  1  0.209700  0.154300  0.733900  1.0
  C  C329  1  0.886600  0.710900  0.073300  1.0
  C  C330  1  0.886600  0.789100  0.926700  1.0
  C  C331  1  0.386600  0.710900  0.573300  1.0
  C  C332  1  0.386600  0.789100  0.426700  1.0
  C  C333  1  0.113400  0.289100  0.926700  1.0
  C  C334  1  0.113400  0.210900  0.073300  1.0
  C  C335  1  0.613400  0.289100  0.426700  1.0
  C  C336  1  0.613400  0.210900  0.573300  1.0
  C  C337  1  0.467800  0.753800  0.077500  1.0
  C  C338  1  0.467800  0.746200  0.922500  1.0
  C  C339  1  0.967800  0.753800  0.577500  1.0
  C  C340  1  0.967800  0.746200  0.422500  1.0
  C  C341  1  0.532200  0.246200  0.922500  1.0
  C  C342  1  0.532200  0.253800  0.077500  1.0
  C  C343  1  0.032200  0.246200  0.422500  1.0
  C  C344  1  0.032200  0.253800  0.577500  1.0
  N  N345  1  0.857500  0.494900  0.161500  1.0
  N  N346  1  0.857500  0.005100  0.838500  1.0
  N  N347  1  0.357500  0.494900  0.661500  1.0
  N  N348  1  0.357500  0.005100  0.338500  1.0
  N  N349  1  0.142500  0.505100  0.838500  1.0
  N  N350  1  0.142500  0.994900  0.161500  1.0
  N  N351  1  0.642500  0.505100  0.338500  1.0
  N  N352  1  0.642500  0.994900  0.661500  1.0
  N  N353  1  0.690500  0.555500  0.934970  1.0
  N  N354  1  0.690500  0.944500  0.065030  1.0
  N  N355  1  0.190500  0.555500  0.434970  1.0
  N  N356  1  0.190500  0.944500  0.565030  1.0
  N  N357  1  0.309500  0.444500  0.065030  1.0
  N  N358  1  0.309500  0.055500  0.934970  1.0
  N  N359  1  0.809500  0.444500  0.565030  1.0
  N  N360  1  0.809500  0.055500  0.434970  1.0
  Cl  Cl361  1  0.851300  0.612800  0.858700  1
  Cl  Cl362  1  0.851300  0.887200  0.141300  1
  Cl  Cl363  1  0.351300  0.612800  0.358700  1
  Cl  Cl364  1  0.351300  0.887200  0.641300  1
  Cl  Cl365  1  0.148700  0.387200  0.141300  1
  Cl  Cl366  1  0.148700  0.112800  0.858700  1
  Cl  Cl367  1  0.648700  0.387200  0.641300  1
  Cl  Cl368  1  0.648700  0.112800  0.358700  1
  Cl  Cl369  1  0.150100  0.386900  0.141200  1
  Cl  Cl370  1  0.150100  0.113100  0.858800  1
  Cl  Cl371  1  0.650100  0.386900  0.641200  1
  Cl  Cl372  1  0.650100  0.113100  0.358800  1
  Cl  Cl373  1  0.849900  0.613100  0.858800  1
  Cl  Cl374  1  0.849900  0.886900  0.141200  1
  Cl  Cl375  1  0.349900  0.613100  0.358800  1
  Cl  Cl376  1  0.349900  0.886900  0.641200  1
  Cl  Cl377  1  0.944000  0.439200  0.908200  1
  Cl  Cl378  1  0.944000  0.060800  0.091800  1
  Cl  Cl379  1  0.444000  0.439200  0.408200  1
  Cl  Cl380  1  0.444000  0.060800  0.591800  1
  Cl  Cl381  1  0.056000  0.560800  0.091800  1
  Cl  Cl382  1  0.056000  0.939200  0.908200  1
  Cl  Cl383  1  0.556000  0.560800  0.591800  1
  Cl  Cl384  1  0.556000  0.939200  0.408200  1
  Cl  Cl385  1  0.052000  0.549900  0.080900  1.0
  Cl  Cl386  1  0.052000  0.950100  0.919100  1.0
  Cl  Cl387  1  0.552000  0.549900  0.580900  1.0
  Cl  Cl388  1  0.552000  0.950100  0.419100  1.0
  Cl  Cl389  1  0.948000  0.450100  0.919100  1.0
  Cl  Cl390  1  0.948000  0.049900  0.080900  1.0
  Cl  Cl391  1  0.448000  0.450100  0.419100  1.0
  Cl  Cl392  1  0.448000  0.049900  0.580900  1.0
