# generated using pymatgen
data_AgH16C18SBr2N2O7F3
_symmetry_space_group_name_H-M   'P 1'
_cell_length_a   9.94970000
_cell_length_b   21.45620000
_cell_length_c   21.50820000
_cell_angle_alpha   90.00000000
_cell_angle_beta   90.00000000
_cell_angle_gamma   90.00000000
_symmetry_Int_Tables_number   1
_chemical_formula_structural   AgH16C18SBr2N2O7F3
_chemical_formula_sum   'Ag8 H128 C144 S8 Br16 N16 O56 F24'
_cell_volume   4591.62975109
_cell_formula_units_Z   8
loop_
 _symmetry_equiv_pos_site_id
 _symmetry_equiv_pos_as_xyz
  1  'x, y, z'
loop_
 _atom_site_type_symbol
 _atom_site_label
 _atom_site_symmetry_multiplicity
 _atom_site_fract_x
 _atom_site_fract_y
 _atom_site_fract_z
 _atom_site_occupancy
  Ag  Ag1  1  0.630660  0.064819  0.539380  1.0
  Ag  Ag2  1  0.869340  0.564819  0.960620  1.0
  Ag  Ag3  1  0.630660  0.435181  0.460620  1.0
  Ag  Ag4  1  0.869340  0.935181  0.039380  1.0
  Ag  Ag5  1  0.369340  0.935181  0.460620  1.0
  Ag  Ag6  1  0.130660  0.435181  0.039380  1.0
  Ag  Ag7  1  0.369340  0.564819  0.539380  1.0
  Ag  Ag8  1  0.130660  0.064819  0.960620  1.0
  H  H9  1  0.670500  0.156100  0.429300  1.0
  H  H10  1  0.829500  0.656100  0.070700  1.0
  H  H11  1  0.670500  0.343900  0.570700  1.0
  H  H12  1  0.829500  0.843900  0.929300  1.0
  H  H13  1  0.329500  0.843900  0.570700  1.0
  H  H14  1  0.170500  0.343900  0.929300  1.0
  H  H15  1  0.329500  0.656100  0.429300  1.0
  H  H16  1  0.170500  0.156100  0.070700  1.0
  H  H17  1  0.558000  0.228400  0.368200  1.0
  H  H18  1  0.942000  0.728400  0.131800  1.0
  H  H19  1  0.558000  0.271600  0.631800  1.0
  H  H20  1  0.942000  0.771600  0.868200  1.0
  H  H21  1  0.442000  0.771600  0.631800  1.0
  H  H22  1  0.058000  0.271600  0.868200  1.0
  H  H23  1  0.442000  0.728400  0.368200  1.0
  H  H24  1  0.058000  0.228400  0.131800  1.0
  H  H25  1  0.220400  0.192000  0.466800  1.0
  H  H26  1  0.279600  0.692000  0.033200  1.0
  H  H27  1  0.220400  0.308000  0.533200  1.0
  H  H28  1  0.279600  0.808000  0.966800  1.0
  H  H29  1  0.779600  0.808000  0.533200  1.0
  H  H30  1  0.720400  0.308000  0.966800  1.0
  H  H31  1  0.779600  0.692000  0.466800  1.0
  H  H32  1  0.720400  0.192000  0.033200  1.0
  H  H33  1  0.343800  0.122300  0.526900  1.0
  H  H34  1  0.156200  0.622300  0.973100  1.0
  H  H35  1  0.343800  0.377700  0.473100  1.0
  H  H36  1  0.156200  0.877700  0.026900  1.0
  H  H37  1  0.656200  0.877700  0.473100  1.0
  H  H38  1  0.843800  0.377700  0.026900  1.0
  H  H39  1  0.656200  0.622300  0.526900  1.0
  H  H40  1  0.843800  0.122300  0.973100  1.0
  H  H41  1  0.130600  0.313200  0.303500  1.0
  H  H42  1  0.369400  0.813200  0.196500  1.0
  H  H43  1  0.130600  0.186800  0.696500  1.0
  H  H44  1  0.369400  0.686800  0.803500  1.0
  H  H45  1  0.869400  0.686800  0.696500  1.0
  H  H46  1  0.630600  0.186800  0.803500  1.0
  H  H47  1  0.869400  0.813200  0.303500  1.0
  H  H48  1  0.630600  0.313200  0.196500  1.0
  H  H49  1  0.109800  0.353900  0.365300  1.0
  H  H50  1  0.390200  0.853900  0.134700  1.0
  H  H51  1  0.109800  0.146100  0.634700  1.0
  H  H52  1  0.390200  0.646100  0.865300  1.0
  H  H53  1  0.890200  0.646100  0.634700  1.0
  H  H54  1  0.609800  0.146100  0.865300  1.0
  H  H55  1  0.890200  0.853900  0.365300  1.0
  H  H56  1  0.609800  0.353900  0.134700  1.0
  H  H57  1  0.901800  0.353700  0.274700  1.0
  H  H58  1  0.598200  0.853700  0.225300  1.0
  H  H59  1  0.901800  0.146300  0.725300  1.0
  H  H60  1  0.598200  0.646300  0.774700  1.0
  H  H61  1  0.098200  0.646300  0.725300  1.0
  H  H62  1  0.401800  0.146300  0.774700  1.0
  H  H63  1  0.098200  0.853700  0.274700  1.0
  H  H64  1  0.401800  0.353700  0.225300  1.0
  H  H65  1  0.911000  0.389200  0.339900  1.0
  H  H66  1  0.589000  0.889200  0.160100  1.0
  H  H67  1  0.911000  0.110800  0.660100  1.0
  H  H68  1  0.589000  0.610800  0.839900  1.0
  H  H69  1  0.089000  0.610800  0.660100  1.0
  H  H70  1  0.411000  0.110800  0.839900  1.0
  H  H71  1  0.089000  0.889200  0.339900  1.0
  H  H72  1  0.411000  0.389200  0.160100  1.0
  H  H73  1  0.952500  0.244300  0.430300  1.0
  H  H74  1  0.547500  0.744300  0.069700  1.0
  H  H75  1  0.952500  0.255700  0.569700  1.0
  H  H76  1  0.547500  0.755700  0.930300  1.0
  H  H77  1  0.047500  0.755700  0.569700  1.0
  H  H78  1  0.452500  0.255700  0.930300  1.0
  H  H79  1  0.047500  0.744300  0.430300  1.0
  H  H80  1  0.452500  0.244300  0.069700  1.0
  H  H81  1  0.804500  0.266700  0.411800  1.0
  H  H82  1  0.695500  0.766700  0.088200  1.0
  H  H83  1  0.804500  0.233300  0.588200  1.0
  H  H84  1  0.695500  0.733300  0.911800  1.0
  H  H85  1  0.195500  0.733300  0.588200  1.0
  H  H86  1  0.304500  0.233300  0.911800  1.0
  H  H87  1  0.195500  0.766700  0.411800  1.0
  H  H88  1  0.304500  0.266700  0.088200  1.0
  H  H89  1  0.820000  0.232300  0.303500  1.0
  H  H90  1  0.680000  0.732300  0.196500  1.0
  H  H91  1  0.820000  0.267700  0.696500  1.0
  H  H92  1  0.680000  0.767700  0.803500  1.0
  H  H93  1  0.180000  0.767700  0.696500  1.0
  H  H94  1  0.320000  0.267700  0.803500  1.0
  H  H95  1  0.180000  0.732300  0.303500  1.0
  H  H96  1  0.320000  0.232300  0.196500  1.0
  H  H97  1  0.954700  0.244900  0.264700  1.0
  H  H98  1  0.545300  0.744900  0.235300  1.0
  H  H99  1  0.954700  0.255100  0.735300  1.0
  H  H100  1  0.545300  0.755100  0.764700  1.0
  H  H101  1  0.045300  0.755100  0.735300  1.0
  H  H102  1  0.454700  0.255100  0.764700  1.0
  H  H103  1  0.045300  0.744900  0.264700  1.0
  H  H104  1  0.454700  0.244900  0.235300  1.0
  H  H105  1  0.328700  0.105200  0.294900  1.0
  H  H106  1  0.171300  0.605200  0.205100  1.0
  H  H107  1  0.328700  0.394800  0.705100  1.0
  H  H108  1  0.171300  0.894800  0.794900  1.0
  H  H109  1  0.671300  0.894800  0.705100  1.0
  H  H110  1  0.828700  0.394800  0.794900  1.0
  H  H111  1  0.671300  0.605200  0.294900  1.0
  H  H112  1  0.828700  0.105200  0.205100  1.0
  H  H113  1  0.577800  0.975900  0.649600  1.0
  H  H114  1  0.922200  0.475900  0.850400  1.0
  H  H115  1  0.577800  0.524100  0.350400  1.0
  H  H116  1  0.922200  0.024100  0.149600  1.0
  H  H117  1  0.422200  0.024100  0.350400  1.0
  H  H118  1  0.077800  0.524100  0.149600  1.0
  H  H119  1  0.422200  0.475900  0.649600  1.0
  H  H120  1  0.077800  0.975900  0.850400  1.0
  H  H121  1  0.903300  0.991600  0.546700  1.0
  H  H122  1  0.596700  0.491600  0.953300  1.0
  H  H123  1  0.903300  0.508400  0.453300  1.0
  H  H124  1  0.596700  0.008400  0.046700  1.0
  H  H125  1  0.096700  0.008400  0.453300  1.0
  H  H126  1  0.403300  0.508400  0.046700  1.0
  H  H127  1  0.096700  0.491600  0.546700  1.0
  H  H128  1  0.403300  0.991600  0.953300  1.0
  H  H129  1  0.994500  0.090600  0.401200  1.0
  H  H130  1  0.505500  0.590600  0.098800  1.0
  H  H131  1  0.994500  0.409400  0.598800  1.0
  H  H132  1  0.505500  0.909400  0.901200  1.0
  H  H133  1  0.005500  0.909400  0.598800  1.0
  H  H134  1  0.494500  0.409400  0.901200  1.0
  H  H135  1  0.005500  0.590600  0.401200  1.0
  H  H136  1  0.494500  0.090600  0.098800  1.0
  C  C137  1  0.257100  0.994300  0.677720  1
  C  C138  1  0.242900  0.494300  0.822280  1
  C  C139  1  0.257100  0.505700  0.322280  1
  C  C140  1  0.242900  0.005700  0.177720  1
  C  C141  1  0.742900  0.005700  0.322280  1
  C  C142  1  0.757100  0.505700  0.177720  1
  C  C143  1  0.742900  0.494300  0.677720  1
  C  C144  1  0.757100  0.994300  0.822280  1
  C  C145  1  0.578400  0.164240  0.437480  1.0
  C  C146  1  0.921600  0.664240  0.062520  1.0
  C  C147  1  0.578400  0.335760  0.562520  1.0
  C  C148  1  0.921600  0.835760  0.937480  1.0
  C  C149  1  0.421600  0.835760  0.562520  1.0
  C  C150  1  0.078400  0.335760  0.937480  1.0
  C  C151  1  0.421600  0.664240  0.437480  1.0
  C  C152  1  0.078400  0.164240  0.062520  1.0
  C  C153  1  0.511800  0.207120  0.400520  1.0
  C  C154  1  0.988200  0.707120  0.099480  1.0
  C  C155  1  0.511800  0.292880  0.599480  1.0
  C  C156  1  0.988200  0.792880  0.900520  1.0
  C  C157  1  0.488200  0.792880  0.599480  1.0
  C  C158  1  0.011800  0.292880  0.900520  1.0
  C  C159  1  0.488200  0.707120  0.400520  1.0
  C  C160  1  0.011800  0.207120  0.099480  1.0
  C  C161  1  0.376900  0.218440  0.411360  1.0
  C  C162  1  0.123100  0.718440  0.088640  1.0
  C  C163  1  0.376900  0.281560  0.588640  1.0
  C  C164  1  0.123100  0.781560  0.911360  1.0
  C  C165  1  0.623100  0.781560  0.588640  1.0
  C  C166  1  0.876900  0.281560  0.911360  1.0
  C  C167  1  0.623100  0.718440  0.411360  1.0
  C  C168  1  0.876900  0.218440  0.088640  1.0
  C  C169  1  0.313400  0.185860  0.458770  1.0
  C  C170  1  0.186600  0.685860  0.041230  1.0
  C  C171  1  0.313400  0.314140  0.541230  1.0
  C  C172  1  0.186600  0.814140  0.958770  1.0
  C  C173  1  0.686600  0.814140  0.541230  1.0
  C  C174  1  0.813400  0.314140  0.958770  1.0
  C  C175  1  0.686600  0.685860  0.458770  1.0
  C  C176  1  0.813400  0.185860  0.041230  1.0
  C  C177  1  0.387500  0.144250  0.494240  1.0
  C  C178  1  0.112500  0.644250  0.005760  1.0
  C  C179  1  0.387500  0.355750  0.505760  1.0
  C  C180  1  0.112500  0.855750  0.994240  1.0
  C  C181  1  0.612500  0.855750  0.505760  1.0
  C  C182  1  0.887500  0.355750  0.994240  1.0
  C  C183  1  0.612500  0.644250  0.494240  1.0
  C  C184  1  0.887500  0.144250  0.005760  1.0
  C  C185  1  0.307000  0.266040  0.372210  1.0
  C  C186  1  0.193000  0.766040  0.127790  1.0
  C  C187  1  0.307000  0.233960  0.627790  1.0
  C  C188  1  0.193000  0.733960  0.872210  1.0
  C  C189  1  0.693000  0.733960  0.627790  1.0
  C  C190  1  0.807000  0.233960  0.872210  1.0
  C  C191  1  0.693000  0.766040  0.372210  1.0
  C  C192  1  0.807000  0.266040  0.127790  1.0
  C  C193  1  0.097600  0.312030  0.346880  1.0
  C  C194  1  0.402400  0.812030  0.153120  1.0
  C  C195  1  0.097600  0.187970  0.653120  1.0
  C  C196  1  0.402400  0.687970  0.846880  1.0
  C  C197  1  0.902400  0.687970  0.653120  1.0
  C  C198  1  0.597600  0.187970  0.846880  1.0
  C  C199  1  0.902400  0.812030  0.346880  1.0
  C  C200  1  0.597600  0.312030  0.153120  1.0
  C  C201  1  0.948800  0.294330  0.347790  1.0
  C  C202  1  0.551200  0.794330  0.152210  1.0
  C  C203  1  0.948800  0.205670  0.652210  1.0
  C  C204  1  0.551200  0.705670  0.847790  1.0
  C  C205  1  0.051200  0.705670  0.652210  1.0
  C  C206  1  0.448800  0.205670  0.847790  1.0
  C  C207  1  0.051200  0.794330  0.347790  1.0
  C  C208  1  0.448800  0.294330  0.152210  1.0
  C  C209  1  0.877400  0.351010  0.319230  1.0
  C  C210  1  0.622600  0.851010  0.180770  1.0
  C  C211  1  0.877400  0.148990  0.680770  1.0
  C  C212  1  0.622600  0.648990  0.819230  1.0
  C  C213  1  0.122600  0.648990  0.680770  1.0
  C  C214  1  0.377400  0.148990  0.819230  1.0
  C  C215  1  0.122600  0.851010  0.319230  1.0
  C  C216  1  0.377400  0.351010  0.180770  1.0
  C  C217  1  0.899900  0.279730  0.413710  1.0
  C  C218  1  0.600100  0.779730  0.086290  1.0
  C  C219  1  0.899900  0.220270  0.586290  1.0
  C  C220  1  0.600100  0.720270  0.913710  1.0
  C  C221  1  0.100100  0.720270  0.586290  1.0
  C  C222  1  0.399900  0.220270  0.913710  1.0
  C  C223  1  0.100100  0.779730  0.413710  1.0
  C  C224  1  0.399900  0.279730  0.086290  1.0
  C  C225  1  0.918500  0.237690  0.307020  1.0
  C  C226  1  0.581500  0.737690  0.192980  1.0
  C  C227  1  0.918500  0.262310  0.692980  1.0
  C  C228  1  0.581500  0.762310  0.807020  1.0
  C  C229  1  0.081500  0.762310  0.692980  1.0
  C  C230  1  0.418500  0.262310  0.807020  1.0
  C  C231  1  0.081500  0.737690  0.307020  1.0
  C  C232  1  0.418500  0.237690  0.192980  1.0
  C  C233  1  0.093800  0.161400  0.307500  1.0
  C  C234  1  0.406200  0.661400  0.192500  1.0
  C  C235  1  0.093800  0.338600  0.692500  1.0
  C  C236  1  0.406200  0.838600  0.807500  1.0
  C  C237  1  0.906200  0.838600  0.692500  1.0
  C  C238  1  0.593800  0.338600  0.807500  1.0
  C  C239  1  0.906200  0.661400  0.307500  1.0
  C  C240  1  0.593800  0.161400  0.192500  1.0
  C  C241  1  0.151200  0.107000  0.342570  1.0
  C  C242  1  0.348800  0.607000  0.157430  1.0
  C  C243  1  0.151200  0.393000  0.657430  1.0
  C  C244  1  0.348800  0.893000  0.842570  1.0
  C  C245  1  0.848800  0.893000  0.657430  1.0
  C  C246  1  0.651200  0.393000  0.842570  1.0
  C  C247  1  0.848800  0.607000  0.342570  1.0
  C  C248  1  0.651200  0.107000  0.157430  1.0
  C  C249  1  0.279400  0.086160  0.327620  1.0
  C  C250  1  0.220600  0.586160  0.172380  1.0
  C  C251  1  0.279400  0.413840  0.672380  1.0
  C  C252  1  0.220600  0.913840  0.827620  1.0
  C  C253  1  0.720600  0.913840  0.672380  1.0
  C  C254  1  0.779400  0.413840  0.827620  1.0
  C  C255  1  0.720600  0.586160  0.327620  1.0
  C  C256  1  0.779400  0.086160  0.172380  1.0
  C  C257  1  0.666000  0.962330  0.639300  1.0
  C  C258  1  0.834000  0.462330  0.860700  1.0
  C  C259  1  0.666000  0.537670  0.360700  1.0
  C  C260  1  0.834000  0.037670  0.139300  1.0
  C  C261  1  0.334000  0.037670  0.360700  1.0
  C  C262  1  0.166000  0.537670  0.139300  1.0
  C  C263  1  0.334000  0.462330  0.639300  1.0
  C  C264  1  0.166000  0.962330  0.860700  1.0
  C  C265  1  0.855500  0.971400  0.579190  1.0
  C  C266  1  0.644500  0.471400  0.920810  1.0
  C  C267  1  0.855500  0.528600  0.420810  1.0
  C  C268  1  0.644500  0.028600  0.079190  1.0
  C  C269  1  0.144500  0.028600  0.420810  1.0
  C  C270  1  0.355500  0.528600  0.079190  1.0
  C  C271  1  0.144500  0.471400  0.579190  1.0
  C  C272  1  0.355500  0.971400  0.920810  1.0
  C  C273  1  0.082500  0.077600  0.389930  1.0
  C  C274  1  0.417500  0.577600  0.110070  1.0
  C  C275  1  0.082500  0.422400  0.610070  1.0
  C  C276  1  0.417500  0.922400  0.889930  1.0
  C  C277  1  0.917500  0.922400  0.610070  1.0
  C  C278  1  0.582500  0.422400  0.889930  1.0
  C  C279  1  0.917500  0.577600  0.389930  1.0
  C  C280  1  0.582500  0.077600  0.110070  1.0
  S  S281  1  0.259330  0.006190  0.593760  1
  S  S282  1  0.240670  0.506190  0.906240  1
  S  S283  1  0.259330  0.493810  0.406240  1
  S  S284  1  0.240670  0.993810  0.093760  1
  S  S285  1  0.740670  0.993810  0.406240  1
  S  S286  1  0.759330  0.493810  0.093760  1
  S  S287  1  0.740670  0.506190  0.593760  1
  S  S288  1  0.759330  0.006190  0.906240  1
  Br  Br289  1  0.681750  0.348920  0.326282  1.0
  Br  Br290  1  0.818250  0.848920  0.173718  1.0
  Br  Br291  1  0.681750  0.151080  0.673718  1.0
  Br  Br292  1  0.818250  0.651080  0.826282  1.0
  Br  Br293  1  0.318250  0.651080  0.673718  1.0
  Br  Br294  1  0.181750  0.151080  0.826282  1.0
  Br  Br295  1  0.318250  0.848920  0.326282  1.0
  Br  Br296  1  0.181750  0.348920  0.173718  1.0
  Br  Br297  1  0.915880  0.349809  0.470750  1.0
  Br  Br298  1  0.584120  0.849809  0.029250  1.0
  Br  Br299  1  0.915880  0.150191  0.529250  1.0
  Br  Br300  1  0.584120  0.650191  0.970750  1.0
  Br  Br301  1  0.084120  0.650191  0.529250  1.0
  Br  Br302  1  0.415880  0.150191  0.970750  1.0
  Br  Br303  1  0.084120  0.849809  0.470750  1.0
  Br  Br304  1  0.415880  0.349809  0.029250  1.0
  N  N305  1  0.518800  0.133810  0.484160  1.0
  N  N306  1  0.981200  0.633810  0.015840  1.0
  N  N307  1  0.518800  0.366190  0.515840  1.0
  N  N308  1  0.981200  0.866190  0.984160  1.0
  N  N309  1  0.481200  0.866190  0.515840  1.0
  N  N310  1  0.018800  0.366190  0.984160  1.0
  N  N311  1  0.481200  0.633810  0.484160  1.0
  N  N312  1  0.018800  0.133810  0.015840  1.0
  N  N313  1  0.731500  0.991640  0.592910  1.0
  N  N314  1  0.768500  0.491640  0.907090  1.0
  N  N315  1  0.731500  0.508360  0.407090  1.0
  N  N316  1  0.768500  0.008360  0.092910  1.0
  N  N317  1  0.268500  0.008360  0.407090  1.0
  N  N318  1  0.231500  0.508360  0.092910  1.0
  N  N319  1  0.268500  0.491640  0.592910  1.0
  N  N320  1  0.231500  0.991640  0.907090  1.0
  O  O321  1  0.398200  0.019470  0.580890  1
  O  O322  1  0.101800  0.519470  0.919110  1
  O  O323  1  0.398200  0.480530  0.419110  1
  O  O324  1  0.101800  0.980530  0.080890  1
  O  O325  1  0.601800  0.980530  0.419110  1
  O  O326  1  0.898200  0.480530  0.080890  1
  O  O327  1  0.601800  0.519470  0.580890  1
  O  O328  1  0.898200  0.019470  0.919110  1
  O  O329  1  0.214600  0.947750  0.569060  1
  O  O330  1  0.285400  0.447750  0.930940  1
  O  O331  1  0.214600  0.552250  0.430940  1
  O  O332  1  0.285400  0.052250  0.069060  1
  O  O333  1  0.785400  0.052250  0.430940  1
  O  O334  1  0.714600  0.552250  0.069060  1
  O  O335  1  0.785400  0.447750  0.569060  1
  O  O336  1  0.714600  0.947750  0.930940  1
  O  O337  1  0.168200  0.056510  0.584000  1
  O  O338  1  0.331800  0.556510  0.916000  1
  O  O339  1  0.168200  0.443490  0.416000  1
  O  O340  1  0.331800  0.943490  0.084000  1
  O  O341  1  0.831800  0.943490  0.416000  1
  O  O342  1  0.668200  0.443490  0.084000  1
  O  O343  1  0.831800  0.556510  0.584000  1
  O  O344  1  0.668200  0.056510  0.916000  1
  O  O345  1  0.363500  0.299770  0.336320  1.0
  O  O346  1  0.136500  0.799770  0.163680  1.0
  O  O347  1  0.363500  0.200230  0.663680  1.0
  O  O348  1  0.136500  0.700230  0.836320  1.0
  O  O349  1  0.636500  0.700230  0.663680  1.0
  O  O350  1  0.863500  0.200230  0.836320  1.0
  O  O351  1  0.636500  0.799770  0.336320  1.0
  O  O352  1  0.863500  0.299770  0.163680  1.0
  O  O353  1  0.173710  0.266150  0.382470  1.0
  O  O354  1  0.326290  0.766150  0.117530  1.0
  O  O355  1  0.173710  0.233850  0.617530  1.0
  O  O356  1  0.326290  0.733850  0.882470  1.0
  O  O357  1  0.826290  0.733850  0.617530  1.0
  O  O358  1  0.673710  0.233850  0.882470  1.0
  O  O359  1  0.826290  0.766150  0.382470  1.0
  O  O360  1  0.673710  0.266150  0.117530  1.0
  O  O361  1  0.977700  0.181000  0.332700  1.0
  O  O362  1  0.522300  0.681000  0.167300  1.0
  O  O363  1  0.977700  0.319000  0.667300  1.0
  O  O364  1  0.522300  0.819000  0.832700  1.0
  O  O365  1  0.022300  0.819000  0.667300  1.0
  O  O366  1  0.477700  0.319000  0.832700  1.0
  O  O367  1  0.022300  0.681000  0.332700  1.0
  O  O368  1  0.477700  0.181000  0.167300  1.0
  O  O369  1  0.147900  0.184640  0.263020  1.0
  O  O370  1  0.352100  0.684640  0.236980  1.0
  O  O371  1  0.147900  0.315360  0.736980  1.0
  O  O372  1  0.352100  0.815360  0.763020  1.0
  O  O373  1  0.852100  0.815360  0.736980  1.0
  O  O374  1  0.647900  0.315360  0.763020  1.0
  O  O375  1  0.852100  0.684640  0.263020  1.0
  O  O376  1  0.647900  0.184640  0.236980  1.0
  F  F377  1  0.335200  0.946810  0.693050  1
  F  F378  1  0.164800  0.446810  0.806950  1
  F  F379  1  0.335200  0.553190  0.306950  1
  F  F380  1  0.164800  0.053190  0.193050  1
  F  F381  1  0.664800  0.053190  0.306950  1
  F  F382  1  0.835200  0.553190  0.193050  1
  F  F383  1  0.664800  0.446810  0.693050  1
  F  F384  1  0.835200  0.946810  0.806950  1
  F  F385  1  0.304200  0.043270  0.706860  1
  F  F386  1  0.195800  0.543270  0.793140  1
  F  F387  1  0.304200  0.456730  0.293140  1
  F  F388  1  0.195800  0.956730  0.206860  1
  F  F389  1  0.695800  0.956730  0.293140  1
  F  F390  1  0.804200  0.456730  0.206860  1
  F  F391  1  0.695800  0.543270  0.706860  1
  F  F392  1  0.804200  0.043270  0.793140  1
  F  F393  1  0.135200  0.982770  0.698250  1
  F  F394  1  0.364800  0.482770  0.801750  1
  F  F395  1  0.135200  0.517230  0.301750  1
  F  F396  1  0.364800  0.017230  0.198250  1
  F  F397  1  0.864800  0.017230  0.301750  1
  F  F398  1  0.635200  0.517230  0.198250  1
  F  F399  1  0.864800  0.482770  0.698250  1
  F  F400  1  0.635200  0.982770  0.801750  1
