# generated using pymatgen
data_AgH28C23SN2(O4F3)2
_symmetry_space_group_name_H-M   'P 1'
_cell_length_a   12.58830000
_cell_length_b   16.20290000
_cell_length_c   25.67940000
_cell_angle_alpha   90.00000000
_cell_angle_beta   90.00000000
_cell_angle_gamma   90.00000000
_symmetry_Int_Tables_number   1
_chemical_formula_structural   AgH28C23SN2(O4F3)2
_chemical_formula_sum   'Ag8 H224 C184 S8 N16 O64 F48'
_cell_volume   5237.74930850
_cell_formula_units_Z   8
loop_
 _symmetry_equiv_pos_site_id
 _symmetry_equiv_pos_as_xyz
  1  'x, y, z'
loop_
 _atom_site_type_symbol
 _atom_site_label
 _atom_site_symmetry_multiplicity
 _atom_site_fract_x
 _atom_site_fract_y
 _atom_site_fract_z
 _atom_site_occupancy
  Ag  Ag1  1  0.396500  0.934140  0.499101  1.0
  Ag  Ag2  1  0.103500  0.434140  0.000899  1.0
  Ag  Ag3  1  0.603500  0.565860  0.499101  1.0
  Ag  Ag4  1  0.896500  0.065860  0.000899  1.0
  Ag  Ag5  1  0.603500  0.065860  0.500899  1.0
  Ag  Ag6  1  0.896500  0.565860  0.999101  1.0
  Ag  Ag7  1  0.396500  0.434140  0.500899  1.0
  Ag  Ag8  1  0.103500  0.934140  0.999101  1.0
  H  H9  1  0.112900  0.415700  0.477400  1
  H  H10  1  0.387100  0.915700  0.022600  1
  H  H11  1  0.887100  0.084300  0.477400  1
  H  H12  1  0.612900  0.584300  0.022600  1
  H  H13  1  0.887100  0.584300  0.522600  1
  H  H14  1  0.612900  0.084300  0.977400  1
  H  H15  1  0.112900  0.915700  0.522600  1
  H  H16  1  0.387100  0.415700  0.977400  1
  H  H17  1  0.055200  0.500900  0.491200  1
  H  H18  1  0.444800  0.000900  0.008800  1
  H  H19  1  0.944800  0.999100  0.491200  1
  H  H20  1  0.555200  0.499100  0.008800  1
  H  H21  1  0.944800  0.499100  0.508800  1
  H  H22  1  0.555200  0.999100  0.991200  1
  H  H23  1  0.055200  0.000900  0.508800  1
  H  H24  1  0.444800  0.500900  0.991200  1
  H  H25  1  0.059100  0.428200  0.533300  1
  H  H26  1  0.440900  0.928200  0.966700  1
  H  H27  1  0.940900  0.071800  0.533300  1
  H  H28  1  0.559100  0.571800  0.966700  1
  H  H29  1  0.940900  0.571800  0.466700  1
  H  H30  1  0.559100  0.071800  0.033300  1
  H  H31  1  0.059100  0.928200  0.466700  1
  H  H32  1  0.440900  0.428200  0.033300  1
  H  H33  1  0.193100  0.539400  0.526800  1
  H  H34  1  0.306900  0.039400  0.973200  1
  H  H35  1  0.806900  0.960600  0.526800  1
  H  H36  1  0.693100  0.460600  0.973200  1
  H  H37  1  0.806900  0.460600  0.473200  1
  H  H38  1  0.693100  0.960600  0.026800  1
  H  H39  1  0.193100  0.039400  0.473200  1
  H  H40  1  0.306900  0.539400  0.026800  1
  H  H41  1  0.368400  0.049200  0.404100  1.0
  H  H42  1  0.131600  0.549200  0.095900  1.0
  H  H43  1  0.631600  0.450800  0.404100  1.0
  H  H44  1  0.868400  0.950800  0.095900  1.0
  H  H45  1  0.631600  0.950800  0.595900  1.0
  H  H46  1  0.868400  0.450800  0.904100  1.0
  H  H47  1  0.368400  0.549200  0.595900  1.0
  H  H48  1  0.131600  0.049200  0.904100  1.0
  H  H49  1  0.409100  0.055400  0.316200  1.0
  H  H50  1  0.090900  0.555400  0.183800  1.0
  H  H51  1  0.590900  0.444600  0.316200  1.0
  H  H52  1  0.909100  0.944600  0.183800  1.0
  H  H53  1  0.590900  0.944600  0.683800  1.0
  H  H54  1  0.909100  0.444600  0.816200  1.0
  H  H55  1  0.409100  0.555400  0.683800  1.0
  H  H56  1  0.090900  0.055400  0.816200  1.0
  H  H57  1  0.530800  0.825700  0.326500  1.0
  H  H58  1  0.969200  0.325700  0.173500  1.0
  H  H59  1  0.469200  0.674300  0.326500  1.0
  H  H60  1  0.030800  0.174300  0.173500  1.0
  H  H61  1  0.469200  0.174300  0.673500  1.0
  H  H62  1  0.030800  0.674300  0.826500  1.0
  H  H63  1  0.530800  0.325700  0.673500  1.0
  H  H64  1  0.969200  0.825700  0.826500  1.0
  H  H65  1  0.491700  0.826000  0.414500  1.0
  H  H66  1  0.008300  0.326000  0.085500  1.0
  H  H67  1  0.508300  0.674000  0.414500  1.0
  H  H68  1  0.991700  0.174000  0.085500  1.0
  H  H69  1  0.508300  0.174000  0.585500  1.0
  H  H70  1  0.991700  0.674000  0.914500  1.0
  H  H71  1  0.491700  0.326000  0.585500  1.0
  H  H72  1  0.008300  0.826000  0.914500  1.0
  H  H73  1  0.591400  0.753100  0.141400  1.0
  H  H74  1  0.908600  0.253100  0.358600  1.0
  H  H75  1  0.408600  0.746900  0.141400  1.0
  H  H76  1  0.091400  0.246900  0.358600  1.0
  H  H77  1  0.408600  0.246900  0.858600  1.0
  H  H78  1  0.091400  0.746900  0.641400  1.0
  H  H79  1  0.591400  0.253100  0.858600  1.0
  H  H80  1  0.908600  0.753100  0.641400  1.0
  H  H81  1  0.596900  0.742900  0.203200  1.0
  H  H82  1  0.903100  0.242900  0.296800  1.0
  H  H83  1  0.403100  0.757100  0.203200  1.0
  H  H84  1  0.096900  0.257100  0.296800  1.0
  H  H85  1  0.403100  0.257100  0.796800  1.0
  H  H86  1  0.096900  0.757100  0.703200  1.0
  H  H87  1  0.596900  0.242900  0.796800  1.0
  H  H88  1  0.903100  0.742900  0.703200  1.0
  H  H89  1  0.492300  0.965000  0.147000  1.0
  H  H90  1  0.007700  0.465000  0.353000  1.0
  H  H91  1  0.507700  0.535000  0.147000  1.0
  H  H92  1  0.992300  0.035000  0.353000  1.0
  H  H93  1  0.507700  0.035000  0.853000  1.0
  H  H94  1  0.992300  0.535000  0.647000  1.0
  H  H95  1  0.492300  0.465000  0.853000  1.0
  H  H96  1  0.007700  0.965000  0.647000  1.0
  H  H97  1  0.414300  0.887000  0.147500  1.0
  H  H98  1  0.085700  0.387000  0.352500  1.0
  H  H99  1  0.585700  0.613000  0.147500  1.0
  H  H100  1  0.914300  0.113000  0.352500  1.0
  H  H101  1  0.585700  0.113000  0.852500  1.0
  H  H102  1  0.914300  0.613000  0.647500  1.0
  H  H103  1  0.414300  0.387000  0.852500  1.0
  H  H104  1  0.085700  0.887000  0.647500  1.0
  H  H105  1  0.509600  0.891300  0.106400  1.0
  H  H106  1  0.990400  0.391300  0.393600  1.0
  H  H107  1  0.490400  0.608700  0.106400  1.0
  H  H108  1  0.009600  0.108700  0.393600  1.0
  H  H109  1  0.490400  0.108700  0.893600  1.0
  H  H110  1  0.009600  0.608700  0.606400  1.0
  H  H111  1  0.509600  0.391300  0.893600  1.0
  H  H112  1  0.990400  0.891300  0.606400  1.0
  H  H113  1  0.674800  0.953100  0.181500  1.0
  H  H114  1  0.825200  0.453100  0.318500  1.0
  H  H115  1  0.325200  0.546900  0.181500  1.0
  H  H116  1  0.174800  0.046900  0.318500  1.0
  H  H117  1  0.325200  0.046900  0.818500  1.0
  H  H118  1  0.174800  0.546900  0.681500  1.0
  H  H119  1  0.674800  0.453100  0.818500  1.0
  H  H120  1  0.825200  0.953100  0.681500  1.0
  H  H121  1  0.705000  0.877600  0.144100  1.0
  H  H122  1  0.795000  0.377600  0.355900  1.0
  H  H123  1  0.295000  0.622400  0.144100  1.0
  H  H124  1  0.205000  0.122400  0.355900  1.0
  H  H125  1  0.295000  0.122400  0.855900  1.0
  H  H126  1  0.205000  0.622400  0.644100  1.0
  H  H127  1  0.705000  0.377600  0.855900  1.0
  H  H128  1  0.795000  0.877600  0.644100  1.0
  H  H129  1  0.715500  0.868000  0.205900  1.0
  H  H130  1  0.784500  0.368000  0.294100  1.0
  H  H131  1  0.284500  0.632000  0.205900  1.0
  H  H132  1  0.215500  0.132000  0.294100  1.0
  H  H133  1  0.284500  0.132000  0.794100  1.0
  H  H134  1  0.215500  0.632000  0.705900  1.0
  H  H135  1  0.715500  0.368000  0.794100  1.0
  H  H136  1  0.784500  0.868000  0.705900  1.0
  H  H137  1  0.438500  0.808800  0.583000  1.0
  H  H138  1  0.061500  0.308800  0.917000  1.0
  H  H139  1  0.561500  0.691200  0.583000  1.0
  H  H140  1  0.938500  0.191200  0.917000  1.0
  H  H141  1  0.561500  0.191200  0.417000  1.0
  H  H142  1  0.938500  0.691200  0.083000  1.0
  H  H143  1  0.438500  0.308800  0.417000  1.0
  H  H144  1  0.061500  0.808800  0.083000  1.0
  H  H145  1  0.406600  0.779500  0.669300  1.0
  H  H146  1  0.093400  0.279500  0.830700  1.0
  H  H147  1  0.593400  0.720500  0.669300  1.0
  H  H148  1  0.906600  0.220500  0.830700  1.0
  H  H149  1  0.593400  0.220500  0.330700  1.0
  H  H150  1  0.906600  0.720500  0.169300  1.0
  H  H151  1  0.406600  0.279500  0.330700  1.0
  H  H152  1  0.093400  0.779500  0.169300  1.0
  H  H153  1  0.254000  0.997800  0.681800  1.0
  H  H154  1  0.246000  0.497800  0.818200  1.0
  H  H155  1  0.746000  0.502200  0.681800  1.0
  H  H156  1  0.754000  0.002200  0.818200  1.0
  H  H157  1  0.746000  0.002200  0.318200  1.0
  H  H158  1  0.754000  0.502200  0.181800  1.0
  H  H159  1  0.254000  0.497800  0.318200  1.0
  H  H160  1  0.246000  0.997800  0.181800  1.0
  H  H161  1  0.292200  0.022300  0.595000  1.0
  H  H162  1  0.207800  0.522300  0.905000  1.0
  H  H163  1  0.707800  0.477700  0.595000  1.0
  H  H164  1  0.792200  0.977700  0.905000  1.0
  H  H165  1  0.707800  0.977700  0.405000  1.0
  H  H166  1  0.792200  0.477700  0.095000  1.0
  H  H167  1  0.292200  0.522300  0.405000  1.0
  H  H168  1  0.207800  0.022300  0.095000  1.0
  H  H169  1  0.445900  0.686700  0.794600  1.0
  H  H170  1  0.054100  0.186700  0.705400  1.0
  H  H171  1  0.554100  0.813300  0.794600  1.0
  H  H172  1  0.945900  0.313300  0.705400  1.0
  H  H173  1  0.554100  0.313300  0.205400  1.0
  H  H174  1  0.945900  0.813300  0.294600  1.0
  H  H175  1  0.445900  0.186700  0.205400  1.0
  H  H176  1  0.054100  0.686700  0.294600  1.0
  H  H177  1  0.438600  0.697400  0.856300  1.0
  H  H178  1  0.061400  0.197400  0.643700  1.0
  H  H179  1  0.561400  0.802600  0.856300  1.0
  H  H180  1  0.938600  0.302600  0.643700  1.0
  H  H181  1  0.561400  0.302600  0.143700  1.0
  H  H182  1  0.938600  0.802600  0.356300  1.0
  H  H183  1  0.438600  0.197400  0.143700  1.0
  H  H184  1  0.061400  0.697400  0.356300  1.0
  H  H185  1  0.186800  0.772700  0.816200  1.0
  H  H186  1  0.313200  0.272700  0.683800  1.0
  H  H187  1  0.813200  0.727300  0.816200  1.0
  H  H188  1  0.686800  0.227300  0.683800  1.0
  H  H189  1  0.813200  0.227300  0.183800  1.0
  H  H190  1  0.686800  0.727300  0.316200  1.0
  H  H191  1  0.186800  0.272700  0.183800  1.0
  H  H192  1  0.313200  0.772700  0.316200  1.0
  H  H193  1  0.243300  0.708200  0.854400  1.0
  H  H194  1  0.256700  0.208200  0.645600  1.0
  H  H195  1  0.756700  0.791800  0.854400  1.0
  H  H196  1  0.743300  0.291800  0.645600  1.0
  H  H197  1  0.756700  0.291800  0.145600  1.0
  H  H198  1  0.743300  0.791800  0.354400  1.0
  H  H199  1  0.243300  0.208200  0.145600  1.0
  H  H200  1  0.256700  0.708200  0.354400  1.0
  H  H201  1  0.245500  0.693300  0.792800  1.0
  H  H202  1  0.254500  0.193300  0.707200  1.0
  H  H203  1  0.754500  0.806700  0.792800  1.0
  H  H204  1  0.745500  0.306700  0.707200  1.0
  H  H205  1  0.754500  0.306700  0.207200  1.0
  H  H206  1  0.745500  0.806700  0.292800  1.0
  H  H207  1  0.245500  0.193300  0.207200  1.0
  H  H208  1  0.254500  0.693300  0.292800  1.0
  H  H209  1  0.289200  0.891400  0.847700  1.0
  H  H210  1  0.210800  0.391400  0.652300  1.0
  H  H211  1  0.710800  0.608600  0.847700  1.0
  H  H212  1  0.789200  0.108600  0.652300  1.0
  H  H213  1  0.710800  0.108600  0.152300  1.0
  H  H214  1  0.789200  0.608600  0.347700  1.0
  H  H215  1  0.289200  0.391400  0.152300  1.0
  H  H216  1  0.210800  0.891400  0.347700  1.0
  H  H217  1  0.416400  0.890100  0.847500  1.0
  H  H218  1  0.083600  0.390100  0.652500  1.0
  H  H219  1  0.583600  0.609900  0.847500  1.0
  H  H220  1  0.916400  0.109900  0.652500  1.0
  H  H221  1  0.583600  0.109900  0.152500  1.0
  H  H222  1  0.916400  0.609900  0.347500  1.0
  H  H223  1  0.416400  0.390100  0.152500  1.0
  H  H224  1  0.083600  0.890100  0.347500  1.0
  H  H225  1  0.352200  0.837100  0.889600  1.0
  H  H226  1  0.147800  0.337100  0.610400  1.0
  H  H227  1  0.647800  0.662900  0.889600  1.0
  H  H228  1  0.852200  0.162900  0.610400  1.0
  H  H229  1  0.647800  0.162900  0.110400  1.0
  H  H230  1  0.852200  0.662900  0.389600  1.0
  H  H231  1  0.352200  0.337100  0.110400  1.0
  H  H232  1  0.147800  0.837100  0.389600  1.0
  C  C233  1  0.177200  0.669600  0.498000  1
  C  C234  1  0.322800  0.169600  0.002000  1
  C  C235  1  0.822800  0.830400  0.498000  1
  C  C236  1  0.677200  0.330400  0.002000  1
  C  C237  1  0.822800  0.330400  0.502000  1
  C  C238  1  0.677200  0.830400  0.998000  1
  C  C239  1  0.177200  0.169600  0.502000  1
  C  C240  1  0.322800  0.669600  0.998000  1
  C  C241  1  0.098100  0.456000  0.505100  1
  C  C242  1  0.401900  0.956000  0.994900  1
  C  C243  1  0.901900  0.044000  0.505100  1
  C  C244  1  0.598100  0.544000  0.994900  1
  C  C245  1  0.901900  0.544000  0.494900  1
  C  C246  1  0.598100  0.044000  0.005100  1
  C  C247  1  0.098100  0.956000  0.494900  1
  C  C248  1  0.401900  0.456000  0.005100  1
  C  C249  1  0.183500  0.728500  0.509400  1
  C  C250  1  0.316500  0.228500  0.990600  1
  C  C251  1  0.816500  0.771500  0.509400  1
  C  C252  1  0.683500  0.271500  0.990600  1
  C  C253  1  0.816500  0.271500  0.490600  1
  C  C254  1  0.683500  0.771500  0.009400  1
  C  C255  1  0.183500  0.228500  0.490600  1
  C  C256  1  0.316500  0.728500  0.009400  1
  C  C257  1  0.403000  0.003700  0.388180  1.0
  C  C258  1  0.097000  0.503700  0.111820  1.0
  C  C259  1  0.597000  0.496300  0.388180  1.0
  C  C260  1  0.903000  0.996300  0.111820  1.0
  C  C261  1  0.597000  0.996300  0.611820  1.0
  C  C262  1  0.903000  0.496300  0.888180  1.0
  C  C263  1  0.403000  0.503700  0.611820  1.0
  C  C264  1  0.097000  0.003700  0.888180  1.0
  C  C265  1  0.426300  0.007500  0.335760  1.0
  C  C266  1  0.073700  0.507500  0.164240  1.0
  C  C267  1  0.573700  0.492500  0.335760  1.0
  C  C268  1  0.926300  0.992500  0.164240  1.0
  C  C269  1  0.573700  0.992500  0.664240  1.0
  C  C270  1  0.926300  0.492500  0.835760  1.0
  C  C271  1  0.426300  0.507500  0.664240  1.0
  C  C272  1  0.073700  0.007500  0.835760  1.0
  C  C273  1  0.474700  0.941200  0.312040  1.0
  C  C274  1  0.025300  0.441200  0.187960  1.0
  C  C275  1  0.525300  0.558800  0.312040  1.0
  C  C276  1  0.974700  0.058800  0.187960  1.0
  C  C277  1  0.525300  0.058800  0.687960  1.0
  C  C278  1  0.974700  0.558800  0.812040  1.0
  C  C279  1  0.474700  0.441200  0.687960  1.0
  C  C280  1  0.025300  0.941200  0.812040  1.0
  C  C281  1  0.498400  0.872600  0.341920  1.0
  C  C282  1  0.001600  0.372600  0.158080  1.0
  C  C283  1  0.501600  0.627400  0.341920  1.0
  C  C284  1  0.998400  0.127400  0.158080  1.0
  C  C285  1  0.501600  0.127400  0.658080  1.0
  C  C286  1  0.998400  0.627400  0.841920  1.0
  C  C287  1  0.498400  0.372600  0.658080  1.0
  C  C288  1  0.001600  0.872600  0.841920  1.0
  C  C289  1  0.474400  0.873100  0.394190  1.0
  C  C290  1  0.025600  0.373100  0.105810  1.0
  C  C291  1  0.525600  0.626900  0.394190  1.0
  C  C292  1  0.974400  0.126900  0.105810  1.0
  C  C293  1  0.525600  0.126900  0.605810  1.0
  C  C294  1  0.974400  0.626900  0.894190  1.0
  C  C295  1  0.474400  0.373100  0.605810  1.0
  C  C296  1  0.025600  0.873100  0.894190  1.0
  C  C297  1  0.503100  0.948000  0.255180  1.0
  C  C298  1  0.996900  0.448000  0.244820  1.0
  C  C299  1  0.496900  0.552000  0.255180  1.0
  C  C300  1  0.003100  0.052000  0.244820  1.0
  C  C301  1  0.496900  0.052000  0.744820  1.0
  C  C302  1  0.003100  0.552000  0.755180  1.0
  C  C303  1  0.503100  0.448000  0.744820  1.0
  C  C304  1  0.996900  0.948000  0.755180  1.0
  C  C305  1  0.560200  0.862100  0.180470  1.0
  C  C306  1  0.939800  0.362100  0.319530  1.0
  C  C307  1  0.439800  0.637900  0.180470  1.0
  C  C308  1  0.060200  0.137900  0.319530  1.0
  C  C309  1  0.439800  0.137900  0.819530  1.0
  C  C310  1  0.060200  0.637900  0.680470  1.0
  C  C311  1  0.560200  0.362100  0.819530  1.0
  C  C312  1  0.939800  0.862100  0.680470  1.0
  C  C313  1  0.556000  0.768300  0.174450  1.0
  C  C314  1  0.944000  0.268300  0.325550  1.0
  C  C315  1  0.444000  0.731700  0.174450  1.0
  C  C316  1  0.056000  0.231700  0.325550  1.0
  C  C317  1  0.444000  0.231700  0.825550  1.0
  C  C318  1  0.056000  0.731700  0.674450  1.0
  C  C319  1  0.556000  0.268300  0.825550  1.0
  C  C320  1  0.944000  0.768300  0.674450  1.0
  C  C321  1  0.487700  0.905200  0.141930  1.0
  C  C322  1  0.012300  0.405200  0.358070  1.0
  C  C323  1  0.512300  0.594800  0.141930  1.0
  C  C324  1  0.987700  0.094800  0.358070  1.0
  C  C325  1  0.512300  0.094800  0.858070  1.0
  C  C326  1  0.987700  0.594800  0.641930  1.0
  C  C327  1  0.487700  0.405200  0.858070  1.0
  C  C328  1  0.012300  0.905200  0.641930  1.0
  C  C329  1  0.674000  0.892900  0.177800  1.0
  C  C330  1  0.826000  0.392900  0.322200  1.0
  C  C331  1  0.326000  0.607100  0.177800  1.0
  C  C332  1  0.174000  0.107100  0.322200  1.0
  C  C333  1  0.326000  0.107100  0.822200  1.0
  C  C334  1  0.174000  0.607100  0.677800  1.0
  C  C335  1  0.674000  0.392900  0.822200  1.0
  C  C336  1  0.826000  0.892900  0.677800  1.0
  C  C337  1  0.400500  0.847800  0.603420  1.0
  C  C338  1  0.099500  0.347800  0.896580  1.0
  C  C339  1  0.599500  0.652200  0.603420  1.0
  C  C340  1  0.900500  0.152200  0.896580  1.0
  C  C341  1  0.599500  0.152200  0.396580  1.0
  C  C342  1  0.900500  0.652200  0.103420  1.0
  C  C343  1  0.400500  0.347800  0.396580  1.0
  C  C344  1  0.099500  0.847800  0.103420  1.0
  C  C345  1  0.381900  0.829900  0.654780  1.0
  C  C346  1  0.118100  0.329900  0.845220  1.0
  C  C347  1  0.618100  0.670100  0.654780  1.0
  C  C348  1  0.881900  0.170100  0.845220  1.0
  C  C349  1  0.618100  0.170100  0.345220  1.0
  C  C350  1  0.881900  0.670100  0.154780  1.0
  C  C351  1  0.381900  0.329900  0.345220  1.0
  C  C352  1  0.118100  0.829900  0.154780  1.0
  C  C353  1  0.327100  0.885500  0.685180  1.0
  C  C354  1  0.172900  0.385500  0.814820  1.0
  C  C355  1  0.672900  0.614500  0.685180  1.0
  C  C356  1  0.827100  0.114500  0.814820  1.0
  C  C357  1  0.672900  0.114500  0.314820  1.0
  C  C358  1  0.827100  0.614500  0.185180  1.0
  C  C359  1  0.327100  0.385500  0.314820  1.0
  C  C360  1  0.172900  0.885500  0.185180  1.0
  C  C361  1  0.292600  0.958200  0.662150  1.0
  C  C362  1  0.207400  0.458200  0.837850  1.0
  C  C363  1  0.707400  0.541800  0.662150  1.0
  C  C364  1  0.792600  0.041800  0.837850  1.0
  C  C365  1  0.707400  0.041800  0.337850  1.0
  C  C366  1  0.792600  0.541800  0.162150  1.0
  C  C367  1  0.292600  0.458200  0.337850  1.0
  C  C368  1  0.207400  0.958200  0.162150  1.0
  C  C369  1  0.315100  0.972000  0.610370  1.0
  C  C370  1  0.184900  0.472000  0.889630  1.0
  C  C371  1  0.684900  0.528000  0.610370  1.0
  C  C372  1  0.815100  0.028000  0.889630  1.0
  C  C373  1  0.684900  0.028000  0.389630  1.0
  C  C374  1  0.815100  0.528000  0.110370  1.0
  C  C375  1  0.315100  0.472000  0.389630  1.0
  C  C376  1  0.184900  0.972000  0.110370  1.0
  C  C377  1  0.300400  0.870200  0.741500  1.0
  C  C378  1  0.199600  0.370200  0.758500  1.0
  C  C379  1  0.699600  0.629800  0.741500  1.0
  C  C380  1  0.800400  0.129800  0.758500  1.0
  C  C381  1  0.699600  0.129800  0.258500  1.0
  C  C382  1  0.800400  0.629800  0.241500  1.0
  C  C383  1  0.300400  0.370200  0.258500  1.0
  C  C384  1  0.199600  0.870200  0.241500  1.0
  C  C385  1  0.350800  0.784200  0.816500  1.0
  C  C386  1  0.149200  0.284200  0.683500  1.0
  C  C387  1  0.649200  0.715800  0.816500  1.0
  C  C388  1  0.850800  0.215800  0.683500  1.0
  C  C389  1  0.649200  0.215800  0.183500  1.0
  C  C390  1  0.850800  0.715800  0.316500  1.0
  C  C391  1  0.350800  0.284200  0.183500  1.0
  C  C392  1  0.149200  0.784200  0.316500  1.0
  C  C393  1  0.446200  0.727900  0.823110  1.0
  C  C394  1  0.053800  0.227900  0.676890  1.0
  C  C395  1  0.553800  0.772100  0.823110  1.0
  C  C396  1  0.946200  0.272100  0.676890  1.0
  C  C397  1  0.553800  0.272100  0.176890  1.0
  C  C398  1  0.946200  0.772100  0.323110  1.0
  C  C399  1  0.446200  0.227900  0.176890  1.0
  C  C400  1  0.053800  0.727900  0.323110  1.0
  C  C401  1  0.247300  0.735200  0.820300  1.0
  C  C402  1  0.252700  0.235200  0.679700  1.0
  C  C403  1  0.752700  0.764800  0.820300  1.0
  C  C404  1  0.747300  0.264800  0.679700  1.0
  C  C405  1  0.752700  0.264800  0.179700  1.0
  C  C406  1  0.747300  0.764800  0.320300  1.0
  C  C407  1  0.247300  0.235200  0.179700  1.0
  C  C408  1  0.252700  0.735200  0.320300  1.0
  C  C409  1  0.352300  0.857200  0.853600  1.0
  C  C410  1  0.147700  0.357200  0.646400  1.0
  C  C411  1  0.647700  0.642800  0.853600  1.0
  C  C412  1  0.852300  0.142800  0.646400  1.0
  C  C413  1  0.647700  0.142800  0.146400  1.0
  C  C414  1  0.852300  0.642800  0.353600  1.0
  C  C415  1  0.352300  0.357200  0.146400  1.0
  C  C416  1  0.147700  0.857200  0.353600  1.0
  S  S417  1  0.314910  0.683760  0.505030  1
  S  S418  1  0.185090  0.183760  0.994970  1
  S  S419  1  0.685090  0.816240  0.505030  1
  S  S420  1  0.814910  0.316240  0.994970  1
  S  S421  1  0.685090  0.316240  0.494970  1
  S  S422  1  0.814910  0.816240  0.005030  1
  S  S423  1  0.314910  0.183760  0.494970  1
  S  S424  1  0.185090  0.683760  0.005030  1
  N  N425  1  0.427500  0.937600  0.417480  1.0
  N  N426  1  0.072500  0.437600  0.082520  1.0
  N  N427  1  0.572500  0.562400  0.417480  1.0
  N  N428  1  0.927500  0.062400  0.082520  1.0
  N  N429  1  0.572500  0.062400  0.582520  1.0
  N  N430  1  0.927500  0.562400  0.917480  1.0
  N  N431  1  0.427500  0.437600  0.582520  1.0
  N  N432  1  0.072500  0.937600  0.917480  1.0
  N  N433  1  0.368000  0.917500  0.580610  1.0
  N  N434  1  0.132000  0.417500  0.919390  1.0
  N  N435  1  0.632000  0.582500  0.580610  1.0
  N  N436  1  0.868000  0.082500  0.919390  1.0
  N  N437  1  0.632000  0.082500  0.419390  1.0
  N  N438  1  0.868000  0.582500  0.080610  1.0
  N  N439  1  0.368000  0.417500  0.419390  1.0
  N  N440  1  0.132000  0.917500  0.080610  1.0
  O  O441  1  0.333600  0.680000  0.560400  1
  O  O442  1  0.166400  0.180000  0.939600  1
  O  O443  1  0.666400  0.820000  0.560400  1
  O  O444  1  0.833600  0.320000  0.939600  1
  O  O445  1  0.666400  0.320000  0.439600  1
  O  O446  1  0.833600  0.820000  0.060400  1
  O  O447  1  0.333600  0.180000  0.439600  1
  O  O448  1  0.166400  0.680000  0.060400  1
  O  O449  1  0.355500  0.754500  0.479300  1
  O  O450  1  0.144500  0.254500  0.020700  1
  O  O451  1  0.644500  0.745500  0.479300  1
  O  O452  1  0.855500  0.245500  0.020700  1
  O  O453  1  0.644500  0.245500  0.520700  1
  O  O454  1  0.855500  0.745500  0.979300  1
  O  O455  1  0.355500  0.254500  0.520700  1
  O  O456  1  0.144500  0.754500  0.979300  1
  O  O457  1  0.335100  0.609600  0.480000  1
  O  O458  1  0.164900  0.109600  0.020000  1
  O  O459  1  0.664900  0.890400  0.480000  1
  O  O460  1  0.835100  0.390400  0.020000  1
  O  O461  1  0.664900  0.390400  0.520000  1
  O  O462  1  0.835100  0.890400  0.980000  1
  O  O463  1  0.335100  0.109600  0.520000  1
  O  O464  1  0.164900  0.609600  0.980000  1
  O  O465  1  0.196600  0.487700  0.525100  1
  O  O466  1  0.303400  0.987700  0.974900  1
  O  O467  1  0.803400  0.012300  0.525100  1
  O  O468  1  0.696600  0.512300  0.974900  1
  O  O469  1  0.803400  0.512300  0.474900  1
  O  O470  1  0.696600  0.012300  0.025100  1
  O  O471  1  0.196600  0.987700  0.474900  1
  O  O472  1  0.303400  0.487700  0.025100  1
  O  O473  1  0.509600  0.013090  0.232750  1.0
  O  O474  1  0.990400  0.513090  0.267250  1.0
  O  O475  1  0.490400  0.486910  0.232750  1.0
  O  O476  1  0.009600  0.986910  0.267250  1.0
  O  O477  1  0.490400  0.986910  0.767250  1.0
  O  O478  1  0.009600  0.486910  0.732750  1.0
  O  O479  1  0.509600  0.513090  0.767250  1.0
  O  O480  1  0.990400  0.013090  0.732750  1.0
  O  O481  1  0.521500  0.873020  0.235140  1.0
  O  O482  1  0.978500  0.373020  0.264860  1.0
  O  O483  1  0.478500  0.626980  0.235140  1.0
  O  O484  1  0.021500  0.126980  0.264860  1.0
  O  O485  1  0.478500  0.126980  0.764860  1.0
  O  O486  1  0.021500  0.626980  0.735140  1.0
  O  O487  1  0.521500  0.373020  0.764860  1.0
  O  O488  1  0.978500  0.873020  0.735140  1.0
  O  O489  1  0.231000  0.907700  0.763550  1.0
  O  O490  1  0.269000  0.407700  0.736450  1.0
  O  O491  1  0.769000  0.592300  0.763550  1.0
  O  O492  1  0.731000  0.092300  0.736450  1.0
  O  O493  1  0.769000  0.092300  0.236450  1.0
  O  O494  1  0.731000  0.592300  0.263550  1.0
  O  O495  1  0.231000  0.407700  0.236450  1.0
  O  O496  1  0.269000  0.907700  0.263550  1.0
  O  O497  1  0.362600  0.811870  0.761370  1.0
  O  O498  1  0.137400  0.311870  0.738630  1.0
  O  O499  1  0.637400  0.688130  0.761370  1.0
  O  O500  1  0.862600  0.188130  0.738630  1.0
  O  O501  1  0.637400  0.188130  0.238630  1.0
  O  O502  1  0.862600  0.688130  0.261370  1.0
  O  O503  1  0.362600  0.311870  0.238630  1.0
  O  O504  1  0.137400  0.811870  0.261370  1.0
  F  F505  1  0.155800  0.661700  0.448600  1
  F  F506  1  0.344200  0.161700  0.051400  1
  F  F507  1  0.844200  0.838300  0.448600  1
  F  F508  1  0.655800  0.338300  0.051400  1
  F  F509  1  0.844200  0.338300  0.551400  1
  F  F510  1  0.655800  0.838300  0.948600  1
  F  F511  1  0.155800  0.161700  0.551400  1
  F  F512  1  0.344200  0.661700  0.948600  1
  F  F513  1  0.142800  0.604100  0.522400  1
  F  F514  1  0.357200  0.104100  0.977600  1
  F  F515  1  0.857200  0.895900  0.522400  1
  F  F516  1  0.642800  0.395900  0.977600  1
  F  F517  1  0.857200  0.395900  0.477600  1
  F  F518  1  0.642800  0.895900  0.022400  1
  F  F519  1  0.142800  0.104100  0.477600  1
  F  F520  1  0.357200  0.604100  0.022400  1
  F  F521  1  0.127500  0.734300  0.515900  1
  F  F522  1  0.372500  0.234300  0.984100  1
  F  F523  1  0.872500  0.765700  0.515900  1
  F  F524  1  0.627500  0.265700  0.984100  1
  F  F525  1  0.872500  0.265700  0.484100  1
  F  F526  1  0.627500  0.765700  0.015900  1
  F  F527  1  0.127500  0.234300  0.484100  1
  F  F528  1  0.372500  0.734300  0.015900  1
  F  F529  1  0.132700  0.750200  0.465100  1
  F  F530  1  0.367300  0.250200  0.034900  1
  F  F531  1  0.867300  0.749800  0.465100  1
  F  F532  1  0.632700  0.249800  0.034900  1
  F  F533  1  0.867300  0.249800  0.534900  1
  F  F534  1  0.632700  0.749800  0.965100  1
  F  F535  1  0.132700  0.250200  0.534900  1
  F  F536  1  0.367300  0.750200  0.965100  1
  F  F537  1  0.111000  0.678600  0.532400  1
  F  F538  1  0.389000  0.178600  0.967600  1
  F  F539  1  0.889000  0.821400  0.532400  1
  F  F540  1  0.611000  0.321400  0.967600  1
  F  F541  1  0.889000  0.321400  0.467600  1
  F  F542  1  0.611000  0.821400  0.032400  1
  F  F543  1  0.111000  0.178600  0.467600  1
  F  F544  1  0.389000  0.678600  0.032400  1
  F  F545  1  0.177900  0.797100  0.538600  1
  F  F546  1  0.322100  0.297100  0.961400  1
  F  F547  1  0.822100  0.702900  0.538600  1
  F  F548  1  0.677900  0.202900  0.961400  1
  F  F549  1  0.822100  0.202900  0.461400  1
  F  F550  1  0.677900  0.702900  0.038600  1
  F  F551  1  0.177900  0.297100  0.461400  1
  F  F552  1  0.322100  0.797100  0.038600  1
