# generated using pymatgen
data_Si2H50PdC28S2N4O7F6
_symmetry_space_group_name_H-M   'P 1'
_cell_length_a   10.09590000
_cell_length_b   13.55040000
_cell_length_c   13.68690000
_cell_angle_alpha   95.81100000
_cell_angle_beta   98.55100000
_cell_angle_gamma   91.10200000
_symmetry_Int_Tables_number   1
_chemical_formula_structural   Si2H50PdC28S2N4O7F6
_chemical_formula_sum   'Si4 H100 Pd2 C56 S4 N8 O14 F12'
_cell_volume   1840.96774869
_cell_formula_units_Z   2
loop_
 _symmetry_equiv_pos_site_id
 _symmetry_equiv_pos_as_xyz
  1  'x, y, z'
loop_
 _atom_site_type_symbol
 _atom_site_label
 _atom_site_symmetry_multiplicity
 _atom_site_fract_x
 _atom_site_fract_y
 _atom_site_fract_z
 _atom_site_occupancy
  Si  Si1  1  0.685700  0.849200  0.658300  1.0
  Si  Si2  1  0.314300  0.150800  0.341700  1.0
  Si  Si3  1  0.970000  0.890200  0.794100  1.0
  Si  Si4  1  0.030000  0.109800  0.205900  1.0
  H  H5  1  0.705500  0.227000  0.449400  1
  H  H6  1  0.294500  0.773000  0.550600  1
  H  H7  1  0.347500  0.492600  0.007400  1
  H  H8  1  0.652500  0.507400  0.992600  1
  H  H9  1  0.202300  0.528900  0.016400  1
  H  H10  1  0.797700  0.471100  0.983600  1
  H  H11  1  0.167300  0.568500  0.853700  1
  H  H12  1  0.832700  0.431500  0.146300  1
  H  H13  1  0.311200  0.612700  0.897100  1
  H  H14  1  0.688800  0.387300  0.102900  1
  H  H15  1  0.009100  0.097000  0.480000  1.0
  H  H16  1  0.990900  0.903000  0.520000  1.0
  H  H17  1  0.968500  0.064000  0.576900  1.0
  H  H18  1  0.031500  0.936000  0.423100  1.0
  H  H19  1  0.756400  0.014200  0.492500  1.0
  H  H20  1  0.243600  0.985800  0.507500  1.0
  H  H21  1  0.798200  0.050400  0.394400  1.0
  H  H22  1  0.201800  0.949600  0.605600  1.0
  H  H23  1  0.891800  0.198500  0.516000  1.0
  H  H24  1  0.108200  0.801500  0.484000  1.0
  H  H25  1  0.779700  0.163900  0.573300  1.0
  H  H26  1  0.220300  0.836100  0.426700  1.0
  H  H27  1  0.730400  0.242500  0.392800  1.0
  H  H28  1  0.269600  0.757500  0.607200  1.0
  H  H29  1  0.698200  0.290400  0.495400  1.0
  H  H30  1  0.301800  0.709600  0.504600  1.0
  H  H31  1  0.617200  0.195300  0.442000  1.0
  H  H32  1  0.382800  0.804700  0.558000  1.0
  H  H33  1  0.956400  0.244400  0.768900  1.0
  H  H34  1  0.043600  0.755600  0.231100  1.0
  H  H35  1  0.868900  0.087600  0.768400  1.0
  H  H36  1  0.131100  0.912400  0.231600  1.0
  H  H37  1  0.238900  0.990700  0.825900  1.0
  H  H38  1  0.761100  0.009300  0.174100  1.0
  H  H39  1  0.321000  0.148500  0.824700  1.0
  H  H40  1  0.679000  0.851500  0.175300  1.0
  H  H41  1  0.859000  0.925700  0.931100  1.0
  H  H42  1  0.141000  0.074300  0.068900  1.0
  H  H43  1  0.997700  0.880100  0.965300  1.0
  H  H44  1  0.002300  0.119900  0.034700  1.0
  H  H45  1  0.876200  0.810900  0.912800  1.0
  H  H46  1  0.123800  0.189100  0.087200  1.0
  H  H47  1  0.103200  0.799900  0.690900  1.0
  H  H48  1  0.896800  0.200100  0.309100  1.0
  H  H49  1  0.065300  0.733300  0.770500  1.0
  H  H50  1  0.934700  0.266700  0.229500  1.0
  H  H51  1  0.179900  0.815300  0.799900  1.0
  H  H52  1  0.820100  0.184700  0.200100  1.0
  H  H53  1  0.582900  0.996700  0.705200  1.0
  H  H54  1  0.417100  0.003300  0.294800  1.0
  H  H55  1  0.493500  0.938700  0.613000  1.0
  H  H56  1  0.506500  0.061300  0.387000  1.0
  H  H57  1  0.621000  0.000200  0.598700  1.0
  H  H58  1  0.379000  0.999800  0.401300  1.0
  H  H59  1  0.669300  0.706200  0.739400  1.0
  H  H60  1  0.330700  0.293800  0.260600  1.0
  H  H61  1  0.525500  0.737100  0.695600  1.0
  H  H62  1  0.474500  0.262900  0.304400  1.0
  H  H63  1  0.600800  0.793900  0.794300  1.0
  H  H64  1  0.399200  0.206100  0.205700  1.0
  H  H65  1  0.528900  0.826600  0.454800  1.0
  H  H66  1  0.471100  0.173400  0.545200  1.0
  H  H67  1  0.440900  0.247300  0.698500  1.0
  H  H68  1  0.559100  0.752700  0.301500  1.0
  H  H69  1  0.096600  0.346400  0.584700  1.0
  H  H70  1  0.903400  0.653600  0.415300  1.0
  H  H71  1  0.878800  0.723400  0.569400  1.0
  H  H72  1  0.121200  0.276600  0.430600  1.0
  H  H73  1  0.056700  0.409600  0.024500  1.0
  H  H74  1  0.943300  0.590400  0.975500  1.0
  H  H75  1  0.045600  0.309400  0.955300  1.0
  H  H76  1  0.954400  0.690600  0.044700  1.0
  H  H77  1  0.003700  0.408300  0.910700  1.0
  H  H78  1  0.996300  0.591700  0.089300  1.0
  H  H79  1  0.384500  0.354700  0.001900  1.0
  H  H80  1  0.615500  0.645300  0.998100  1.0
  H  H81  1  0.270700  0.274200  0.001200  1.0
  H  H82  1  0.729300  0.725800  0.998800  1.0
  H  H83  1  0.283000  0.369100  0.078100  1.0
  H  H84  1  0.717000  0.630900  0.921900  1.0
  H  H85  1  0.147500  0.537500  0.908700  1.0
  H  H86  1  0.852500  0.462500  0.091300  1.0
  H  H87  1  0.235900  0.538200  0.013700  1.0
  H  H88  1  0.764100  0.461800  0.986300  1.0
  H  H89  1  0.419400  0.495400  0.935300  1.0
  H  H90  1  0.580600  0.504600  0.064700  1.0
  H  H91  1  0.364600  0.598800  0.908300  1.0
  H  H92  1  0.635400  0.401200  0.091700  1.0
  H  H93  1  0.494300  0.550200  0.780300  1.0
  H  H94  1  0.505700  0.449800  0.219700  1.0
  H  H95  1  0.449400  0.459400  0.701000  1.0
  H  H96  1  0.550600  0.540600  0.299000  1.0
  H  H97  1  0.505400  0.441800  0.810700  1.0
  H  H98  1  0.494600  0.558200  0.189300  1.0
  H  H99  1  0.283400  0.611500  0.729000  1.0
  H  H100  1  0.716600  0.388500  0.271000  1.0
  H  H101  1  0.151500  0.553700  0.740300  1.0
  H  H102  1  0.848500  0.446300  0.259700  1.0
  H  H103  1  0.237200  0.514500  0.658900  1.0
  H  H104  1  0.762800  0.485500  0.341100  1.0
  Pd  Pd105  1  0.230900  0.349500  0.795900  1.0
  Pd  Pd106  1  0.769100  0.650500  0.204100  1.0
  C  C107  1  0.737000  0.458000  0.604000  1
  C  C108  1  0.263000  0.542000  0.396000  1
  C  C109  1  0.385000  0.868000  0.029000  1
  C  C110  1  0.615000  0.132000  0.971000  1
  C  C111  1  0.260000  0.490000  0.970000  1
  C  C112  1  0.740000  0.510000  0.030000  1
  C  C113  1  0.260000  0.551000  0.878000  1
  C  C114  1  0.740000  0.449000  0.122000  1
  C  C115  1  0.960000  0.046000  0.506000  1.0
  C  C116  1  0.040000  0.954000  0.494000  1.0
  C  C117  1  0.815000  0.059000  0.466000  1.0
  C  C118  1  0.185000  0.941000  0.534000  1.0
  C  C119  1  0.805000  0.165000  0.508000  1.0
  C  C120  1  0.195000  0.835000  0.492000  1.0
  C  C121  1  0.703000  0.229000  0.455000  1.0
  C  C122  1  0.297000  0.771000  0.545000  1.0
  C  C123  1  0.014000  0.193000  0.781000  1.0
  C  C124  1  0.986000  0.807000  0.219000  1.0
  C  C125  1  0.961000  0.098000  0.780000  1.0
  C  C126  1  0.039000  0.902000  0.220000  1.0
  C  C127  1  0.043000  0.019000  0.795000  1.0
  C  C128  1  0.957000  0.981000  0.205000  1.0
  C  C129  1  0.179000  0.041000  0.814000  1.0
  C  C130  1  0.821000  0.959000  0.186000  1.0
  C  C131  1  0.229000  0.136000  0.814000  1.0
  C  C132  1  0.771000  0.864000  0.186000  1.0
  C  C133  1  0.920000  0.875000  0.915000  1.0
  C  C134  1  0.080000  0.125000  0.085000  1.0
  C  C135  1  0.095000  0.799000  0.760000  1.0
  C  C136  1  0.905000  0.201000  0.240000  1.0
  C  C137  1  0.584000  0.959000  0.642000  1.0
  C  C138  1  0.416000  0.041000  0.358000  1.0
  C  C139  1  0.611000  0.761000  0.731000  1.0
  C  C140  1  0.389000  0.239000  0.269000  1.0
  C  C141  1  0.702000  0.785000  0.532000  1.0
  C  C142  1  0.298000  0.215000  0.468000  1.0
  C  C143  1  0.606000  0.792000  0.448000  1.0
  C  C144  1  0.394000  0.208000  0.552000  1.0
  C  C145  1  0.375000  0.252000  0.644000  1.0
  C  C146  1  0.625000  0.748000  0.356000  1.0
  C  C147  1  0.173000  0.311000  0.577000  1.0
  C  C148  1  0.827000  0.689000  0.423000  1.0
  C  C149  1  0.813000  0.731000  0.516000  1.0
  C  C150  1  0.187000  0.269000  0.484000  1.0
  C  C151  1  0.065000  0.379000  0.959000  1.0
  C  C152  1  0.935000  0.621000  0.041000  1.0
  C  C153  1  0.293000  0.344000  0.012000  1.0
  C  C154  1  0.707000  0.656000  0.988000  1.0
  C  C155  1  0.225000  0.509000  0.945000  1.0
  C  C156  1  0.775000  0.491000  0.055000  1.0
  C  C157  1  0.344000  0.528000  0.902000  1.0
  C  C158  1  0.656000  0.472000  0.098000  1.0
  C  C159  1  0.453000  0.485000  0.769000  1.0
  C  C160  1  0.547000  0.515000  0.231000  1.0
  C  C161  1  0.241000  0.547000  0.725000  1.0
  C  C162  1  0.759000  0.453000  0.275000  1.0
  S  S163  1  0.853500  0.493300  0.714500  1
  S  S164  1  0.146500  0.506700  0.285500  1
  S  S165  1  0.347600  0.772700  0.104100  1
  S  S166  1  0.652400  0.227300  0.895900  1
  N  N167  1  0.147000  0.212000  0.799000  1.0
  N  N168  1  0.853000  0.788000  0.201000  1.0
  N  N169  1  0.265000  0.302000  0.656000  1.0
  N  N170  1  0.735000  0.698000  0.344000  1.0
  N  N171  1  0.204000  0.396000  0.940000  1.0
  N  N172  1  0.796000  0.604000  0.060000  1.0
  N  N173  1  0.317000  0.489000  0.795000  1.0
  N  N174  1  0.683000  0.511000  0.205000  1.0
  O  O175  1  0.949000  0.417000  0.716000  1
  O  O176  1  0.051000  0.583000  0.284000  1
  O  O177  1  0.903000  0.589000  0.698000  1
  O  O178  1  0.097000  0.411000  0.302000  1
  O  O179  1  0.772000  0.496000  0.791000  1
  O  O180  1  0.228000  0.504000  0.209000  1
  O  O181  1  0.223000  0.735000  0.054000  1
  O  O182  1  0.777000  0.265000  0.946000  1
  O  O183  1  0.456000  0.709000  0.101000  1
  O  O184  1  0.544000  0.291000  0.899000  1
  O  O185  1  0.345000  0.824000  0.200000  1
  O  O186  1  0.655000  0.176000  0.800000  1
  O  O187  1  0.838000  0.882000  0.709000  1.0
  O  O188  1  0.162000  0.118000  0.291000  1.0
  F  F189  1  0.798000  0.448000  0.526000  1
  F  F190  1  0.202000  0.552000  0.474000  1
  F  F191  1  0.644000  0.527000  0.589000  1
  F  F192  1  0.356000  0.473000  0.411000  1
  F  F193  1  0.672000  0.374000  0.610000  1
  F  F194  1  0.328000  0.626000  0.390000  1
  F  F195  1  0.498000  0.916000  0.069000  1
  F  F196  1  0.502000  0.084000  0.931000  1
  F  F197  1  0.290000  0.933000  0.022000  1
  F  F198  1  0.710000  0.067000  0.978000  1
  F  F199  1  0.395000  0.830000  0.939000  1
  F  F200  1  0.605000  0.170000  0.061000  1
