# generated using pymatgen
data_Si2H44PdC25S2N4O7F6
_symmetry_space_group_name_H-M   'P 1'
_cell_length_a   10.06380000
_cell_length_b   13.57690000
_cell_length_c   13.67820000
_cell_angle_alpha   96.86300000
_cell_angle_beta   98.99500000
_cell_angle_gamma   90.96400000
_symmetry_Int_Tables_number   1
_chemical_formula_structural   Si2H44PdC25S2N4O7F6
_chemical_formula_sum   'Si4 H88 Pd2 C50 S4 N8 O14 F12'
_cell_volume   1831.51115052
_cell_formula_units_Z   2
loop_
 _symmetry_equiv_pos_site_id
 _symmetry_equiv_pos_as_xyz
  1  'x, y, z'
loop_
 _atom_site_type_symbol
 _atom_site_label
 _atom_site_symmetry_multiplicity
 _atom_site_fract_x
 _atom_site_fract_y
 _atom_site_fract_z
 _atom_site_occupancy
  Si  Si1  1  0.535310  0.610700  0.204650  1.0
  Si  Si2  1  0.464690  0.389300  0.795350  1.0
  Si  Si3  1  0.825250  0.656090  0.337070  1.0
  Si  Si4  1  0.174750  0.343910  0.662930  1.0
  H  H5  1  0.308000  0.669900  0.505900  1
  H  H6  1  0.692000  0.330100  0.494100  1
  H  H7  1  0.519900  0.582300  0.450300  1.0
  H  H8  1  0.480100  0.417700  0.549700  1.0
  H  H9  1  0.528700  0.586200  0.568300  1.0
  H  H10  1  0.471300  0.413800  0.431700  1.0
  H  H11  1  0.289400  0.541000  0.427200  1.0
  H  H12  1  0.710600  0.459000  0.572800  1.0
  H  H13  1  0.296700  0.538100  0.544400  1.0
  H  H14  1  0.703300  0.461900  0.455600  1.0
  H  H15  1  0.210000  0.679900  0.499200  1.0
  H  H16  1  0.790000  0.320100  0.500800  1.0
  H  H17  1  0.342600  0.704700  0.454300  1.0
  H  H18  1  0.657400  0.295300  0.545700  1.0
  H  H19  1  0.350800  0.702600  0.571800  1.0
  H  H20  1  0.649200  0.297400  0.428200  1.0
  H  H21  1  0.179100  0.353100  0.176000  1.0
  H  H22  1  0.820900  0.646900  0.824000  1.0
  H  H23  1  0.263300  0.513300  0.178100  1.0
  H  H24  1  0.736700  0.486700  0.821900  1.0
  H  H25  1  0.638000  0.413400  0.234700  1.0
  H  H26  1  0.362000  0.586600  0.765300  1.0
  H  H27  1  0.547000  0.256400  0.234800  1.0
  H  H28  1  0.453000  0.743600  0.765200  1.0
  H  H29  1  0.605700  0.693300  0.079200  1.0
  H  H30  1  0.394300  0.306700  0.920800  1.0
  H  H31  1  0.489700  0.611800  0.031100  1.0
  H  H32  1  0.510300  0.388200  0.968900  1.0
  H  H33  1  0.640500  0.578500  0.063100  1.0
  H  H34  1  0.359500  0.421500  0.936900  1.0
  H  H35  1  0.400700  0.693200  0.312400  1.0
  H  H36  1  0.599300  0.306800  0.687600  1.0
  H  H37  1  0.331100  0.693600  0.198900  1.0
  H  H38  1  0.668900  0.306400  0.801100  1.0
  H  H39  1  0.454300  0.769600  0.245600  1.0
  H  H40  1  0.545700  0.230400  0.754400  1.0
  H  H41  1  0.907200  0.509200  0.397000  1.0
  H  H42  1  0.092800  0.490800  0.603000  1.0
  H  H43  1  0.029000  0.574400  0.372400  1.0
  H  H44  1  0.971000  0.425600  0.627600  1.0
  H  H45  1  0.930300  0.509700  0.283900  1.0
  H  H46  1  0.069700  0.490300  0.716100  1.0
  H  H47  1  0.901900  0.718200  0.201000  1.0
  H  H48  1  0.098100  0.281800  0.799000  1.0
  H  H49  1  0.981500  0.774300  0.303600  1.0
  H  H50  1  0.018500  0.225700  0.696400  1.0
  H  H51  1  0.831500  0.804100  0.263100  1.0
  H  H52  1  0.168500  0.195900  0.736900  1.0
  H  H53  1  0.628800  0.782900  0.425900  1.0
  H  H54  1  0.371200  0.217100  0.574100  1.0
  H  H55  1  0.402400  0.154200  0.417400  1.0
  H  H56  1  0.597600  0.845800  0.582600  1.0
  H  H57  1  0.058500  0.258600  0.300400  1.0
  H  H58  1  0.941500  0.741400  0.699600  1.0
  H  H59  1  0.976800  0.670100  0.544900  1.0
  H  H60  1  0.023200  0.329900  0.455100  1.0
  H  H61  1  0.995700  0.069900  0.196400  1.0
  H  H62  1  0.004300  0.930100  0.803600  1.0
  H  H63  1  0.051000  0.036500  0.303200  1.0
  H  H64  1  0.949000  0.963500  0.696800  1.0
  H  H65  1  0.997900  0.954600  0.210500  1.0
  H  H66  1  0.002100  0.045400  0.789500  1.0
  H  H67  1  0.214500  0.890700  0.271200  1.0
  H  H68  1  0.785500  0.109300  0.728800  1.0
  H  H69  1  0.270300  0.990100  0.341800  1.0
  H  H70  1  0.729700  0.009900  0.658200  1.0
  H  H71  1  0.350500  0.945100  0.255500  1.0
  H  H72  1  0.649500  0.054900  0.744500  1.0
  H  H73  1  0.163700  0.896100  0.098900  1.0
  H  H74  1  0.836300  0.103900  0.901100  1.0
  H  H75  1  0.079400  0.988500  0.065600  1.0
  H  H76  1  0.920600  0.011500  0.934400  1.0
  H  H77  1  0.241300  0.973000  0.975800  1.0
  H  H78  1  0.758700  0.027000  0.024200  1.0
  H  H79  1  0.352400  0.961800  0.070800  1.0
  H  H80  1  0.647600  0.038200  0.929200  1.0
  H  H81  1  0.214900  0.128100  0.921400  1.0
  H  H82  1  0.785100  0.871900  0.078600  1.0
  H  H83  1  0.233600  0.227300  0.999000  1.0
  H  H84  1  0.766400  0.772700  0.001000  1.0
  H  H85  1  0.115200  0.147900  0.001500  1.0
  H  H86  1  0.884800  0.852100  0.998500  1.0
  H  H87  1  0.445700  0.093000  0.974400  1.0
  H  H88  1  0.554300  0.907000  0.025600  1.0
  H  H89  1  0.500800  0.088500  0.089900  1.0
  H  H90  1  0.499200  0.911500  0.910100  1.0
  H  H91  1  0.460900  0.192400  0.051500  1.0
  H  H92  1  0.539100  0.807600  0.948500  1.0
  Pd  Pd93  1  0.270830  0.152820  0.205320  1.0
  Pd  Pd94  1  0.729170  0.847180  0.794680  1.0
  C  C95  1  0.114500  0.632700  0.971700  1
  C  C96  1  0.885500  0.367300  0.028300  1
  C  C97  1  0.237500  0.946300  0.599300  1
  C  C98  1  0.762500  0.053700  0.400700  1
  C  C99  1  0.483200  0.552100  0.503300  1.0
  C  C100  1  0.516800  0.447900  0.496700  1.0
  C  C101  1  0.334900  0.571100  0.493800  1.0
  C  C102  1  0.665100  0.428900  0.506200  1.0
  C  C103  1  0.307500  0.672200  0.505600  1.0
  C  C104  1  0.692500  0.327800  0.494400  1.0
  C  C105  1  0.273800  0.365500  0.188000  1.0
  C  C106  1  0.726200  0.634500  0.812000  1.0
  C  C107  1  0.323900  0.461400  0.188900  1.0
  C  C108  1  0.676100  0.538600  0.811100  1.0
  C  C109  1  0.462300  0.482500  0.205500  1.0
  C  C110  1  0.537700  0.517500  0.794500  1.0
  C  C111  1  0.543000  0.403100  0.222400  1.0
  C  C112  1  0.457000  0.596900  0.777600  1.0
  C  C113  1  0.488500  0.309100  0.221900  1.0
  C  C114  1  0.511500  0.690900  0.778100  1.0
  C  C115  1  0.572100  0.625300  0.080000  1.0
  C  C116  1  0.427900  0.374700  0.920000  1.0
  C  C117  1  0.416500  0.702500  0.245100  1.0
  C  C118  1  0.583500  0.297500  0.754900  1.0
  C  C119  1  0.935900  0.549900  0.349000  1.0
  C  C120  1  0.064100  0.450100  0.651000  1.0
  C  C121  1  0.893000  0.749100  0.268100  1.0
  C  C122  1  0.107000  0.250900  0.731900  1.0
  C  C123  1  0.805700  0.715900  0.464900  1.0
  C  C124  1  0.194300  0.284100  0.535100  1.0
  C  C125  1  0.693900  0.771600  0.481200  1.0
  C  C126  1  0.306100  0.228400  0.518800  1.0
  C  C127  1  0.323800  0.190100  0.425400  1.0
  C  C128  1  0.676200  0.809900  0.574600  1.0
  C  C129  1  0.123900  0.251600  0.357000  1.0
  C  C130  1  0.876100  0.748400  0.643000  1.0
  C  C131  1  0.897800  0.706300  0.550600  1.0
  C  C132  1  0.102200  0.293700  0.449400  1.0
  C  C133  1  0.045200  0.019200  0.230900  1.0
  C  C134  1  0.954800  0.980800  0.769100  1.0
  C  C135  1  0.261000  0.955200  0.273900  1.0
  C  C136  1  0.739000  0.044800  0.726100  1.0
  C  C137  1  0.167000  0.969200  0.100600  1.0
  C  C138  1  0.833000  0.030800  0.899400  1.0
  C  C139  1  0.269300  0.996000  0.047700  1.0
  C  C140  1  0.730700  0.004000  0.952300  1.0
  C  C141  1  0.208100  0.156400  0.989700  1.0
  C  C142  1  0.791900  0.843600  0.010300  1.0
  C  C143  1  0.438400  0.121100  0.042600  1.0
  C  C144  1  0.561600  0.878900  0.957400  1.0
  S  S145  1  0.151650  0.725800  0.897100  1
  S  S146  1  0.848350  0.274200  0.102900  1
  S  S147  1  0.351020  0.987150  0.711410  1
  S  S148  1  0.648980  0.012850  0.288590  1
  N  N149  1  0.354500  0.290200  0.203500  1.0
  N  N150  1  0.645500  0.709800  0.796500  1.0
  N  N151  1  0.234400  0.201000  0.344200  1.0
  N  N152  1  0.765600  0.799000  0.655800  1.0
  N  N153  1  0.183600  0.014100  0.204700  1.0
  N  N154  1  0.816400  0.985900  0.795300  1.0
  N  N155  1  0.299100  0.105000  0.060900  1.0
  N  N156  1  0.700900  0.895000  0.939100  1.0
  O  O157  1  0.042900  0.790600  0.901100  1
  O  O158  1  0.957100  0.209400  0.098900  1
  O  O159  1  0.279400  0.763900  0.947100  1
  O  O160  1  0.720600  0.236100  0.052900  1
  O  O161  1  0.150200  0.672700  0.801400  1
  O  O162  1  0.849800  0.327300  0.198600  1
  O  O163  1  0.268200  0.989400  0.786900  1
  O  O164  1  0.731800  0.010600  0.213100  1
  O  O165  1  0.449700  0.912800  0.713700  1
  O  O166  1  0.550300  0.087200  0.286300  1
  O  O167  1  0.398500  0.081300  0.695400  1
  O  O168  1  0.601500  0.918700  0.304600  1
  O  O169  1  0.674200  0.617700  0.284300  1.0
  O  O170  1  0.325800  0.382300  0.715700  1.0
  F  F171  1  0.206800  0.565400  0.979000  1
  F  F172  1  0.793200  0.434600  0.021000  1
  F  F173  1  0.105100  0.670300  0.063300  1
  F  F174  1  0.894900  0.329700  0.936700  1
  F  F175  1  0.998200  0.583400  0.933900  1
  F  F176  1  0.001800  0.416600  0.066100  1
  F  F177  1  0.139200  0.013400  0.583200  1
  F  F178  1  0.860800  0.986600  0.416800  1
  F  F179  1  0.296600  0.934400  0.522500  1
  F  F180  1  0.703400  0.065600  0.477500  1
  F  F181  1  0.173900  0.862900  0.605600  1
  F  F182  1  0.826100  0.137100  0.394400  1
