# generated using pymatgen
data_Si2H47PdC27S2N4O7F6
_symmetry_space_group_name_H-M   'P 1'
_cell_length_a   10.09940000
_cell_length_b   13.59340000
_cell_length_c   13.66730000
_cell_angle_alpha   96.26800000
_cell_angle_beta   99.36500000
_cell_angle_gamma   91.00700000
_symmetry_Int_Tables_number   1
_chemical_formula_structural   Si2H47PdC27S2N4O7F6
_chemical_formula_sum   'Si4 H94 Pd2 C54 S4 N8 O14 F12'
_cell_volume   1839.04771474
_cell_formula_units_Z   2
loop_
 _symmetry_equiv_pos_site_id
 _symmetry_equiv_pos_as_xyz
  1  'x, y, z'
loop_
 _atom_site_type_symbol
 _atom_site_label
 _atom_site_symmetry_multiplicity
 _atom_site_fract_x
 _atom_site_fract_y
 _atom_site_fract_z
 _atom_site_occupancy
  Si  Si1  1  0.321540  0.654430  0.839820  1.0
  Si  Si2  1  0.678460  0.345570  0.160180  1.0
  Si  Si3  1  0.034500  0.609280  0.702930  1.0
  Si  Si4  1  0.965500  0.390720  0.297070  1.0
  H  H5  1  0.288900  0.117400  0.392300  1
  H  H6  1  0.711100  0.882600  0.607700  1
  H  H7  1  0.152100  0.056200  0.355900  1
  H  H8  1  0.847900  0.943800  0.644100  1
  H  H9  1  0.242400  0.033100  0.521200  1
  H  H10  1  0.757600  0.966900  0.478800  1
  H  H11  1  0.369700  0.988200  0.483000  1
  H  H12  1  0.630300  0.011800  0.517000  1
  H  H13  1  0.437100  0.743200  0.200700  1.0
  H  H14  1  0.562900  0.256800  0.799300  1.0
  H  H15  1  0.472200  0.672100  0.047500  1.0
  H  H16  1  0.527800  0.327900  0.952500  1.0
  H  H17  1  0.126000  0.780300  0.925500  1.0
  H  H18  1  0.874000  0.219700  0.074500  1.0
  H  H19  1  0.095000  0.845600  0.081400  1.0
  H  H20  1  0.905000  0.154400  0.918600  1.0
  H  H21  1  0.397900  0.505700  0.898500  1.0
  H  H22  1  0.602100  0.494300  0.101500  1.0
  H  H23  1  0.520600  0.570200  0.881500  1.0
  H  H24  1  0.479400  0.429800  0.118500  1.0
  H  H25  1  0.429100  0.509800  0.790300  1.0
  H  H26  1  0.570900  0.490200  0.209700  1.0
  H  H27  1  0.400100  0.715300  0.704400  1.0
  H  H28  1  0.599900  0.284700  0.295600  1.0
  H  H29  1  0.478900  0.769500  0.804700  1.0
  H  H30  1  0.521100  0.230500  0.195300  1.0
  H  H31  1  0.333400  0.800600  0.763800  1.0
  H  H32  1  0.666600  0.199400  0.236200  1.0
  H  H33  1  0.108200  0.691500  0.579300  1.0
  H  H34  1  0.891800  0.308500  0.420700  1.0
  H  H35  1  0.994600  0.612900  0.530300  1.0
  H  H36  1  0.005400  0.387100  0.469700  1.0
  H  H37  1  0.141000  0.579100  0.563800  1.0
  H  H38  1  0.859000  0.420900  0.436200  1.0
  H  H39  1  0.889300  0.689900  0.800800  1.0
  H  H40  1  0.110700  0.310100  0.199200  1.0
  H  H41  1  0.833900  0.695300  0.687500  1.0
  H  H42  1  0.166100  0.304700  0.312500  1.0
  H  H43  1  0.952800  0.766800  0.742700  1.0
  H  H44  1  0.047200  0.233200  0.257300  1.0
  H  H45  1  0.137200  0.411800  0.732100  1.0
  H  H46  1  0.862800  0.588200  0.267900  1.0
  H  H47  1  0.047100  0.255100  0.731400  1.0
  H  H48  1  0.952900  0.744900  0.268600  1.0
  H  H49  1  0.682400  0.351600  0.675100  1.0
  H  H50  1  0.317600  0.648400  0.324900  1.0
  H  H51  1  0.764300  0.510400  0.676200  1.0
  H  H52  1  0.235700  0.489600  0.323800  1.0
  H  H53  1  0.145300  0.051300  0.242500  1.0
  H  H54  1  0.854700  0.948700  0.757500  1.0
  H  H55  1  0.228900  0.015800  0.158900  1.0
  H  H56  1  0.771100  0.984200  0.841100  1.0
  H  H57  1  0.275200  0.111600  0.232200  1.0
  H  H58  1  0.724800  0.888400  0.767800  1.0
  H  H59  1  0.442300  0.957400  0.196300  1.0
  H  H60  1  0.557700  0.042600  0.803700  1.0
  H  H61  1  0.504200  0.938700  0.305200  1.0
  H  H62  1  0.495800  0.061300  0.694800  1.0
  H  H63  1  0.492500  0.047200  0.276700  1.0
  H  H64  1  0.507500  0.952800  0.723300  1.0
  H  H65  1  0.354900  0.100700  0.405400  1.0
  H  H66  1  0.645100  0.899300  0.594600  1.0
  H  H67  1  0.421000  0.002100  0.435100  1.0
  H  H68  1  0.579000  0.997900  0.564900  1.0
  H  H69  1  0.144400  0.037300  0.418900  1.0
  H  H70  1  0.855600  0.962700  0.581100  1.0
  H  H71  1  0.242100  0.031500  0.520100  1.0
  H  H72  1  0.757900  0.968500  0.479900  1.0
  H  H73  1  0.286800  0.872300  0.577400  1.0
  H  H74  1  0.713200  0.127700  0.422600  1.0
  H  H75  1  0.383400  0.854000  0.498900  1.0
  H  H76  1  0.616600  0.146000  0.501100  1.0
  H  H77  1  0.268800  0.775600  0.502100  1.0
  H  H78  1  0.731200  0.224400  0.497900  1.0
  H  H79  1  0.040900  0.809200  0.450400  1.0
  H  H80  1  0.959100  0.190800  0.549600  1.0
  H  H81  1  0.999500  0.910600  0.412000  1.0
  H  H82  1  0.000500  0.089400  0.588000  1.0
  H  H83  1  0.056100  0.906200  0.525300  1.0
  H  H84  1  0.943900  0.093800  0.474700  1.0
  H  H85  1  0.836700  0.702100  0.076900  1.0
  H  H86  1  0.163300  0.297900  0.923100  1.0
  H  H87  1  0.703100  0.680100  0.000600  1.0
  H  H88  1  0.296900  0.319900  0.999400  1.0
  H  H89  1  0.834200  0.713300  0.963600  1.0
  H  H90  1  0.165800  0.286700  0.036400  1.0
  H  H91  1  0.795400  0.531600  0.036900  1.0
  H  H92  1  0.204600  0.468400  0.963100  1.0
  H  H93  1  0.795400  0.543200  0.924300  1.0
  H  H94  1  0.204600  0.456800  0.075700  1.0
  H  H95  1  0.020200  0.584600  0.957200  1.0
  H  H96  1  0.979800  0.415400  0.042800  1.0
  H  H97  1  0.022300  0.580500  0.071300  1.0
  H  H98  1  0.977700  0.419500  0.928700  1.0
  Pd  Pd99  1  0.227297  0.848368  0.294776  1.0
  Pd  Pd100  1  0.772703  0.151632  0.705224  1.0
  C  C101  1  0.272000  0.042700  0.898500  1
  C  C102  1  0.728000  0.957300  0.101500  1
  C  C103  1  0.387000  0.368100  0.529900  1
  C  C104  1  0.613000  0.631900  0.470100  1
  C  C105  1  0.247800  0.051200  0.377700  1
  C  C106  1  0.752200  0.948800  0.622300  1
  C  C107  1  0.274100  0.996800  0.464900  1
  C  C108  1  0.725900  0.003200  0.535100  1
  C  C109  1  0.373200  0.749560  0.144760  1.0
  C  C110  1  0.626800  0.250440  0.855240  1.0
  C  C111  1  0.394700  0.706910  0.052600  1.0
  C  C112  1  0.605300  0.293090  0.947400  1.0
  C  C113  1  0.301500  0.715450  0.966960  1.0
  C  C114  1  0.698500  0.284550  0.033040  1.0
  C  C115  1  0.189600  0.770450  0.980570  1.0
  C  C116  1  0.810400  0.229550  0.019430  1.0
  C  C117  1  0.171700  0.810500  0.074320  1.0
  C  C118  1  0.828300  0.189500  0.925680  1.0
  C  C119  1  0.430400  0.547100  0.854300  1.0
  C  C120  1  0.569600  0.452900  0.145700  1.0
  C  C121  1  0.392000  0.746000  0.769800  1.0
  C  C122  1  0.608000  0.254000  0.230200  1.0
  C  C123  1  0.074300  0.625100  0.579400  1.0
  C  C124  1  0.925700  0.374900  0.420600  1.0
  C  C125  1  0.913100  0.701400  0.737600  1.0
  C  C126  1  0.086900  0.298600  0.262400  1.0
  C  C127  1  0.961900  0.480610  0.703480  1.0
  C  C128  1  0.038100  0.519390  0.296520  1.0
  C  C129  1  0.044400  0.401340  0.720290  1.0
  C  C130  1  0.955600  0.598660  0.279710  1.0
  C  C131  1  0.990000  0.307060  0.719690  1.0
  C  C132  1  0.010000  0.692940  0.280310  1.0
  C  C133  1  0.774800  0.364040  0.686700  1.0
  C  C134  1  0.225200  0.635960  0.313300  1.0
  C  C135  1  0.823700  0.459690  0.687000  1.0
  C  C136  1  0.176300  0.540310  0.313000  1.0
  C  C137  1  0.234100  0.046500  0.226200  1.0
  C  C138  1  0.765900  0.953500  0.773800  1.0
  C  C139  1  0.450500  0.982100  0.265600  1.0
  C  C140  1  0.549500  0.017900  0.734400  1.0
  C  C141  1  0.340600  0.029500  0.401000  1.0
  C  C142  1  0.659400  0.970500  0.599000  1.0
  C  C143  1  0.223800  0.006200  0.449900  1.0
  C  C144  1  0.776200  0.993800  0.550100  1.0
  C  C145  1  0.293000  0.845000  0.510580  1.0
  C  C146  1  0.707000  0.155000  0.489420  1.0
  C  C147  1  0.062000  0.879000  0.458300  1.0
  C  C148  1  0.938000  0.121000  0.541700  1.0
  C  C149  1  0.799100  0.675800  0.009900  1.0
  C  C150  1  0.200900  0.324200  0.990100  1.0
  C  C151  1  0.835400  0.568900  0.991900  1.0
  C  C152  1  0.164600  0.431100  0.008100  1.0
  C  C153  1  0.981600  0.550600  0.005300  1.0
  C  C154  1  0.018400  0.449400  0.994700  1.0
  S  S155  1  0.150970  0.009940  0.786390  1
  S  S156  1  0.849030  0.990060  0.213610  1
  S  S157  1  0.349070  0.273310  0.603520  1
  S  S158  1  0.650930  0.726690  0.396480  1
  N  N159  1  0.262470  0.800040  0.155810  1.0
  N  N160  1  0.737530  0.199960  0.844190  1.0
  N  N161  1  0.856210  0.288930  0.702580  1.0
  N  N162  1  0.143790  0.711070  0.297420  1.0
  N  N163  1  0.314500  0.986880  0.294530  1.0
  N  N164  1  0.685500  0.013120  0.705470  1.0
  N  N165  1  0.200400  0.896090  0.438640  1.0
  N  N166  1  0.799600  0.103910  0.561360  1.0
  O  O167  1  0.055800  0.087060  0.788340  1
  O  O168  1  0.944200  0.912940  0.211660  1
  O  O169  1  0.230800  0.009800  0.709270  1
  O  O170  1  0.769200  0.990200  0.290730  1
  O  O171  1  0.100300  0.914990  0.799900  1
  O  O172  1  0.899700  0.085010  0.200100  1
  O  O173  1  0.347600  0.324300  0.700000  1
  O  O174  1  0.652400  0.675700  0.300000  1
  O  O175  1  0.222300  0.235370  0.551600  1
  O  O176  1  0.777700  0.764630  0.448400  1
  O  O177  1  0.458900  0.209110  0.601010  1
  O  O178  1  0.541100  0.790890  0.398990  1
  O  O179  1  0.170800  0.617200  0.785860  1.0
  O  O180  1  0.829200  0.382800  0.214140  1.0
  F  F181  1  0.363100  0.973300  0.912100  1
  F  F182  1  0.636900  0.026700  0.087900  1
  F  F183  1  0.338300  0.126300  0.895300  1
  F  F184  1  0.661700  0.873700  0.104700  1
  F  F185  1  0.213300  0.053500  0.977840  1
  F  F186  1  0.786700  0.946500  0.022160  1
  F  F187  1  0.398400  0.331800  0.438700  1
  F  F188  1  0.601600  0.668200  0.561300  1
  F  F189  1  0.292100  0.433800  0.520700  1
  F  F190  1  0.707900  0.566200  0.479300  1
  F  F191  1  0.500200  0.418300  0.571100  1
  F  F192  1  0.499800  0.581700  0.428900  1
