# generated using pymatgen
data_H46PdC36N6(Cl5O7)2
_symmetry_space_group_name_H-M   'P 1'
_cell_length_a   8.51310000
_cell_length_b   12.96230000
_cell_length_c   19.65100000
_cell_angle_alpha   75.46800000
_cell_angle_beta   87.06700000
_cell_angle_gamma   84.61700000
_symmetry_Int_Tables_number   1
_chemical_formula_structural   H46PdC36N6(Cl5O7)2
_chemical_formula_sum   'H92 Pd2 C72 N12 Cl20 O28'
_cell_volume   2088.98426351
_cell_formula_units_Z   2
loop_
 _symmetry_equiv_pos_site_id
 _symmetry_equiv_pos_as_xyz
  1  'x, y, z'
loop_
 _atom_site_type_symbol
 _atom_site_label
 _atom_site_symmetry_multiplicity
 _atom_site_fract_x
 _atom_site_fract_y
 _atom_site_fract_z
 _atom_site_occupancy
  H  H1  1  0.077000  0.767100  0.320100  1
  H  H2  1  0.923000  0.232900  0.679900  1
  H  H3  1  0.058800  0.741600  0.402200  1
  H  H4  1  0.941200  0.258400  0.597800  1
  H  H5  1  0.696000  0.384900  0.043900  1
  H  H6  1  0.304000  0.615100  0.956100  1
  H  H7  1  0.696900  0.454900  0.966400  1
  H  H8  1  0.303100  0.545100  0.033600  1
  H  H9  1  0.673500  0.263600  0.978400  1
  H  H10  1  0.326500  0.736400  0.021600  1
  H  H11  1  0.700400  0.297200  0.047900  1
  H  H12  1  0.299600  0.702800  0.952100  1
  H  H13  1  0.510200  0.973000  0.598200  1.0
  H  H14  1  0.489800  0.027000  0.401800  1.0
  H  H15  1  0.539300  0.900500  0.674100  1.0
  H  H16  1  0.460700  0.099500  0.325900  1.0
  H  H17  1  0.513000  0.848300  0.612200  1.0
  H  H18  1  0.487000  0.151700  0.387800  1.0
  H  H19  1  0.717800  0.855500  0.519300  1.0
  H  H20  1  0.282200  0.144500  0.480700  1.0
  H  H21  1  0.875300  0.906000  0.525000  1.0
  H  H22  1  0.124700  0.094000  0.475000  1.0
  H  H23  1  0.718000  0.979500  0.508100  1.0
  H  H24  1  0.282000  0.020500  0.491900  1.0
  H  H25  1  0.734700  0.053600  0.617400  1.0
  H  H26  1  0.265300  0.946400  0.382600  1.0
  H  H27  1  0.904500  0.999100  0.607900  1.0
  H  H28  1  0.095500  0.000900  0.392100  1.0
  H  H29  1  0.717000  0.951100  0.733500  1.0
  H  H30  1  0.283000  0.048900  0.266500  1.0
  H  H31  1  0.871600  0.011800  0.724200  1.0
  H  H32  1  0.128400  0.988200  0.275800  1.0
  H  H33  1  0.104100  0.886200  0.663600  1.0
  H  H34  1  0.895900  0.113800  0.336400  1.0
  H  H35  1  0.145700  0.803200  0.734600  1.0
  H  H36  1  0.854300  0.196800  0.265400  1.0
  H  H37  1  0.110000  0.924700  0.732900  1.0
  H  H38  1  0.890000  0.075300  0.267100  1.0
  H  H39  1  0.949600  0.740000  0.822600  1.0
  H  H40  1  0.050400  0.260000  0.177400  1.0
  H  H41  1  0.783200  0.803900  0.818900  1.0
  H  H42  1  0.216800  0.196100  0.181100  1.0
  H  H43  1  0.933300  0.857500  0.831300  1.0
  H  H44  1  0.066700  0.142500  0.168700  1.0
  H  H45  1  0.158100  0.615200  0.690000  1.0
  H  H46  1  0.841900  0.384800  0.310000  1.0
  H  H47  1  0.972400  0.418300  0.855800  1.0
  H  H48  1  0.027600  0.581700  0.144200  1.0
  H  H49  1  0.774900  0.563300  0.809300  1.0
  H  H50  1  0.225100  0.436700  0.190700  1.0
  H  H51  1  0.355300  0.475000  0.784800  1.0
  H  H52  1  0.644700  0.525000  0.215200  1.0
  H  H53  1  0.294600  0.398800  0.743200  1.0
  H  H54  1  0.705400  0.601200  0.256800  1.0
  H  H55  1  0.369200  0.422900  0.908800  1.0
  H  H56  1  0.630800  0.577100  0.091200  1.0
  H  H57  1  0.185200  0.228600  0.812100  1.0
  H  H58  1  0.814800  0.771400  0.187900  1.0
  H  H59  1  0.201200  0.091700  0.914100  1.0
  H  H60  1  0.798800  0.908300  0.085900  1.0
  H  H61  1  0.378100  0.289300  0.012300  1.0
  H  H62  1  0.621900  0.710700  0.987700  1.0
  H  H63  1  0.509300  0.125600  0.071500  1.0
  H  H64  1  0.490700  0.874400  0.928500  1.0
  H  H65  1  0.540600  0.986100  0.169200  1.0
  H  H66  1  0.459400  0.013900  0.830800  1.0
  H  H67  1  0.144900  0.874700  0.128000  1.0
  H  H68  1  0.855100  0.125300  0.872000  1.0
  H  H69  1  0.113800  0.015700  0.028700  1.0
  H  H70  1  0.886200  0.984300  0.971300  1.0
  H  H71  1  0.496800  0.891400  0.278400  1.0
  H  H72  1  0.503200  0.108600  0.721600  1.0
  H  H73  1  0.532100  0.746100  0.375000  1.0
  H  H74  1  0.467900  0.253900  0.625000  1.0
  H  H75  1  0.301800  0.569800  0.281100  1.0
  H  H76  1  0.698200  0.430200  0.718900  1.0
  H  H77  1  0.264000  0.713800  0.184000  1.0
  H  H78  1  0.736000  0.286200  0.816000  1.0
  H  H79  1  0.461100  0.575000  0.441400  1.0
  H  H80  1  0.538900  0.425000  0.558600  1.0
  H  H81  1  0.572700  0.519800  0.392600  1.0
  H  H82  1  0.427300  0.480200  0.607400  1.0
  H  H83  1  0.438500  0.384000  0.337100  1.0
  H  H84  1  0.561500  0.616000  0.662900  1.0
  H  H85  1  0.197200  0.487100  0.487200  1.0
  H  H86  1  0.802800  0.512900  0.512800  1.0
  H  H87  1  0.061000  0.345000  0.461300  1.0
  H  H88  1  0.939000  0.655000  0.538700  1.0
  H  H89  1  0.975100  0.368400  0.007500  1.0
  H  H90  1  0.024900  0.631600  0.992500  1.0
  H  H91  1  0.841300  0.343400  0.065800  1.0
  H  H92  1  0.158700  0.656600  0.934200  1.0
  Pd  Pd93  1  0.837280  0.759250  0.671210  1.0
  Pd  Pd94  1  0.162720  0.240750  0.328790  1.0
  C  C95  1  0.002400  0.749300  0.359300  1
  C  C96  1  0.997600  0.250700  0.640700  1
  C  C97  1  0.756000  0.398000  0.000000  1
  C  C98  1  0.244000  0.602000  0.000000  1
  C  C99  1  0.733000  0.308000  0.999000  1
  C  C100  1  0.267000  0.692000  0.001000  1
  C  C101  1  0.558000  0.905900  0.624800  1.0
  C  C102  1  0.442000  0.094100  0.375200  1.0
  C  C103  1  0.763300  0.911100  0.533900  1.0
  C  C104  1  0.236700  0.088900  0.466100  1.0
  C  C105  1  0.802000  0.987600  0.631200  1.0
  C  C106  1  0.198000  0.012400  0.368800  1.0
  C  C107  1  0.819700  0.957700  0.709700  1.0
  C  C108  1  0.180300  0.042300  0.290300  1.0
  C  C109  1  0.083300  0.867900  0.713500  1.0
  C  C110  1  0.916700  0.132100  0.286500  1.0
  C  C111  1  0.893700  0.809300  0.807600  1.0
  C  C112  1  0.106300  0.190700  0.192400  1.0
  C  C113  1  0.086900  0.585000  0.725200  1.0
  C  C114  1  0.913100  0.415000  0.274800  1.0
  C  C115  1  0.985100  0.475400  0.816900  1.0
  C  C116  1  0.014900  0.524600  0.183100  1.0
  C  C117  1  0.877200  0.555600  0.791200  1.0
  C  C118  1  0.122800  0.444400  0.208800  1.0
  C  C119  1  0.273000  0.428600  0.783600  1.0
  C  C120  1  0.727000  0.571400  0.216400  1.0
  C  C121  1  0.278600  0.338000  0.850200  1.0
  C  C122  1  0.721400  0.662000  0.149800  1.0
  C  C123  1  0.335100  0.356400  0.909800  1.0
  C  C124  1  0.664900  0.643600  0.090200  1.0
  C  C125  1  0.226600  0.240200  0.852200  1.0
  C  C126  1  0.773400  0.759800  0.147800  1.0
  C  C127  1  0.235100  0.158100  0.913500  1.0
  C  C128  1  0.764900  0.841900  0.086500  1.0
  C  C129  1  0.341600  0.275900  0.971800  1.0
  C  C130  1  0.658400  0.724100  0.028200  1.0
  C  C131  1  0.294100  0.175700  0.973600  1.0
  C  C132  1  0.705900  0.824300  0.026400  1.0
  C  C133  1  0.310200  0.085500  0.038000  1.0
  C  C134  1  0.689800  0.914500  0.962000  1.0
  C  C135  1  0.435800  0.074800  0.081900  1.0
  C  C136  1  0.564200  0.925200  0.918100  1.0
  C  C137  1  0.455000  0.990300  0.140800  1.0
  C  C138  1  0.545000  0.009700  0.859200  1.0
  C  C139  1  0.350100  0.912100  0.158500  1.0
  C  C140  1  0.649900  0.087900  0.841500  1.0
  C  C141  1  0.220400  0.924200  0.116400  1.0
  C  C142  1  0.779600  0.075800  0.883600  1.0
  C  C143  1  0.201200  0.009800  0.056400  1.0
  C  C144  1  0.798800  0.990200  0.943600  1.0
  C  C145  1  0.374000  0.819500  0.221200  1.0
  C  C146  1  0.626000  0.180500  0.778800  1.0
  C  C147  1  0.456300  0.827200  0.278300  1.0
  C  C148  1  0.543700  0.172800  0.721700  1.0
  C  C149  1  0.479400  0.739000  0.336300  1.0
  C  C150  1  0.520600  0.261000  0.663700  1.0
  C  C151  1  0.425100  0.642500  0.336500  1.0
  C  C152  1  0.574900  0.357500  0.663500  1.0
  C  C153  1  0.342300  0.634300  0.280500  1.0
  C  C154  1  0.657700  0.365700  0.719500  1.0
  C  C155  1  0.317900  0.721400  0.222200  1.0
  C  C156  1  0.682100  0.278600  0.777800  1.0
  C  C157  1  0.465500  0.549100  0.399000  1.0
  C  C158  1  0.534500  0.450900  0.601000  1.0
  C  C159  1  0.360700  0.392000  0.370800  1.0
  C  C160  1  0.639300  0.608000  0.629200  1.0
  C  C161  1  0.227900  0.449500  0.453600  1.0
  C  C162  1  0.772100  0.550500  0.546400  1.0
  C  C163  1  0.154100  0.370300  0.439300  1.0
  C  C164  1  0.845900  0.629700  0.560700  1.0
  C  C165  1  0.865000  0.355100  0.015800  1.0
  C  C166  1  0.135000  0.644900  0.984200  1.0
  N  N167  1  0.730800  0.899500  0.609100  1.0
  N  N168  1  0.269200  0.100500  0.390900  1.0
  N  N169  1  0.918000  0.851900  0.727400  1.0
  N  N170  1  0.082000  0.148100  0.272600  1.0
  N  N171  1  0.941400  0.625400  0.733400  1.0
  N  N172  1  0.058600  0.374600  0.266600  1.0
  N  N173  1  0.117900  0.493600  0.775000  1.0
  N  N174  1  0.882100  0.506400  0.225000  1.0
  N  N175  1  0.358500  0.464000  0.408300  1.0
  N  N176  1  0.641500  0.536000  0.591700  1.0
  N  N177  1  0.237300  0.332000  0.387000  1.0
  N  N178  1  0.762700  0.668000  0.613000  1.0
  Cl  Cl179  1  0.441500  0.701800  0.817200  1
  Cl  Cl180  1  0.558500  0.298200  0.182800  1
  Cl  Cl181  1  0.730000  0.251570  0.470100  1
  Cl  Cl182  1  0.270000  0.748430  0.529900  1
  Cl  Cl183  1  0.855300  0.853800  0.352300  1
  Cl  Cl184  1  0.144700  0.146200  0.647700  1
  Cl  Cl185  1  0.930100  0.628700  0.360300  1
  Cl  Cl186  1  0.069900  0.371300  0.639700  1
  Cl  Cl187  1  0.934000  0.441800  0.012100  1
  Cl  Cl188  1  0.066000  0.558200  0.987900  1
  Cl  Cl189  1  0.769000  0.284300  0.969200  1
  Cl  Cl190  1  0.231000  0.715700  0.030800  1
  Cl  Cl191  1  0.691900  0.439600  0.956200  1
  Cl  Cl192  1  0.308100  0.560400  0.043800  1
  Cl  Cl193  1  0.933000  0.266900  0.993600  1
  Cl  Cl194  1  0.067000  0.733100  0.006400  1
  Cl  Cl195  1  0.749000  0.465600  0.970700  1.0
  Cl  Cl196  1  0.251000  0.534400  0.029300  1.0
  Cl  Cl197  1  0.831000  0.241600  0.989200  1.0
  Cl  Cl198  1  0.169000  0.758400  0.010800  1.0
  O  O199  1  0.497200  0.663800  0.760300  1
  O  O200  1  0.502800  0.336200  0.239700  1
  O  O201  1  0.426400  0.812700  0.802500  1
  O  O202  1  0.573600  0.187300  0.197500  1
  O  O203  1  0.284300  0.666667  0.835500  1
  O  O204  1  0.715700  0.333333  0.164500  1
  O  O205  1  0.535000  0.655800  0.876400  1
  O  O206  1  0.465000  0.344200  0.123600  1
  O  O207  1  0.707600  0.269200  0.396900  1
  O  O208  1  0.292400  0.730800  0.603100  1
  O  O209  1  0.869700  0.182900  0.488100  1
  O  O210  1  0.130300  0.817100  0.511900  1
  O  O211  1  0.738000  0.350200  0.486200  1
  O  O212  1  0.262000  0.649800  0.513800  1
  O  O213  1  0.591300  0.206400  0.502800  1
  O  O214  1  0.408700  0.793600  0.497200  1
  O  O215  1  0.325000  0.772000  0.836000  1
  O  O216  1  0.675000  0.228000  0.164000  1
  O  O217  1  0.555000  0.765000  0.779000  1
  O  O218  1  0.445000  0.235000  0.221000  1
  O  O219  1  0.381000  0.655000  0.765000  1
  O  O220  1  0.619000  0.345000  0.235000  1
  O  O221  1  0.807000  0.186000  0.429500  1
  O  O222  1  0.193000  0.814000  0.570500  1
  O  O223  1  0.825000  0.258000  0.526400  1
  O  O224  1  0.175000  0.742000  0.473600  1
  O  O225  1  0.731000  0.361600  0.437300  1
  O  O226  1  0.269000  0.638400  0.562700  1
