# generated using pymatgen
data_B4H120Pd2C74N12(OF4)5
_symmetry_space_group_name_H-M   'P 1'
_cell_length_a   14.12400000
_cell_length_b   14.33500000
_cell_length_c   17.60100000
_cell_angle_alpha   92.80000000
_cell_angle_beta   93.80000000
_cell_angle_gamma   101.15000000
_symmetry_Int_Tables_number   1
_chemical_formula_structural   B4H120Pd2C74N12(OF4)5
_chemical_formula_sum   'B8 H240 Pd4 C148 N24 O10 F40'
_cell_volume   3481.75012209
_cell_formula_units_Z   2
loop_
 _symmetry_equiv_pos_site_id
 _symmetry_equiv_pos_as_xyz
  1  'x, y, z'
loop_
 _atom_site_type_symbol
 _atom_site_label
 _atom_site_symmetry_multiplicity
 _atom_site_fract_x
 _atom_site_fract_y
 _atom_site_fract_z
 _atom_site_occupancy
  B  B1  1  0.032000  0.857000  0.306000  1
  B  B2  1  0.968000  0.143000  0.694000  1
  B  B3  1  0.374600  0.017000  0.818100  1
  B  B4  1  0.625400  0.983000  0.181900  1
  B  B5  1  0.626200  0.227800  0.398900  1
  B  B6  1  0.373800  0.772200  0.601100  1
  B  B7  1  0.204400  0.424900  0.280800  1
  B  B8  1  0.795600  0.575100  0.719200  1
  H  H9  1  0.532900  0.206000  0.645600  1
  H  H10  1  0.467100  0.794000  0.354400  1
  H  H11  1  0.596700  0.220600  0.575600  1
  H  H12  1  0.403300  0.779400  0.424400  1
  H  H13  1  0.650700  0.344700  0.671200  1
  H  H14  1  0.349300  0.655300  0.328800  1
  H  H15  1  0.733000  0.287700  0.656500  1
  H  H16  1  0.267000  0.712300  0.343500  1
  H  H17  1  0.490400  0.036200  0.649200  1
  H  H18  1  0.509600  0.963800  0.350800  1
  H  H19  1  0.559300  0.976000  0.612800  1
  H  H20  1  0.440700  0.024000  0.387200  1
  H  H21  1  0.515100  0.048200  0.564200  1
  H  H22  1  0.484900  0.951800  0.435800  1
  H  H23  1  0.685100  0.094800  0.540400  1
  H  H24  1  0.314900  0.905200  0.459600  1
  H  H25  1  0.730100  0.044900  0.607300  1
  H  H26  1  0.269900  0.955100  0.392700  1
  H  H27  1  0.759300  0.155600  0.602600  1
  H  H28  1  0.240700  0.844400  0.397400  1
  H  H29  1  0.770800  0.380800  0.788500  1
  H  H30  1  0.229200  0.619200  0.211500  1
  H  H31  1  0.819800  0.294300  0.768600  1
  H  H32  1  0.180200  0.705700  0.231400  1
  H  H33  1  0.774300  0.302200  0.846900  1
  H  H34  1  0.225700  0.697800  0.153100  1
  H  H35  1  0.600000  0.351100  0.805500  1
  H  H36  1  0.400000  0.648900  0.194500  1
  H  H37  1  0.594200  0.257800  0.849400  1
  H  H38  1  0.405800  0.742200  0.150600  1
  H  H39  1  0.532400  0.256200  0.771800  1
  H  H40  1  0.467600  0.743800  0.228200  1
  H  H41  1  0.070700  0.188400  0.395500  1
  H  H42  1  0.929300  0.811600  0.604500  1
  H  H43  1  0.005800  0.088300  0.406700  1
  H  H44  1  0.994200  0.911700  0.593300  1
  H  H45  1  0.991900  0.193700  0.510200  1
  H  H46  1  0.008100  0.806300  0.489800  1
  H  H47  1  0.891000  0.165500  0.462800  1
  H  H48  1  0.109000  0.834500  0.537200  1
  H  H49  1  0.058700  0.195200  0.261400  1
  H  H50  1  0.941300  0.804800  0.738600  1
  H  H51  1  0.963300  0.145200  0.213500  1
  H  H52  1  0.036700  0.854800  0.786500  1
  H  H53  1  0.021900  0.085000  0.263500  1
  H  H54  1  0.978100  0.915000  0.736500  1
  H  H55  1  0.869300  0.026900  0.309100  1
  H  H56  1  0.130700  0.973100  0.690900  1
  H  H57  1  0.818500  0.101000  0.268400  1
  H  H58  1  0.181500  0.899000  0.731600  1
  H  H59  1  0.816600  0.093600  0.356900  1
  H  H60  1  0.183400  0.906400  0.643100  1
  H  H61  1  0.057500  0.425700  0.443500  1
  H  H62  1  0.942500  0.574300  0.556500  1
  H  H63  1  0.103400  0.335600  0.430300  1
  H  H64  1  0.896600  0.664400  0.569700  1
  H  H65  1  0.080300  0.366500  0.512600  1
  H  H66  1  0.919700  0.633500  0.487400  1
  H  H67  1  0.919500  0.336700  0.549000  1
  H  H68  1  0.080500  0.663300  0.451000  1
  H  H69  1  0.832200  0.297100  0.489000  1
  H  H70  1  0.167800  0.702900  0.511000  1
  H  H71  1  0.890800  0.401300  0.485500  1
  H  H72  1  0.109200  0.598700  0.514500  1
  H  H73  1  0.852500  0.122200  0.872400  1
  H  H74  1  0.147500  0.877800  0.127600  1
  H  H75  1  0.580800  0.086900  0.917700  1
  H  H76  1  0.419200  0.913100  0.082300  1
  H  H77  1  0.673300  0.062400  0.034100  1
  H  H78  1  0.326700  0.937600  0.965900  1
  H  H79  1  0.866500  0.094000  0.073200  1
  H  H80  1  0.133500  0.906000  0.926800  1
  H  H81  1  0.933200  0.102500  0.005000  1
  H  H82  1  0.066800  0.897500  0.995000  1
  H  H83  1  0.926200  0.965300  0.129600  1
  H  H84  1  0.073800  0.034700  0.870400  1
  H  H85  1  0.930400  0.807500  0.130900  1
  H  H86  1  0.069600  0.192500  0.869100  1
  H  H87  1  0.819300  0.767000  0.915200  1
  H  H88  1  0.180700  0.233000  0.084800  1
  H  H89  1  0.816200  0.926800  0.914100  1
  H  H90  1  0.183800  0.073200  0.085900  1
  H  H91  1  0.892400  0.658600  0.139200  1
  H  H92  1  0.107600  0.341400  0.860800  1
  H  H93  1  0.886000  0.498700  0.141800  1
  H  H94  1  0.114000  0.501300  0.858200  1
  H  H95  1  0.850600  0.470700  0.915400  1
  H  H96  1  0.149400  0.529300  0.084600  1
  H  H97  1  0.850600  0.630100  0.912200  1
  H  H98  1  0.149400  0.369900  0.087800  1
  H  H99  1  0.831900  0.328800  0.987700  1
  H  H100  1  0.168100  0.671200  0.012300  1
  H  H101  1  0.941000  0.355000  0.018300  1
  H  H102  1  0.059000  0.645000  0.981700  1
  H  H103  1  0.979400  0.345900  0.164400  1
  H  H104  1  0.020600  0.654100  0.835600  1
  H  H105  1  0.719000  0.234000  0.221500  1
  H  H106  1  0.281000  0.766000  0.778500  1
  H  H107  1  0.704800  0.272700  0.087900  1
  H  H108  1  0.295200  0.727300  0.912100  1
  H  H109  1  0.747500  0.412900  0.354100  1
  H  H110  1  0.252500  0.587100  0.645900  1
  H  H111  1  0.015100  0.516500  0.310200  1
  H  H112  1  0.984900  0.483500  0.689800  1
  H  H113  1  0.924800  0.644800  0.301600  1
  H  H114  1  0.075200  0.355200  0.698400  1
  H  H115  1  0.746700  0.657900  0.358200  1
  H  H116  1  0.253300  0.342100  0.641800  1
  H  H117  1  0.673400  0.560100  0.353300  1
  H  H118  1  0.326600  0.439900  0.646700  1
  H  H119  1  0.639900  0.478700  0.212500  1
  H  H120  1  0.360100  0.521300  0.787500  1
  H  H121  1  0.590600  0.504100  0.089800  1
  H  H122  1  0.409400  0.495900  0.910200  1
  H  H123  1  0.683900  0.785300  0.135500  1
  H  H124  1  0.316100  0.214700  0.864500  1
  H  H125  1  0.733600  0.757700  0.258100  1
  H  H126  1  0.266400  0.242300  0.741900  1
  H  H127  1  0.634100  0.548600  0.966400  1
  H  H128  1  0.365900  0.451400  0.033600  1
  H  H129  1  0.605300  0.584100  0.843500  1
  H  H130  1  0.394700  0.415900  0.156500  1
  H  H131  1  0.527600  0.823500  0.915600  1
  H  H132  1  0.472400  0.176500  0.084400  1
  H  H133  1  0.560900  0.791200  0.040400  1
  H  H134  1  0.439100  0.208800  0.959600  1
  H  H135  1  0.555700  0.679400  0.750600  1
  H  H136  1  0.444300  0.320600  0.249400  1
  H  H137  1  0.479200  0.738300  0.776000  1
  H  H138  1  0.520800  0.261700  0.224000  1
  H  H139  1  0.526200  0.918100  0.770800  1
  H  H140  1  0.473800  0.081900  0.229200  1
  H  H141  1  0.801100  0.952400  0.733000  1
  H  H142  1  0.198900  0.047600  0.267000  1
  H  H143  1  0.742900  0.784100  0.751500  1
  H  H144  1  0.257100  0.215900  0.248500  1
  H  H145  1  0.686800  0.837900  0.368700  1
  H  H146  1  0.313200  0.162100  0.631300  1
  H  H147  1  0.721400  0.948500  0.387600  1
  H  H148  1  0.278600  0.051500  0.612400  1
  H  H149  1  0.663600  0.931300  0.517300  1
  H  H150  1  0.336400  0.068700  0.482700  1
  H  H151  1  0.575200  0.889400  0.457900  1
  H  H152  1  0.424800  0.110600  0.542100  1
  H  H153  1  0.721400  0.723300  0.559500  1
  H  H154  1  0.278600  0.276700  0.440500  1
  H  H155  1  0.749900  0.834100  0.577700  1
  H  H156  1  0.250100  0.165900  0.422300  1
  H  H157  1  0.862100  0.788700  0.497500  1
  H  H158  1  0.137900  0.211300  0.502500  1
  H  H159  1  0.777900  0.739500  0.437300  1
  H  H160  1  0.222100  0.260500  0.562700  1
  H  H161  1  0.731900  0.231400  0.627800  1
  H  H162  1  0.268100  0.768600  0.372200  1
  H  H163  1  0.637500  0.229900  0.574900  1
  H  H164  1  0.362500  0.770100  0.425100  1
  H  H165  1  0.648000  0.347400  0.674800  1
  H  H166  1  0.352000  0.652600  0.325200  1
  H  H167  1  0.557300  0.266200  0.684100  1
  H  H168  1  0.442700  0.733800  0.315900  1
  H  H169  1  0.486800  0.107100  0.662400  1
  H  H170  1  0.513200  0.892900  0.337600  1
  H  H171  1  0.507700  0.009100  0.632000  1
  H  H172  1  0.492300  0.990900  0.368000  1
  H  H173  1  0.499800  0.088900  0.575500  1
  H  H174  1  0.500200  0.911100  0.424500  1
  H  H175  1  0.693000  0.087200  0.545400  1
  H  H176  1  0.307000  0.912800  0.454600  1
  H  H177  1  0.654100  0.994800  0.586900  1
  H  H178  1  0.345900  0.005200  0.413100  1
  H  H179  1  0.748400  0.065200  0.620400  1
  H  H180  1  0.251600  0.934800  0.379600  1
  H  H181  1  0.783600  0.373500  0.774500  1
  H  H182  1  0.216400  0.626500  0.225500  1
  H  H183  1  0.815500  0.283400  0.738600  1
  H  H184  1  0.184500  0.716600  0.261400  1
  H  H185  1  0.799000  0.290400  0.825700  1
  H  H186  1  0.201000  0.709600  0.174300  1
  H  H187  1  0.626300  0.361500  0.818900  1
  H  H188  1  0.373700  0.638500  0.181100  1
  H  H189  1  0.666800  0.289900  0.870500  1
  H  H190  1  0.333200  0.710100  0.129500  1
  H  H191  1  0.564300  0.259700  0.826700  1
  H  H192  1  0.435700  0.740300  0.173300  1
  H  H193  1  0.896400  0.111200  0.424900  1
  H  H194  1  0.103600  0.888800  0.575100  1
  H  H195  1  0.997400  0.087900  0.409700  1
  H  H196  1  0.002600  0.912100  0.590300  1
  H  H197  1  0.076700  0.234600  0.456400  1
  H  H198  1  0.923300  0.765400  0.543600  1
  H  H199  1  0.999500  0.201400  0.515100  1
  H  H200  1  0.000500  0.798600  0.484900  1
  H  H201  1  0.033900  0.091800  0.270300  1
  H  H202  1  0.966100  0.908200  0.729700  1
  H  H203  1  0.087900  0.189600  0.310200  1
  H  H204  1  0.912100  0.810400  0.689800  1
  H  H205  1  0.022700  0.187300  0.234200  1
  H  H206  1  0.977300  0.812700  0.765800  1
  H  H207  1  0.851800  0.082300  0.244900  1
  H  H208  1  0.148200  0.917700  0.755100  1
  H  H209  1  0.805600  0.094700  0.322400  1
  H  H210  1  0.194400  0.905300  0.677600  1
  H  H211  1  0.876500  0.023800  0.313900  1
  H  H212  1  0.123500  0.976200  0.686100  1
  H  H213  1  0.021900  0.442400  0.456400  1
  H  H214  1  0.978100  0.557600  0.543600  1
  H  H215  1  0.094700  0.377900  0.433700  1
  H  H216  1  0.905300  0.622100  0.566300  1
  H  H217  1  0.065700  0.384000  0.518000  1
  H  H218  1  0.934300  0.616000  0.482000  1
  H  H219  1  0.833200  0.252500  0.487200  1
  H  H220  1  0.166800  0.747500  0.512800  1
  H  H221  1  0.852000  0.362600  0.477900  1
  H  H222  1  0.148000  0.637400  0.522100  1
  H  H223  1  0.904800  0.321900  0.546100  1
  H  H224  1  0.095200  0.678100  0.453900  1
  H  H225  1  0.721600  0.948600  0.393300  1
  H  H226  1  0.278400  0.051400  0.606700  1
  H  H227  1  0.670600  0.938200  0.469600  1
  H  H228  1  0.329400  0.061800  0.530400  1
  H  H229  1  0.594400  0.806800  0.372200  1
  H  H230  1  0.405600  0.193200  0.627800  1
  H  H231  1  0.692000  0.768300  0.377400  1
  H  H232  1  0.308000  0.231700  0.622600  1
  H  H233  1  0.751500  0.720700  0.484300  1
  H  H234  1  0.248500  0.279300  0.515700  1
  H  H235  1  0.700500  0.729000  0.560000  1
  H  H236  1  0.299500  0.271000  0.440000  1
  H  H237  1  0.744800  0.893600  0.566600  1
  H  H238  1  0.255200  0.106400  0.433400  1
  H  H239  1  0.837700  0.850500  0.560400  1
  H  H240  1  0.162300  0.149500  0.439600  1
  H  H241  1  0.474700  0.413800  0.415900  1.0
  H  H242  1  0.525300  0.586200  0.584100  1.0
  H  H243  1  0.468800  0.505300  0.371700  1.0
  H  H244  1  0.531200  0.494700  0.628300  1.0
  H  H245  1  0.658700  0.529600  0.549700  1.0
  H  H246  1  0.341300  0.470400  0.450300  1.0
  H  H247  1  0.594600  0.428400  0.526500  1.0
  H  H248  1  0.405400  0.571600  0.473500  1.0
  Pd  Pd249  1  0.914980  0.296370  0.331990  1
  Pd  Pd250  1  0.085020  0.703630  0.668010  1
  Pd  Pd251  1  0.668370  0.113570  0.754190  1
  Pd  Pd252  1  0.331630  0.886430  0.245810  1
  C  C253  1  0.597300  0.207400  0.629100  1
  C  C254  1  0.402700  0.792600  0.370900  1
  C  C255  1  0.669500  0.283500  0.675500  1
  C  C256  1  0.330500  0.716500  0.324500  1
  C  C257  1  0.539900  0.036600  0.614300  1
  C  C258  1  0.460100  0.963400  0.385700  1
  C  C259  1  0.707400  0.101200  0.593500  1
  C  C260  1  0.292600  0.898800  0.406500  1
  C  C261  1  0.768000  0.314000  0.793800  1
  C  C262  1  0.232000  0.686000  0.206200  1
  C  C263  1  0.592900  0.283100  0.799900  1
  C  C264  1  0.407100  0.716900  0.200100  1
  C  C265  1  0.004700  0.154400  0.398100  1
  C  C266  1  0.995300  0.845600  0.601900  1
  C  C267  1  0.957600  0.198600  0.461500  1
  C  C268  1  0.042400  0.801400  0.538500  1
  C  C269  1  0.002300  0.145300  0.260300  1
  C  C270  1  0.997700  0.854700  0.739700  1
  C  C271  1  0.854500  0.089400  0.314000  1
  C  C272  1  0.145500  0.910600  0.686000  1
  C  C273  1  0.059200  0.362900  0.459400  1
  C  C274  1  0.940800  0.637100  0.540600  1
  C  C275  1  0.895200  0.337400  0.496900  1
  C  C276  1  0.104800  0.662600  0.503100  1
  C  C277  1  0.796300  0.110900  0.898100  1
  C  C278  1  0.203700  0.889100  0.101900  1
  C  C279  1  0.647500  0.091400  0.923300  1
  C  C280  1  0.352500  0.908600  0.076700  1
  C  C281  1  0.697900  0.077500  0.987600  1
  C  C282  1  0.302100  0.922500  0.012400  1
  C  C283  1  0.872000  0.069700  0.021600  1
  C  C284  1  0.128000  0.930300  0.978400  1
  C  C285  1  0.871800  0.963100  0.021500  1
  C  C286  1  0.128200  0.036900  0.978500  1
  C  C287  1  0.904800  0.925700  0.085900  1
  C  C288  1  0.095200  0.074300  0.914100  1
  C  C289  1  0.906500  0.830700  0.086700  1
  C  C290  1  0.093500  0.169300  0.913300  1
  C  C291  1  0.873700  0.767500  0.023410  1
  C  C292  1  0.126300  0.232500  0.976590  1
  C  C293  1  0.840900  0.806300  0.959000  1
  C  C294  1  0.159100  0.193700  0.041000  1
  C  C295  1  0.839400  0.902700  0.958200  1
  C  C296  1  0.160600  0.097300  0.041800  1
  C  C297  1  0.873300  0.664600  0.025450  1
  C  C298  1  0.126700  0.335400  0.974550  1
  C  C299  1  0.883700  0.621600  0.093500  1
  C  C300  1  0.116300  0.378400  0.906500  1
  C  C301  1  0.881300  0.525300  0.094900  1
  C  C302  1  0.118700  0.474700  0.905100  1
  C  C303  1  0.872200  0.467300  0.029400  1
  C  C304  1  0.127800  0.532700  0.970600  1
  C  C305  1  0.859500  0.508400  0.960800  1
  C  C306  1  0.140500  0.491600  0.039200  1
  C  C307  1  0.859700  0.604500  0.959000  1
  C  C308  1  0.140300  0.395500  0.041000  1
  C  C309  1  0.876300  0.362700  0.028800  1
  C  C310  1  0.123700  0.637300  0.971200  1
  C  C311  1  0.913000  0.322800  0.162300  1
  C  C312  1  0.087000  0.677200  0.837700  1
  C  C313  1  0.769500  0.261400  0.193400  1
  C  C314  1  0.230500  0.738600  0.806600  1
  C  C315  1  0.761600  0.282400  0.119600  1
  C  C316  1  0.238400  0.717600  0.880400  1
  C  C317  1  0.803200  0.454500  0.342700  1
  C  C318  1  0.196800  0.545500  0.657300  1
  C  C319  1  0.950000  0.511900  0.318200  1
  C  C320  1  0.050000  0.488100  0.681800  1
  C  C321  1  0.900500  0.582700  0.313700  1
  C  C322  1  0.099500  0.417300  0.686300  1
  C  C323  1  0.726600  0.597300  0.329100  1
  C  C324  1  0.273400  0.402700  0.670900  1
  C  C325  1  0.692100  0.614500  0.247800  1
  C  C326  1  0.307900  0.385500  0.752200  1
  C  C327  1  0.649100  0.540700  0.196900  1
  C  C328  1  0.350900  0.459300  0.803100  1
  C  C329  1  0.619200  0.555500  0.123200  1
  C  C330  1  0.380800  0.444500  0.876800  1
  C  C331  1  0.632100  0.649300  0.098500  1
  C  C332  1  0.367900  0.350700  0.901500  1
  C  C333  1  0.675000  0.723100  0.150500  1
  C  C334  1  0.325000  0.276900  0.849500  1
  C  C335  1  0.704900  0.706700  0.224200  1
  C  C336  1  0.295100  0.293300  0.775800  1
  C  C337  1  0.603800  0.666500  0.017700  1
  C  C338  1  0.396200  0.333500  0.982300  1
  C  C339  1  0.614300  0.605400  0.956800  1
  C  C340  1  0.385700  0.394600  0.043200  1
  C  C341  1  0.596300  0.626300  0.883000  1
  C  C342  1  0.403700  0.373700  0.117000  1
  C  C343  1  0.565000  0.708400  0.865700  1
  C  C344  1  0.435000  0.291600  0.134300  1
  C  C345  1  0.550800  0.768600  0.925800  1
  C  C346  1  0.449200  0.231400  0.074200  1
  C  C347  1  0.570200  0.749100  0.001000  1
  C  C348  1  0.429800  0.250900  0.999000  1
  C  C349  1  0.546100  0.731600  0.784500  1
  C  C350  1  0.453900  0.268400  0.215500  1
  C  C351  1  0.587400  0.905900  0.763500  1
  C  C352  1  0.412600  0.094100  0.236500  1
  C  C353  1  0.738400  0.924500  0.742800  1
  C  C354  1  0.261600  0.075500  0.257200  1
  C  C355  1  0.706600  0.831800  0.753000  1
  C  C356  1  0.293400  0.168200  0.247000  1
  C  C357  1  0.712300  0.886600  0.409100  1
  C  C358  1  0.287700  0.113400  0.590900  1
  C  C359  1  0.638900  0.881700  0.477500  1
  C  C360  1  0.361100  0.118300  0.522500  1
  C  C361  1  0.726900  0.784600  0.537400  1
  C  C362  1  0.273100  0.215400  0.462600  1
  C  C363  1  0.798200  0.792200  0.475300  1
  C  C364  1  0.201800  0.207800  0.524700  1
  C  C365  1  0.662000  0.217600  0.625500  1
  C  C366  1  0.338000  0.782400  0.374500  1
  C  C367  1  0.627000  0.281000  0.684300  1
  C  C368  1  0.373000  0.719000  0.315700  1
  C  C369  1  0.520800  0.076500  0.626300  1
  C  C370  1  0.479200  0.923500  0.373700  1
  C  C371  1  0.686000  0.060500  0.594100  1
  C  C372  1  0.314000  0.939500  0.405900  1
  C  C373  1  0.777100  0.306000  0.776000  1
  C  C374  1  0.222900  0.694000  0.224000  1
  C  C375  1  0.629000  0.296000  0.824400  1
  C  C376  1  0.371000  0.704000  0.175600  1
  C  C377  1  0.959000  0.137400  0.407800  1
  C  C378  1  0.041000  0.862600  0.592200  1
  C  C379  1  0.008000  0.218700  0.463100  1
  C  C380  1  0.992000  0.781300  0.536900  1
  C  C381  1  0.029900  0.157000  0.281000  1
  C  C382  1  0.970100  0.843000  0.719000  1
  C  C383  1  0.863000  0.084000  0.299000  1
  C  C384  1  0.137000  0.916000  0.701000  1
  C  C385  1  0.043000  0.384000  0.465000  1
  C  C386  1  0.957000  0.616000  0.535000  1
  C  C387  1  0.881000  0.311000  0.493000  1
  C  C388  1  0.119000  0.689000  0.507000  1
  C  C389  1  0.710600  0.909400  0.436500  1
  C  C390  1  0.289400  0.090600  0.563500  1
  C  C391  1  0.651100  0.802800  0.405100  1
  C  C392  1  0.348900  0.197200  0.594900  1
  C  C393  1  0.715100  0.759300  0.513000  1
  C  C394  1  0.284900  0.240700  0.487000  1
  C  C395  1  0.778600  0.858700  0.532500  1
  C  C396  1  0.221400  0.141300  0.467500  1
  C  C397  1  0.479500  0.482200  0.421800  1.0
  C  C398  1  0.520500  0.517800  0.578200  1.0
  C  C399  1  0.595100  0.496200  0.529000  1.0
  C  C400  1  0.404900  0.503800  0.471000  1.0
  N  N401  1  0.626100  0.114200  0.640380  1
  N  N402  1  0.373900  0.885800  0.359620  1
  N  N403  1  0.673000  0.258800  0.758500  1
  N  N404  1  0.327000  0.741200  0.241500  1
  N  N405  1  0.709300  0.113300  0.867330  1
  N  N406  1  0.290700  0.886700  0.132670  1
  N  N407  1  0.662900  0.971200  0.749200  1
  N  N408  1  0.337100  0.028800  0.250800  1
  N  N409  1  0.610600  0.820600  0.765980  1
  N  N410  1  0.389400  0.179400  0.234020  1
  N  N411  1  0.792700  0.089900  0.971470  1
  N  N412  1  0.207300  0.910100  0.028530  1
  N  N413  1  0.851900  0.320200  0.100300  1
  N  N414  1  0.148100  0.679800  0.899700  1
  N  N415  1  0.865500  0.287700  0.219940  1
  N  N416  1  0.134500  0.712300  0.780060  1
  N  N417  1  0.945500  0.161400  0.325700  1
  N  N418  1  0.054500  0.838600  0.674300  1
  N  N419  1  0.960900  0.302300  0.446540  1
  N  N420  1  0.039100  0.697700  0.553460  1
  N  N421  1  0.888000  0.430900  0.336910  1
  N  N422  1  0.112000  0.569100  0.663090  1
  N  N423  1  0.808100  0.546500  0.329940  1
  N  N424  1  0.191900  0.453500  0.670060  1
  O  O425  1  0.801500  0.870500  0.444000  1
  O  O426  1  0.198500  0.129500  0.556000  1
  O  O427  1  0.634900  0.794900  0.504500  1
  O  O428  1  0.365100  0.205100  0.495500  1
  O  O429  1  0.801900  0.909800  0.477400  1
  O  O430  1  0.198100  0.090200  0.522600  1
  O  O431  1  0.626200  0.761300  0.469600  1
  O  O432  1  0.373800  0.238700  0.530400  1
  O  O433  1  0.574400  0.526200  0.454300  1.0
  O  O434  1  0.425600  0.473800  0.545700  1.0
  F  F435  1  0.070300  0.786400  0.332700  1
  F  F436  1  0.929700  0.213600  0.667300  1
  F  F437  1  0.935500  0.825300  0.291600  1
  F  F438  1  0.064500  0.174700  0.708400  1
  F  F439  1  0.072500  0.892900  0.246500  1
  F  F440  1  0.927500  0.107100  0.753500  1
  F  F441  1  0.051700  0.928000  0.363500  1
  F  F442  1  0.948300  0.072000  0.636500  1
  F  F443  1  0.289500  0.016100  0.846700  1
  F  F444  1  0.710500  0.983900  0.153300  1
  F  F445  1  0.446000  0.093000  0.823000  1
  F  F446  1  0.554000  0.907000  0.177000  1
  F  F447  1  0.366600  0.972200  0.745800  1
  F  F448  1  0.633400  0.027800  0.254200  1
  F  F449  1  0.417800  0.947000  0.862400  1
  F  F450  1  0.582200  0.053000  0.137600  1
  F  F451  1  0.641800  0.264600  0.335300  1
  F  F452  1  0.358200  0.735400  0.664700  1
  F  F453  1  0.543600  0.180100  0.405100  1
  F  F454  1  0.456400  0.819900  0.594900  1
  F  F455  1  0.691600  0.173000  0.408000  1
  F  F456  1  0.308400  0.827000  0.592000  1
  F  F457  1  0.651500  0.298900  0.456500  1
  F  F458  1  0.348500  0.701100  0.543500  1
  F  F459  1  0.188100  0.493700  0.335800  1
  F  F460  1  0.811900  0.506300  0.664200  1
  F  F461  1  0.133300  0.413600  0.231400  1
  F  F462  1  0.866700  0.586400  0.768600  1
  F  F463  1  0.286000  0.461600  0.253000  1
  F  F464  1  0.714000  0.538400  0.747000  1
  F  F465  1  0.209000  0.349100  0.318400  1
  F  F466  1  0.791000  0.650900  0.681600  1
  F  F467  1  0.278100  0.031200  0.816400  1
  F  F468  1  0.721900  0.968800  0.183600  1
  F  F469  1  0.409800  0.068600  0.761100  1
  F  F470  1  0.590200  0.931400  0.238900  1
  F  F471  1  0.418100  0.068100  0.885500  1
  F  F472  1  0.581900  0.931900  0.114500  1
  F  F473  1  0.379300  0.928900  0.815200  1
  F  F474  1  0.620700  0.071100  0.184800  1
