# generated using pymatgen
data_P3H48PtC58
_symmetry_space_group_name_H-M   'P 1'
_cell_length_a   12.67000000
_cell_length_b   12.90400000
_cell_length_c   19.92800000
_cell_angle_alpha   80.81000000
_cell_angle_beta   73.51000000
_cell_angle_gamma   66.65000000
_symmetry_Int_Tables_number   1
_chemical_formula_structural   P3H48PtC58
_chemical_formula_sum   'P6 H96 Pt2 C116'
_cell_volume   2864.10666473
_cell_formula_units_Z   2
loop_
 _symmetry_equiv_pos_site_id
 _symmetry_equiv_pos_as_xyz
  1  'x, y, z'
loop_
 _atom_site_type_symbol
 _atom_site_label
 _atom_site_symmetry_multiplicity
 _atom_site_fract_x
 _atom_site_fract_y
 _atom_site_fract_z
 _atom_site_occupancy
  P  P1  1  0.063640  0.738000  0.745120  1
  P  P2  1  0.936360  0.262000  0.254880  1
  P  P3  1  0.920430  0.617980  0.668970  1
  P  P4  1  0.079570  0.382020  0.331030  1
  P  P5  1  0.709070  0.674270  0.829380  1
  P  P6  1  0.290930  0.325730  0.170620  1
  H  H7  1  0.032190  0.518560  0.863400  1
  H  H8  1  0.967810  0.481440  0.136600  1
  H  H9  1  0.983140  0.485030  0.945640  1
  H  H10  1  0.016860  0.514970  0.054360  1
  H  H11  1  0.912370  0.681940  0.970990  1
  H  H12  1  0.087630  0.318060  0.029010  1
  H  H13  1  0.267960  0.527270  0.761960  1
  H  H14  1  0.732040  0.472730  0.238040  1
  H  H15  1  0.380580  0.457240  0.851260  1
  H  H16  1  0.619420  0.542760  0.148740  1
  H  H17  1  0.325760  0.560940  0.950750  1
  H  H18  1  0.674240  0.439060  0.049250  1
  H  H19  1  0.186760  0.744980  0.957750  1
  H  H20  1  0.813240  0.255020  0.042250  1
  H  H21  1  0.074740  0.823710  0.867630  1
  H  H22  1  0.925260  0.176290  0.132370  1
  H  H23  1  0.186940  0.879560  0.753920  1
  H  H24  1  0.813060  0.120440  0.246080  1
  H  H25  1  0.144010  0.081480  0.734760  1
  H  H26  1  0.855990  0.918520  0.265240  1
  H  H27  1  0.957070  0.207170  0.711380  1
  H  H28  1  0.042930  0.792830  0.288620  1
  H  H29  1  0.814540  0.132650  0.708340  1
  H  H30  1  0.185460  0.867350  0.291660  1
  H  H31  1  0.852370  0.933980  0.730710  1
  H  H32  1  0.147630  0.066020  0.269290  1
  H  H33  1  0.234940  0.529470  0.675750  1
  H  H34  1  0.765060  0.470530  0.324250  1
  H  H35  1  0.387510  0.491890  0.566750  1
  H  H36  1  0.612490  0.508110  0.433250  1
  H  H37  1  0.405910  0.642530  0.486380  1
  H  H38  1  0.594090  0.357470  0.513620  1
  H  H39  1  0.282790  0.831090  0.511640  1
  H  H40  1  0.717210  0.168910  0.488360  1
  H  H41  1  0.132220  0.872040  0.621260  1
  H  H42  1  0.867780  0.127960  0.378740  1
  H  H43  1  0.097550  0.592030  0.529780  1
  H  H44  1  0.902450  0.407970  0.470220  1
  H  H45  1  0.124510  0.727560  0.433840  1
  H  H46  1  0.875490  0.272440  0.566160  1
  H  H47  1  0.999810  0.919890  0.441350  1
  H  H48  1  0.000190  0.080110  0.558650  1
  H  H49  1  0.840090  0.986650  0.545230  1
  H  H50  1  0.159910  0.013350  0.454770  1
  H  H51  1  0.820480  0.851240  0.644660  1
  H  H52  1  0.179520  0.148760  0.355340  1
  H  H53  1  0.075490  0.476130  0.754820  1
  H  H54  1  0.924510  0.523870  0.245180  1
  H  H55  1  0.233640  0.287460  0.744130  1
  H  H56  1  0.766360  0.712540  0.255870  1
  H  H57  1  0.281520  0.185570  0.642700  1
  H  H58  1  0.718480  0.814430  0.357300  1
  H  H59  1  0.176260  0.261890  0.554090  1
  H  H60  1  0.823740  0.738110  0.445910  1
  H  H61  1  0.023550  0.448630  0.561750  1
  H  H62  1  0.976450  0.551370  0.438250  1
  H  H63  1  0.836160  0.436780  0.712760  1
  H  H64  1  0.163840  0.563220  0.287240  1
  H  H65  1  0.691120  0.382550  0.683280  1
  H  H66  1  0.308880  0.617450  0.316720  1
  H  H67  1  0.592350  0.491570  0.595920  1
  H  H68  1  0.407650  0.508430  0.404080  1
  H  H69  1  0.615660  0.662760  0.546820  1
  H  H70  1  0.384340  0.337240  0.453180  1
  H  H71  1  0.752930  0.723390  0.578060  1
  H  H72  1  0.247070  0.276610  0.421940  1
  H  H73  1  0.903990  0.457070  0.820610  1
  H  H74  1  0.096010  0.542930  0.179390  1
  H  H75  1  0.916090  0.264460  0.855360  1
  H  H76  1  0.083910  0.735540  0.144640  1
  H  H77  1  0.736610  0.230170  0.913720  1
  H  H78  1  0.263390  0.769830  0.086280  1
  H  H79  1  0.552000  0.382750  0.941360  1
  H  H80  1  0.448000  0.617250  0.058640  1
  H  H81  1  0.537150  0.573540  0.904540  1
  H  H82  1  0.462850  0.426460  0.095460  1
  H  H83  1  0.721030  0.621020  0.974090  1
  H  H84  1  0.278970  0.378980  0.025910  1
  H  H85  1  0.606800  0.716500  0.082320  1
  H  H86  1  0.393200  0.283500  0.917680  1
  H  H87  1  0.446240  0.886690  0.081280  1
  H  H88  1  0.553760  0.113310  0.918720  1
  H  H89  1  0.380120  0.967900  0.978470  1
  H  H90  1  0.619880  0.032100  0.021530  1
  H  H91  1  0.499020  0.879520  0.865290  1
  H  H92  1  0.500980  0.120480  0.134710  1
  H  H93  1  0.651390  0.877710  0.745690  1
  H  H94  1  0.348610  0.122290  0.254310  1
  H  H95  1  0.507790  0.973110  0.676460  1
  H  H96  1  0.492210  0.026890  0.323540  1
  H  H97  1  0.385080  0.884120  0.661800  1
  H  H98  1  0.614920  0.115880  0.338200  1
  H  H99  1  0.398710  0.701580  0.715830  1
  H  H100  1  0.601290  0.298420  0.284170  1
  H  H101  1  0.536620  0.606820  0.788860  1
  H  H102  1  0.463380  0.393180  0.211140  1
  Pt  Pt103  1  0.891380  0.691740  0.777260  1
  Pt  Pt104  1  0.108620  0.308260  0.222740  1
  C  C105  1  0.991400  0.562400  0.911600  1
  C  C106  1  0.008600  0.437600  0.088400  1
  C  C107  1  0.875600  0.743300  0.874030  1
  C  C108  1  0.124400  0.256700  0.125970  1
  C  C109  1  0.914800  0.678000  0.921700  1
  C  C110  1  0.085200  0.322000  0.078300  1
  C  C111  1  0.799000  0.875200  0.887860  1
  C  C112  1  0.201000  0.124800  0.112140  1
  C  C113  1  0.155000  0.682800  0.809070  1
  C  C114  1  0.845000  0.317200  0.190930  1
  C  C115  1  0.250900  0.574300  0.803560  1
  C  C116  1  0.749100  0.425700  0.196440  1
  C  C117  1  0.313200  0.534700  0.855270  1
  C  C118  1  0.686800  0.465300  0.144730  1
  C  C119  1  0.284900  0.594400  0.911230  1
  C  C120  1  0.715100  0.405600  0.088770  1
  C  C121  1  0.204300  0.696300  0.916170  1
  C  C122  1  0.795700  0.303700  0.083830  1
  C  C123  1  0.137200  0.743500  0.864710  1
  C  C124  1  0.862800  0.256500  0.135290  1
  C  C125  1  0.025200  0.889700  0.741700  1
  C  C126  1  0.974800  0.110300  0.258300  1
  C  C127  1  0.106900  0.933300  0.744330  1
  C  C128  1  0.893100  0.066700  0.255670  1
  C  C129  1  0.082600  0.049400  0.733160  1
  C  C130  1  0.917400  0.950600  0.266840  1
  C  C131  1  0.975200  0.121700  0.719990  1
  C  C132  1  0.024800  0.878300  0.280010  1
  C  C133  1  0.893000  0.080100  0.719240  1
  C  C134  1  0.107000  0.919900  0.280760  1
  C  C135  1  0.916500  0.964300  0.730250  1
  C  C136  1  0.083500  0.035700  0.269750  1
  C  C137  1  0.175100  0.704100  0.659380  1
  C  C138  1  0.824900  0.295900  0.340620  1
  C  C139  1  0.246060  0.594000  0.642380  1
  C  C140  1  0.753940  0.406000  0.357620  1
  C  C141  1  0.333400  0.572400  0.579380  1
  C  C142  1  0.666600  0.427600  0.420620  1
  C  C143  1  0.344500  0.659700  0.532300  1
  C  C144  1  0.655500  0.340300  0.467700  1
  C  C145  1  0.274600  0.764600  0.546550  1
  C  C146  1  0.725400  0.235400  0.453450  1
  C  C147  1  0.186900  0.789100  0.610850  1
  C  C148  1  0.813100  0.210900  0.389150  1
  C  C149  1  0.954300  0.711100  0.594300  1
  C  C150  1  0.045700  0.288900  0.405700  1
  C  C151  1  0.043000  0.675500  0.533670  1
  C  C152  1  0.957000  0.324500  0.466330  1
  C  C153  1  0.058500  0.753500  0.477740  1
  C  C154  1  0.941500  0.246500  0.522260  1
  C  C155  1  0.987000  0.864500  0.482770  1
  C  C156  1  0.013000  0.135500  0.517230  1
  C  C157  1  0.895700  0.903700  0.543310  1
  C  C158  1  0.104300  0.096300  0.456690  1
  C  C159  1  0.882900  0.825000  0.599010  1
  C  C160  1  0.117100  0.175000  0.400990  1
  C  C161  1  0.040100  0.479000  0.658700  1
  C  C162  1  0.959900  0.521000  0.341300  1
  C  C163  1  0.098700  0.431100  0.711250  1
  C  C164  1  0.901300  0.568900  0.288750  1
  C  C165  1  0.189900  0.322100  0.705660  1
  C  C166  1  0.810100  0.677900  0.294340  1
  C  C167  1  0.216200  0.263900  0.647890  1
  C  C168  1  0.783800  0.736100  0.352110  1
  C  C169  1  0.155300  0.307200  0.596270  1
  C  C170  1  0.844700  0.692800  0.403730  1
  C  C171  1  0.068100  0.415000  0.600540  1
  C  C172  1  0.931900  0.585000  0.399460  1
  C  C173  1  0.807000  0.583900  0.646360  1
  C  C174  1  0.193000  0.416100  0.353640  1
  C  C175  1  0.789300  0.484900  0.677600  1
  C  C176  1  0.210700  0.515100  0.322400  1
  C  C177  1  0.704800  0.454600  0.660000  1
  C  C178  1  0.295200  0.545400  0.340000  1
  C  C179  1  0.647000  0.520200  0.610560  1
  C  C180  1  0.353000  0.479800  0.389440  1
  C  C181  1  0.662000  0.613500  0.581750  1
  C  C182  1  0.338000  0.386500  0.418250  1
  C  C183  1  0.742900  0.650000  0.599130  1
  C  C184  1  0.257100  0.350000  0.400870  1
  C  C185  1  0.718900  0.530400  0.857400  1
  C  C186  1  0.281100  0.469600  0.142600  1
  C  C187  1  0.827600  0.440700  0.844880  1
  C  C188  1  0.172400  0.559300  0.155120  1
  C  C189  1  0.836100  0.329500  0.865930  1
  C  C190  1  0.163900  0.670500  0.134070  1
  C  C191  1  0.731800  0.310500  0.900360  1
  C  C192  1  0.268200  0.689500  0.099640  1
  C  C193  1  0.627200  0.397000  0.914680  1
  C  C194  1  0.372800  0.603000  0.085320  1
  C  C195  1  0.618700  0.507500  0.893540  1
  C  C196  1  0.381300  0.492500  0.106460  1
  C  C197  1  0.619600  0.744800  0.911620  1
  C  C198  1  0.380400  0.255200  0.088380  1
  C  C199  1  0.650900  0.695000  0.974510  1
  C  C200  1  0.349100  0.305000  0.025490  1
  C  C201  1  0.584900  0.749700  0.036760  1
  C  C202  1  0.415100  0.250300  0.963240  1
  C  C203  1  0.492000  0.847600  0.035650  1
  C  C204  1  0.508000  0.152400  0.964350  1
  C  C205  1  0.453400  0.896000  0.978080  1
  C  C206  1  0.546600  0.104000  0.021920  1
  C  C207  1  0.521700  0.842200  0.911890  1
  C  C208  1  0.478300  0.157800  0.088110  1
  C  C209  1  0.605700  0.734200  0.772560  1
  C  C210  1  0.394300  0.265800  0.227440  1
  C  C211  1  0.597900  0.840100  0.739930  1
  C  C212  1  0.402100  0.159900  0.260070  1
  C  C213  1  0.514100  0.895600  0.699910  1
  C  C214  1  0.485900  0.104400  0.300090  1
  C  C215  1  0.445100  0.843500  0.691910  1
  C  C216  1  0.554900  0.156500  0.308090  1
  C  C217  1  0.452000  0.738500  0.722870  1
  C  C218  1  0.548000  0.261500  0.277130  1
  C  C219  1  0.531200  0.683600  0.764760  1
  C  C220  1  0.468800  0.316400  0.235240  1
