# generated using pymatgen
data_Fe3H21C27S3N3O19
_symmetry_space_group_name_H-M   'P 1'
_cell_length_a   23.08731925
_cell_length_b   23.08731925
_cell_length_c   23.08731925
_cell_angle_alpha   60.00000000
_cell_angle_beta   60.00000000
_cell_angle_gamma   60.00000000
_symmetry_Int_Tables_number   1
_chemical_formula_structural   Fe3H21C27S3N3O19
_chemical_formula_sum   'Fe12 H84 C108 S12 N12 O76'
_cell_volume   8701.72846692
_cell_formula_units_Z   4
loop_
 _symmetry_equiv_pos_site_id
 _symmetry_equiv_pos_as_xyz
  1  'x, y, z'
loop_
 _atom_site_type_symbol
 _atom_site_label
 _atom_site_symmetry_multiplicity
 _atom_site_fract_x
 _atom_site_fract_y
 _atom_site_fract_z
 _atom_site_occupancy
  C  C1  1  0.218860  0.841240  0.841240  1.0
  C  C2  1  0.098660  0.841240  0.841240  1.0
  C  C3  1  0.841240  0.098660  0.218860  1.0
  C  C4  1  0.841240  0.218860  0.098660  1.0
  C  C5  1  0.841240  0.841240  0.218860  1.0
  C  C6  1  0.841240  0.841240  0.098660  1.0
  C  C7  1  0.098660  0.218860  0.841240  1.0
  C  C8  1  0.218860  0.098660  0.841240  1.0
  C  C9  1  0.841240  0.218860  0.841240  1.0
  C  C10  1  0.841240  0.098660  0.841240  1.0
  C  C11  1  0.218860  0.841240  0.098660  1.0
  C  C12  1  0.098660  0.841240  0.218860  1.0
  C  C13  1  0.283810  0.841510  0.841510  1.0
  C  C14  1  0.033170  0.841510  0.841510  1.0
  C  C15  1  0.841510  0.033170  0.283810  1.0
  C  C16  1  0.841510  0.283810  0.033170  1.0
  C  C17  1  0.841510  0.841510  0.283810  1.0
  C  C18  1  0.841510  0.841510  0.033170  1.0
  C  C19  1  0.033170  0.283810  0.841510  1.0
  C  C20  1  0.283810  0.033170  0.841510  1.0
  C  C21  1  0.841510  0.283810  0.841510  1.0
  C  C22  1  0.841510  0.033170  0.841510  1.0
  C  C23  1  0.283810  0.841510  0.033170  1.0
  C  C24  1  0.033170  0.841510  0.283810  1.0
  C  C25  1  0.370700  0.534500  0.047400  1.0
  C  C26  1  0.047400  0.047400  0.534500  1.0
  C  C27  1  0.047400  0.047400  0.370700  1.0
  C  C28  1  0.534500  0.370700  0.047400  1.0
  C  C29  1  0.534500  0.047400  0.370700  1.0
  C  C30  1  0.047400  0.534500  0.047400  1.0
  C  C31  1  0.047400  0.370700  0.047400  1.0
  C  C32  1  0.370700  0.047400  0.534500  1.0
  C  C33  1  0.047400  0.370700  0.534500  1.0
  C  C34  1  0.534500  0.047400  0.047400  1.0
  C  C35  1  0.370700  0.047400  0.047400  1.0
  C  C36  1  0.047400  0.534500  0.370700  1.0
  C  C37  1  0.189900  0.892020  0.788200  1.0
  C  C38  1  0.129880  0.788200  0.892020  1.0
  C  C39  1  0.788200  0.129880  0.189900  1.0
  C  C40  1  0.892020  0.189900  0.129880  1.0
  C  C41  1  0.892020  0.788200  0.189900  1.0
  C  C42  1  0.788200  0.892020  0.129880  1.0
  C  C43  1  0.129880  0.189900  0.788200  1.0
  C  C44  1  0.189900  0.129880  0.892020  1.0
  C  C45  1  0.788200  0.189900  0.892020  1.0
  C  C46  1  0.892020  0.129880  0.788200  1.0
  C  C47  1  0.189900  0.788200  0.129880  1.0
  C  C48  1  0.129880  0.892020  0.189900  1.0
  C  C49  1  0.189900  0.788200  0.892020  1.0
  C  C50  1  0.129880  0.892020  0.788200  1.0
  C  C51  1  0.788200  0.189900  0.129880  1.0
  C  C52  1  0.892020  0.129880  0.189900  1.0
  C  C53  1  0.892020  0.189900  0.788200  1.0
  C  C54  1  0.788200  0.129880  0.892020  1.0
  C  C55  1  0.129880  0.788200  0.189900  1.0
  C  C56  1  0.189900  0.892020  0.129880  1.0
  C  C57  1  0.788200  0.892020  0.189900  1.0
  C  C58  1  0.892020  0.788200  0.129880  1.0
  C  C59  1  0.189900  0.129880  0.788200  1.0
  C  C60  1  0.129880  0.189900  0.892020  1.0
  C  C61  1  0.376460  0.634640  0.944560  1.0
  C  C62  1  0.044340  0.944560  0.634640  1.0
  C  C63  1  0.944560  0.044340  0.376460  1.0
  C  C64  1  0.634640  0.376460  0.044340  1.0
  C  C65  1  0.634640  0.944560  0.376460  1.0
  C  C66  1  0.944560  0.634640  0.044340  1.0
  C  C67  1  0.044340  0.376460  0.944560  1.0
  C  C68  1  0.376460  0.044340  0.634640  1.0
  C  C69  1  0.944560  0.376460  0.634640  1.0
  C  C70  1  0.634640  0.044340  0.944560  1.0
  C  C71  1  0.376460  0.944560  0.044340  1.0
  C  C72  1  0.044340  0.634640  0.376460  1.0
  C  C73  1  0.376460  0.944560  0.634640  1.0
  C  C74  1  0.044340  0.634640  0.944560  1.0
  C  C75  1  0.944560  0.376460  0.044340  1.0
  C  C76  1  0.634640  0.044340  0.376460  1.0
  C  C77  1  0.634640  0.376460  0.944560  1.0
  C  C78  1  0.944560  0.044340  0.634640  1.0
  C  C79  1  0.044340  0.944560  0.376460  1.0
  C  C80  1  0.376460  0.634640  0.044340  1.0
  C  C81  1  0.944560  0.634640  0.376460  1.0
  C  C82  1  0.634640  0.944560  0.044340  1.0
  C  C83  1  0.376460  0.044340  0.944560  1.0
  C  C84  1  0.044340  0.376460  0.634640  1.0
  C  C85  1  0.372090  0.567130  0.977430  1.0
  C  C86  1  0.083350  0.977430  0.567130  1.0
  C  C87  1  0.977430  0.083350  0.372090  1.0
  C  C88  1  0.567130  0.372090  0.083350  1.0
  C  C89  1  0.567130  0.977430  0.372090  1.0
  C  C90  1  0.977430  0.567130  0.083350  1.0
  C  C91  1  0.083350  0.372090  0.977430  1.0
  C  C92  1  0.372090  0.083350  0.567130  1.0
  C  C93  1  0.977430  0.372090  0.567130  1.0
  C  C94  1  0.567130  0.083350  0.977430  1.0
  C  C95  1  0.372090  0.977430  0.083350  1.0
  C  C96  1  0.083350  0.567130  0.372090  1.0
  C  C97  1  0.372090  0.977430  0.567130  1.0
  C  C98  1  0.083350  0.567130  0.977430  1.0
  C  C99  1  0.977430  0.372090  0.083350  1.0
  C  C100  1  0.567130  0.083350  0.372090  1.0
  C  C101  1  0.567130  0.372090  0.977430  1.0
  C  C102  1  0.977430  0.083350  0.567130  1.0
  C  C103  1  0.083350  0.977430  0.372090  1.0
  C  C104  1  0.372090  0.567130  0.083350  1.0
  C  C105  1  0.977430  0.567130  0.372090  1.0
  C  C106  1  0.567130  0.977430  0.083350  1.0
  C  C107  1  0.372090  0.083350  0.977430  1.0
  C  C108  1  0.083350  0.372090  0.567130  1.0
  Fe  Fe109  1  0.386054  0.775218  0.919364  1.0
  Fe  Fe110  1  0.919364  0.919364  0.775218  1.0
  Fe  Fe111  1  0.919364  0.919364  0.386054  1.0
  Fe  Fe112  1  0.775218  0.386054  0.919364  1.0
  Fe  Fe113  1  0.775218  0.919364  0.386054  1.0
  Fe  Fe114  1  0.919364  0.775218  0.919364  1.0
  Fe  Fe115  1  0.919364  0.386054  0.919364  1.0
  Fe  Fe116  1  0.386054  0.919364  0.775218  1.0
  Fe  Fe117  1  0.919364  0.386054  0.775218  1.0
  Fe  Fe118  1  0.775218  0.919364  0.919364  1.0
  Fe  Fe119  1  0.386054  0.919364  0.919364  1.0
  Fe  Fe120  1  0.919364  0.775218  0.386054  1.0
  H  H121  1  0.368700  0.488700  0.071300  1.0
  H  H122  1  0.071300  0.071300  0.488700  1.0
  H  H123  1  0.071300  0.071300  0.368700  1.0
  H  H124  1  0.488700  0.368700  0.071300  1.0
  H  H125  1  0.488700  0.071300  0.368700  1.0
  H  H126  1  0.071300  0.488700  0.071300  1.0
  H  H127  1  0.071300  0.368700  0.071300  1.0
  H  H128  1  0.368700  0.071300  0.488700  1.0
  H  H129  1  0.071300  0.368700  0.488700  1.0
  H  H130  1  0.488700  0.071300  0.071300  1.0
  H  H131  1  0.368700  0.071300  0.071300  1.0
  H  H132  1  0.071300  0.488700  0.368700  1.0
  H  H133  1  0.210900  0.926100  0.752500  1.0
  H  H134  1  0.110500  0.752500  0.926100  1.0
  H  H135  1  0.752500  0.110500  0.210900  1.0
  H  H136  1  0.926100  0.210900  0.110500  1.0
  H  H137  1  0.926100  0.752500  0.210900  1.0
  H  H138  1  0.752500  0.926100  0.110500  1.0
  H  H139  1  0.110500  0.210900  0.752500  1.0
  H  H140  1  0.210900  0.110500  0.926100  1.0
  H  H141  1  0.752500  0.210900  0.926100  1.0
  H  H142  1  0.926100  0.110500  0.752500  1.0
  H  H143  1  0.210900  0.752500  0.110500  1.0
  H  H144  1  0.110500  0.926100  0.210900  1.0
  H  H145  1  0.210900  0.752500  0.926100  1.0
  H  H146  1  0.110500  0.926100  0.752500  1.0
  H  H147  1  0.752500  0.210900  0.110500  1.0
  H  H148  1  0.926100  0.110500  0.210900  1.0
  H  H149  1  0.926100  0.210900  0.752500  1.0
  H  H150  1  0.752500  0.110500  0.926100  1.0
  H  H151  1  0.110500  0.752500  0.210900  1.0
  H  H152  1  0.210900  0.926100  0.110500  1.0
  H  H153  1  0.752500  0.926100  0.210900  1.0
  H  H154  1  0.926100  0.752500  0.110500  1.0
  H  H155  1  0.210900  0.110500  0.752500  1.0
  H  H156  1  0.110500  0.210900  0.926100  1.0
  H  H157  1  0.378000  0.658000  0.897600  1.0
  H  H158  1  0.066400  0.897600  0.658000  1.0
  H  H159  1  0.897600  0.066400  0.378000  1.0
  H  H160  1  0.658000  0.378000  0.066400  1.0
  H  H161  1  0.658000  0.897600  0.378000  1.0
  H  H162  1  0.897600  0.658000  0.066400  1.0
  H  H163  1  0.066400  0.378000  0.897600  1.0
  H  H164  1  0.378000  0.066400  0.658000  1.0
  H  H165  1  0.897600  0.378000  0.658000  1.0
  H  H166  1  0.658000  0.066400  0.897600  1.0
  H  H167  1  0.378000  0.897600  0.066400  1.0
  H  H168  1  0.066400  0.658000  0.378000  1.0
  H  H169  1  0.378000  0.897600  0.658000  1.0
  H  H170  1  0.066400  0.658000  0.897600  1.0
  H  H171  1  0.897600  0.378000  0.066400  1.0
  H  H172  1  0.658000  0.066400  0.378000  1.0
  H  H173  1  0.658000  0.378000  0.897600  1.0
  H  H174  1  0.897600  0.066400  0.658000  1.0
  H  H175  1  0.066400  0.897600  0.378000  1.0
  H  H176  1  0.378000  0.658000  0.066400  1.0
  H  H177  1  0.897600  0.658000  0.378000  1.0
  H  H178  1  0.658000  0.897600  0.066400  1.0
  H  H179  1  0.378000  0.066400  0.897600  1.0
  H  H180  1  0.066400  0.378000  0.658000  1.0
  H  H181  1  0.370100  0.545100  0.954300  1.0
  H  H182  1  0.130500  0.954300  0.545100  1.0
  H  H183  1  0.954300  0.130500  0.370100  1.0
  H  H184  1  0.545100  0.370100  0.130500  1.0
  H  H185  1  0.545100  0.954300  0.370100  1.0
  H  H186  1  0.954300  0.545100  0.130500  1.0
  H  H187  1  0.130500  0.370100  0.954300  1.0
  H  H188  1  0.370100  0.130500  0.545100  1.0
  H  H189  1  0.954300  0.370100  0.545100  1.0
  H  H190  1  0.545100  0.130500  0.954300  1.0
  H  H191  1  0.370100  0.954300  0.130500  1.0
  H  H192  1  0.130500  0.545100  0.370100  1.0
  H  H193  1  0.370100  0.954300  0.545100  1.0
  H  H194  1  0.130500  0.545100  0.954300  1.0
  H  H195  1  0.954300  0.370100  0.130500  1.0
  H  H196  1  0.545100  0.130500  0.370100  1.0
  H  H197  1  0.545100  0.370100  0.954300  1.0
  H  H198  1  0.954300  0.130500  0.545100  1.0
  H  H199  1  0.130500  0.954300  0.370100  1.0
  H  H200  1  0.370100  0.545100  0.130500  1.0
  H  H201  1  0.954300  0.545100  0.370100  1.0
  H  H202  1  0.545100  0.954300  0.130500  1.0
  H  H203  1  0.370100  0.130500  0.954300  1.0
  H  H204  1  0.130500  0.370100  0.545100  1.0
  N  N205  1  0.378660  0.668340  0.976500  1.0
  N  N206  1  0.976500  0.976500  0.668340  1.0
  N  N207  1  0.976500  0.976500  0.378660  1.0
  N  N208  1  0.668340  0.378660  0.976500  1.0
  N  N209  1  0.668340  0.976500  0.378660  1.0
  N  N210  1  0.976500  0.668340  0.976500  1.0
  N  N211  1  0.976500  0.378660  0.976500  1.0
  N  N212  1  0.378660  0.976500  0.668340  1.0
  N  N213  1  0.976500  0.378660  0.668340  1.0
  N  N214  1  0.668340  0.976500  0.976500  1.0
  N  N215  1  0.378660  0.976500  0.976500  1.0
  N  N216  1  0.976500  0.668340  0.378660  1.0
  O  O217  1  0.388290  0.870570  0.870570  1.0
  O  O218  1  0.870570  0.870570  0.870570  1.0
  O  O219  1  0.870570  0.870570  0.388290  1.0
  O  O220  1  0.870570  0.388290  0.870570  1.0
  O  O221  1  0.552220  0.731580  0.731580  1.0
  O  O222  1  0.984620  0.731580  0.731580  1.0
  O  O223  1  0.731580  0.984620  0.552220  1.0
  O  O224  1  0.731580  0.552220  0.984620  1.0
  O  O225  1  0.731580  0.731580  0.552220  1.0
  O  O226  1  0.731580  0.731580  0.984620  1.0
  O  O227  1  0.984620  0.552220  0.731580  1.0
  O  O228  1  0.552220  0.984620  0.731580  1.0
  O  O229  1  0.731580  0.552220  0.731580  1.0
  O  O230  1  0.731580  0.984620  0.731580  1.0
  O  O231  1  0.552220  0.731580  0.984620  1.0
  O  O232  1  0.984620  0.731580  0.552220  1.0
  O  O233  1  0.434960  0.746520  0.746520  1.0
  O  O234  1  0.072000  0.746520  0.746520  1.0
  O  O235  1  0.746520  0.072000  0.434960  1.0
  O  O236  1  0.746520  0.434960  0.072000  1.0
  O  O237  1  0.746520  0.746520  0.434960  1.0
  O  O238  1  0.746520  0.746520  0.072000  1.0
  O  O239  1  0.072000  0.434960  0.746520  1.0
  O  O240  1  0.434960  0.072000  0.746520  1.0
  O  O241  1  0.746520  0.434960  0.746520  1.0
  O  O242  1  0.746520  0.072000  0.746520  1.0
  O  O243  1  0.434960  0.746520  0.072000  1.0
  O  O244  1  0.072000  0.746520  0.434960  1.0
  O  O245  1  0.460320  0.737040  0.841300  1.0
  O  O246  1  0.961340  0.841300  0.737040  1.0
  O  O247  1  0.841300  0.961340  0.460320  1.0
  O  O248  1  0.737040  0.460320  0.961340  1.0
  O  O249  1  0.737040  0.841300  0.460320  1.0
  O  O250  1  0.841300  0.737040  0.961340  1.0
  O  O251  1  0.961340  0.460320  0.841300  1.0
  O  O252  1  0.460320  0.961340  0.737040  1.0
  O  O253  1  0.841300  0.460320  0.737040  1.0
  O  O254  1  0.737040  0.961340  0.841300  1.0
  O  O255  1  0.460320  0.841300  0.961340  1.0
  O  O256  1  0.961340  0.737040  0.460320  1.0
  O  O257  1  0.460320  0.841300  0.737040  1.0
  O  O258  1  0.961340  0.737040  0.841300  1.0
  O  O259  1  0.841300  0.460320  0.961340  1.0
  O  O260  1  0.737040  0.961340  0.460320  1.0
  O  O261  1  0.737040  0.460320  0.841300  1.0
  O  O262  1  0.841300  0.961340  0.737040  1.0
  O  O263  1  0.961340  0.841300  0.460320  1.0
  O  O264  1  0.460320  0.737040  0.961340  1.0
  O  O265  1  0.841300  0.737040  0.460320  1.0
  O  O266  1  0.737040  0.841300  0.961340  1.0
  O  O267  1  0.460320  0.961340  0.841300  1.0
  O  O268  1  0.961340  0.460320  0.737040  1.0
  O  O269  1  0.307870  0.793870  0.890810  1.0
  O  O270  1  0.007450  0.890810  0.793870  1.0
  O  O271  1  0.890810  0.007450  0.307870  1.0
  O  O272  1  0.793870  0.307870  0.007450  1.0
  O  O273  1  0.793870  0.890810  0.307870  1.0
  O  O274  1  0.890810  0.793870  0.007450  1.0
  O  O275  1  0.007450  0.307870  0.890810  1.0
  O  O276  1  0.307870  0.007450  0.793870  1.0
  O  O277  1  0.890810  0.307870  0.793870  1.0
  O  O278  1  0.793870  0.007450  0.890810  1.0
  O  O279  1  0.307870  0.890810  0.007450  1.0
  O  O280  1  0.007450  0.793870  0.307870  1.0
  O  O281  1  0.307870  0.890810  0.793870  1.0
  O  O282  1  0.007450  0.793870  0.890810  1.0
  O  O283  1  0.890810  0.307870  0.007450  1.0
  O  O284  1  0.793870  0.007450  0.307870  1.0
  O  O285  1  0.793870  0.307870  0.890810  1.0
  O  O286  1  0.890810  0.007450  0.793870  1.0
  O  O287  1  0.007450  0.890810  0.307870  1.0
  O  O288  1  0.307870  0.793870  0.007450  1.0
  O  O289  1  0.890810  0.793870  0.307870  1.0
  O  O290  1  0.793870  0.890810  0.007450  1.0
  O  O291  1  0.307870  0.007450  0.890810  1.0
  O  O292  1  0.007450  0.307870  0.793870  1.0
  S  S293  1  0.476900  0.763160  0.763160  1.0
  S  S294  1  0.996780  0.763160  0.763160  1.0
  S  S295  1  0.763160  0.996780  0.476900  1.0
  S  S296  1  0.763160  0.476900  0.996780  1.0
  S  S297  1  0.763160  0.763160  0.476900  1.0
  S  S298  1  0.763160  0.763160  0.996780  1.0
  S  S299  1  0.996780  0.476900  0.763160  1.0
  S  S300  1  0.476900  0.996780  0.763160  1.0
  S  S301  1  0.763160  0.476900  0.763160  1.0
  S  S302  1  0.763160  0.996780  0.763160  1.0
  S  S303  1  0.476900  0.763160  0.996780  1.0
  S  S304  1  0.996780  0.763160  0.476900  1.0
