# generated using pymatgen
data_Fe6H54C75S6N9O38
_symmetry_space_group_name_H-M   'P 1'
_cell_length_a   27.22926793
_cell_length_b   27.22926793
_cell_length_c   27.22926793
_cell_angle_alpha   60.00000000
_cell_angle_beta   60.00000000
_cell_angle_gamma   60.00000000
_symmetry_Int_Tables_number   1
_chemical_formula_structural   Fe6H54C75S6N9O38
_chemical_formula_sum   'Fe12 H108 C150 S12 N18 O76'
_cell_volume   14275.55159813
_cell_formula_units_Z   2
loop_
 _symmetry_equiv_pos_site_id
 _symmetry_equiv_pos_as_xyz
  1  'x, y, z'
loop_
 _atom_site_type_symbol
 _atom_site_label
 _atom_site_symmetry_multiplicity
 _atom_site_fract_x
 _atom_site_fract_y
 _atom_site_fract_z
 _atom_site_occupancy
  C  C1  1  0.890400  0.609600  0.890400  1
  C  C2  1  0.609600  0.890400  0.609600  1
  C  C3  1  0.609600  0.890400  0.890400  1
  C  C4  1  0.890400  0.609600  0.609600  1
  C  C5  1  0.890400  0.890400  0.609600  1
  C  C6  1  0.609600  0.609600  0.890400  1
  C  C7  1  0.993800  0.356200  0.825000  1.0
  C  C8  1  0.825000  0.825000  0.356200  1.0
  C  C9  1  0.825000  0.825000  0.993800  1.0
  C  C10  1  0.356200  0.993800  0.825000  1.0
  C  C11  1  0.356200  0.825000  0.993800  1.0
  C  C12  1  0.825000  0.356200  0.825000  1.0
  C  C13  1  0.825000  0.993800  0.825000  1.0
  C  C14  1  0.993800  0.825000  0.356200  1.0
  C  C15  1  0.825000  0.993800  0.356200  1.0
  C  C16  1  0.356200  0.825000  0.825000  1.0
  C  C17  1  0.993800  0.825000  0.825000  1.0
  C  C18  1  0.825000  0.356200  0.993800  1.0
  C  C19  1  0.044100  0.308900  0.823500  1.0
  C  C20  1  0.823500  0.823500  0.308900  1.0
  C  C21  1  0.823500  0.823500  0.044100  1.0
  C  C22  1  0.308900  0.044100  0.823500  1.0
  C  C23  1  0.308900  0.823500  0.044100  1.0
  C  C24  1  0.823500  0.308900  0.823500  1.0
  C  C25  1  0.823500  0.044100  0.823500  1.0
  C  C26  1  0.044100  0.823500  0.308900  1.0
  C  C27  1  0.823500  0.044100  0.308900  1.0
  C  C28  1  0.308900  0.823500  0.823500  1.0
  C  C29  1  0.044100  0.823500  0.823500  1.0
  C  C30  1  0.823500  0.308900  0.044100  1.0
  C  C31  1  0.151000  0.206200  0.821400  1.0
  C  C32  1  0.821400  0.821400  0.206200  1.0
  C  C33  1  0.821400  0.821400  0.151000  1.0
  C  C34  1  0.206200  0.151000  0.821400  1.0
  C  C35  1  0.206200  0.821400  0.151000  1.0
  C  C36  1  0.821400  0.206200  0.821400  1.0
  C  C37  1  0.821400  0.151000  0.821400  1.0
  C  C38  1  0.151000  0.821400  0.206200  1.0
  C  C39  1  0.821400  0.151000  0.206200  1.0
  C  C40  1  0.206200  0.821400  0.821400  1.0
  C  C41  1  0.151000  0.821400  0.821400  1.0
  C  C42  1  0.821400  0.206200  0.151000  1.0
  C  C43  1  0.000400  0.436800  0.562400  1.0
  C  C44  1  0.000400  0.562400  0.436800  1.0
  C  C45  1  0.562400  0.000400  0.000400  1.0
  C  C46  1  0.436800  0.000400  0.000400  1.0
  C  C47  1  0.436800  0.562400  0.000400  1.0
  C  C48  1  0.562400  0.436800  0.000400  1.0
  C  C49  1  0.000400  0.000400  0.562400  1.0
  C  C50  1  0.000400  0.000400  0.436800  1.0
  C  C51  1  0.562400  0.000400  0.436800  1.0
  C  C52  1  0.436800  0.000400  0.562400  1.0
  C  C53  1  0.000400  0.562400  0.000400  1.0
  C  C54  1  0.000400  0.436800  0.000400  1.0
  C  C55  1  0.069000  0.280800  0.785600  1.0
  C  C56  1  0.864600  0.785600  0.280800  1.0
  C  C57  1  0.785600  0.864600  0.069000  1.0
  C  C58  1  0.280800  0.069000  0.864600  1.0
  C  C59  1  0.280800  0.785600  0.069000  1.0
  C  C60  1  0.785600  0.280800  0.864600  1.0
  C  C61  1  0.864600  0.069000  0.785600  1.0
  C  C62  1  0.069000  0.864600  0.280800  1.0
  C  C63  1  0.785600  0.069000  0.280800  1.0
  C  C64  1  0.280800  0.864600  0.785600  1.0
  C  C65  1  0.069000  0.785600  0.864600  1.0
  C  C66  1  0.864600  0.280800  0.069000  1.0
  C  C67  1  0.069000  0.785600  0.280800  1.0
  C  C68  1  0.864600  0.280800  0.785600  1.0
  C  C69  1  0.785600  0.069000  0.864600  1.0
  C  C70  1  0.280800  0.864600  0.069000  1.0
  C  C71  1  0.280800  0.069000  0.785600  1.0
  C  C72  1  0.785600  0.864600  0.280800  1.0
  C  C73  1  0.864600  0.785600  0.069000  1.0
  C  C74  1  0.069000  0.280800  0.864600  1.0
  C  C75  1  0.785600  0.280800  0.069000  1.0
  C  C76  1  0.280800  0.785600  0.864600  1.0
  C  C77  1  0.069000  0.864600  0.785600  1.0
  C  C78  1  0.864600  0.069000  0.280800  1.0
  C  C79  1  0.124600  0.231200  0.779000  1.0
  C  C80  1  0.865200  0.779000  0.231200  1.0
  C  C81  1  0.779000  0.865200  0.124600  1.0
  C  C82  1  0.231200  0.124600  0.865200  1.0
  C  C83  1  0.231200  0.779000  0.124600  1.0
  C  C84  1  0.779000  0.231200  0.865200  1.0
  C  C85  1  0.865200  0.124600  0.779000  1.0
  C  C86  1  0.124600  0.865200  0.231200  1.0
  C  C87  1  0.779000  0.124600  0.231200  1.0
  C  C88  1  0.231200  0.865200  0.779000  1.0
  C  C89  1  0.124600  0.779000  0.865200  1.0
  C  C90  1  0.865200  0.231200  0.124600  1.0
  C  C91  1  0.124600  0.779000  0.231200  1.0
  C  C92  1  0.865200  0.231200  0.779000  1.0
  C  C93  1  0.779000  0.124600  0.865200  1.0
  C  C94  1  0.231200  0.865200  0.124600  1.0
  C  C95  1  0.231200  0.124600  0.779000  1.0
  C  C96  1  0.779000  0.865200  0.231200  1.0
  C  C97  1  0.865200  0.779000  0.124600  1.0
  C  C98  1  0.124600  0.231200  0.865200  1.0
  C  C99  1  0.779000  0.231200  0.124600  1.0
  C  C100  1  0.231200  0.779000  0.865200  1.0
  C  C101  1  0.124600  0.865200  0.779000  1.0
  C  C102  1  0.865200  0.124600  0.231200  1.0
  C  C103  1  0.915100  0.437100  0.651700  1.0
  C  C104  1  0.996100  0.651700  0.437100  1.0
  C  C105  1  0.651700  0.996100  0.915100  1.0
  C  C106  1  0.437100  0.915100  0.996100  1.0
  C  C107  1  0.437100  0.651700  0.915100  1.0
  C  C108  1  0.651700  0.437100  0.996100  1.0
  C  C109  1  0.996100  0.915100  0.651700  1.0
  C  C110  1  0.915100  0.996100  0.437100  1.0
  C  C111  1  0.651700  0.915100  0.437100  1.0
  C  C112  1  0.437100  0.996100  0.651700  1.0
  C  C113  1  0.915100  0.651700  0.996100  1.0
  C  C114  1  0.996100  0.437100  0.915100  1.0
  C  C115  1  0.915100  0.651700  0.437100  1.0
  C  C116  1  0.996100  0.437100  0.651700  1.0
  C  C117  1  0.651700  0.915100  0.996100  1.0
  C  C118  1  0.437100  0.996100  0.915100  1.0
  C  C119  1  0.437100  0.915100  0.651700  1.0
  C  C120  1  0.651700  0.996100  0.437100  1.0
  C  C121  1  0.996100  0.651700  0.915100  1.0
  C  C122  1  0.915100  0.437100  0.996100  1.0
  C  C123  1  0.651700  0.437100  0.915100  1.0
  C  C124  1  0.437100  0.651700  0.996100  1.0
  C  C125  1  0.915100  0.996100  0.651700  1.0
  C  C126  1  0.996100  0.915100  0.437100  1.0
  C  C127  1  0.943400  0.434600  0.590200  1.0
  C  C128  1  0.031800  0.590200  0.434600  1.0
  C  C129  1  0.590200  0.031800  0.943400  1.0
  C  C130  1  0.434600  0.943400  0.031800  1.0
  C  C131  1  0.434600  0.590200  0.943400  1.0
  C  C132  1  0.590200  0.434600  0.031800  1.0
  C  C133  1  0.031800  0.943400  0.590200  1.0
  C  C134  1  0.943400  0.031800  0.434600  1.0
  C  C135  1  0.590200  0.943400  0.434600  1.0
  C  C136  1  0.434600  0.031800  0.590200  1.0
  C  C137  1  0.943400  0.590200  0.031800  1.0
  C  C138  1  0.031800  0.434600  0.943400  1.0
  C  C139  1  0.943400  0.590200  0.434600  1.0
  C  C140  1  0.031800  0.434600  0.590200  1.0
  C  C141  1  0.590200  0.943400  0.031800  1.0
  C  C142  1  0.434600  0.031800  0.943400  1.0
  C  C143  1  0.434600  0.943400  0.590200  1.0
  C  C144  1  0.590200  0.031800  0.434600  1.0
  C  C145  1  0.031800  0.590200  0.943400  1.0
  C  C146  1  0.943400  0.434600  0.031800  1.0
  C  C147  1  0.590200  0.434600  0.943400  1.0
  C  C148  1  0.434600  0.590200  0.031800  1.0
  C  C149  1  0.943400  0.031800  0.590200  1.0
  C  C150  1  0.031800  0.943400  0.434600  1.0
  Fe  Fe151  1  0.892410  0.444770  0.770410  1.0
  Fe  Fe152  1  0.892410  0.770410  0.444770  1.0
  Fe  Fe153  1  0.770410  0.892410  0.892410  1.0
  Fe  Fe154  1  0.444770  0.892410  0.892410  1.0
  Fe  Fe155  1  0.444770  0.770410  0.892410  1.0
  Fe  Fe156  1  0.770410  0.444770  0.892410  1.0
  Fe  Fe157  1  0.892410  0.892410  0.770410  1.0
  Fe  Fe158  1  0.892410  0.892410  0.444770  1.0
  Fe  Fe159  1  0.770410  0.892410  0.444770  1.0
  Fe  Fe160  1  0.444770  0.892410  0.770410  1.0
  Fe  Fe161  1  0.892410  0.770410  0.892410  1.0
  Fe  Fe162  1  0.892410  0.444770  0.892410  1.0
  H  H163  1  0.019300  0.440300  0.521100  1.0
  H  H164  1  0.019300  0.521100  0.440300  1.0
  H  H165  1  0.521100  0.019300  0.019300  1.0
  H  H166  1  0.440300  0.019300  0.019300  1.0
  H  H167  1  0.440300  0.521100  0.019300  1.0
  H  H168  1  0.521100  0.440300  0.019300  1.0
  H  H169  1  0.019300  0.019300  0.521100  1.0
  H  H170  1  0.019300  0.019300  0.440300  1.0
  H  H171  1  0.521100  0.019300  0.440300  1.0
  H  H172  1  0.440300  0.019300  0.521100  1.0
  H  H173  1  0.019300  0.521100  0.019300  1.0
  H  H174  1  0.019300  0.440300  0.019300  1.0
  H  H175  1  0.048300  0.294700  0.759100  1.0
  H  H176  1  0.897900  0.759100  0.294700  1.0
  H  H177  1  0.759100  0.897900  0.048300  1.0
  H  H178  1  0.294700  0.048300  0.897900  1.0
  H  H179  1  0.294700  0.759100  0.048300  1.0
  H  H180  1  0.759100  0.294700  0.897900  1.0
  H  H181  1  0.897900  0.048300  0.759100  1.0
  H  H182  1  0.048300  0.897900  0.294700  1.0
  H  H183  1  0.759100  0.048300  0.294700  1.0
  H  H184  1  0.294700  0.897900  0.759100  1.0
  H  H185  1  0.048300  0.759100  0.897900  1.0
  H  H186  1  0.897900  0.294700  0.048300  1.0
  H  H187  1  0.048300  0.759100  0.294700  1.0
  H  H188  1  0.897900  0.294700  0.759100  1.0
  H  H189  1  0.759100  0.048300  0.897900  1.0
  H  H190  1  0.294700  0.897900  0.048300  1.0
  H  H191  1  0.294700  0.048300  0.759100  1.0
  H  H192  1  0.759100  0.897900  0.294700  1.0
  H  H193  1  0.897900  0.759100  0.048300  1.0
  H  H194  1  0.048300  0.294700  0.897900  1.0
  H  H195  1  0.759100  0.294700  0.048300  1.0
  H  H196  1  0.294700  0.759100  0.897900  1.0
  H  H197  1  0.048300  0.897900  0.759100  1.0
  H  H198  1  0.897900  0.048300  0.294700  1.0
  H  H199  1  0.142100  0.216500  0.746700  1.0
  H  H200  1  0.894700  0.746700  0.216500  1.0
  H  H201  1  0.746700  0.894700  0.142100  1.0
  H  H202  1  0.216500  0.142100  0.894700  1.0
  H  H203  1  0.216500  0.746700  0.142100  1.0
  H  H204  1  0.746700  0.216500  0.894700  1.0
  H  H205  1  0.894700  0.142100  0.746700  1.0
  H  H206  1  0.142100  0.894700  0.216500  1.0
  H  H207  1  0.746700  0.142100  0.216500  1.0
  H  H208  1  0.216500  0.894700  0.746700  1.0
  H  H209  1  0.142100  0.746700  0.894700  1.0
  H  H210  1  0.894700  0.216500  0.142100  1.0
  H  H211  1  0.142100  0.746700  0.216500  1.0
  H  H212  1  0.894700  0.216500  0.746700  1.0
  H  H213  1  0.746700  0.142100  0.894700  1.0
  H  H214  1  0.216500  0.894700  0.142100  1.0
  H  H215  1  0.216500  0.142100  0.746700  1.0
  H  H216  1  0.746700  0.894700  0.216500  1.0
  H  H217  1  0.894700  0.746700  0.142100  1.0
  H  H218  1  0.142100  0.216500  0.894700  1.0
  H  H219  1  0.746700  0.216500  0.142100  1.0
  H  H220  1  0.216500  0.746700  0.894700  1.0
  H  H221  1  0.142100  0.894700  0.746700  1.0
  H  H222  1  0.894700  0.142100  0.216500  1.0
  H  H223  1  0.875000  0.436600  0.672200  1.0
  H  H224  1  0.016200  0.672200  0.436600  1.0
  H  H225  1  0.672200  0.016200  0.875000  1.0
  H  H226  1  0.436600  0.875000  0.016200  1.0
  H  H227  1  0.436600  0.672200  0.875000  1.0
  H  H228  1  0.672200  0.436600  0.016200  1.0
  H  H229  1  0.016200  0.875000  0.672200  1.0
  H  H230  1  0.875000  0.016200  0.436600  1.0
  H  H231  1  0.672200  0.875000  0.436600  1.0
  H  H232  1  0.436600  0.016200  0.672200  1.0
  H  H233  1  0.875000  0.672200  0.016200  1.0
  H  H234  1  0.016200  0.436600  0.875000  1.0
  H  H235  1  0.875000  0.672200  0.436600  1.0
  H  H236  1  0.016200  0.436600  0.672200  1.0
  H  H237  1  0.672200  0.875000  0.016200  1.0
  H  H238  1  0.436600  0.016200  0.875000  1.0
  H  H239  1  0.436600  0.875000  0.672200  1.0
  H  H240  1  0.672200  0.016200  0.436600  1.0
  H  H241  1  0.016200  0.672200  0.875000  1.0
  H  H242  1  0.875000  0.436600  0.016200  1.0
  H  H243  1  0.672200  0.436600  0.875000  1.0
  H  H244  1  0.436600  0.672200  0.016200  1.0
  H  H245  1  0.875000  0.016200  0.672200  1.0
  H  H246  1  0.016200  0.875000  0.436600  1.0
  H  H247  1  0.923800  0.431600  0.571600  1.0
  H  H248  1  0.073000  0.571600  0.431600  1.0
  H  H249  1  0.571600  0.073000  0.923800  1.0
  H  H250  1  0.431600  0.923800  0.073000  1.0
  H  H251  1  0.431600  0.571600  0.923800  1.0
  H  H252  1  0.571600  0.431600  0.073000  1.0
  H  H253  1  0.073000  0.923800  0.571600  1.0
  H  H254  1  0.923800  0.073000  0.431600  1.0
  H  H255  1  0.571600  0.923800  0.431600  1.0
  H  H256  1  0.431600  0.073000  0.571600  1.0
  H  H257  1  0.923800  0.571600  0.073000  1.0
  H  H258  1  0.073000  0.431600  0.923800  1.0
  H  H259  1  0.923800  0.571600  0.431600  1.0
  H  H260  1  0.073000  0.431600  0.571600  1.0
  H  H261  1  0.571600  0.923800  0.073000  1.0
  H  H262  1  0.431600  0.073000  0.923800  1.0
  H  H263  1  0.431600  0.923800  0.571600  1.0
  H  H264  1  0.571600  0.073000  0.431600  1.0
  H  H265  1  0.073000  0.571600  0.923800  1.0
  H  H266  1  0.923800  0.431600  0.073000  1.0
  H  H267  1  0.571600  0.431600  0.923800  1.0
  H  H268  1  0.431600  0.571600  0.073000  1.0
  H  H269  1  0.923800  0.073000  0.571600  1.0
  H  H270  1  0.073000  0.923800  0.431600  1.0
  N  N271  1  0.839100  0.660900  0.839100  1
  N  N272  1  0.660900  0.839100  0.660900  1
  N  N273  1  0.660900  0.839100  0.839100  1
  N  N274  1  0.839100  0.660900  0.660900  1
  N  N275  1  0.839100  0.839100  0.660900  1
  N  N276  1  0.660900  0.660900  0.839100  1
  N  N277  1  0.939400  0.439800  0.681400  1.0
  N  N278  1  0.939400  0.681400  0.439800  1.0
  N  N279  1  0.681400  0.939400  0.939400  1.0
  N  N280  1  0.439800  0.939400  0.939400  1.0
  N  N281  1  0.439800  0.681400  0.939400  1.0
  N  N282  1  0.681400  0.439800  0.939400  1.0
  N  N283  1  0.939400  0.939400  0.681400  1.0
  N  N284  1  0.939400  0.939400  0.439800  1.0
  N  N285  1  0.681400  0.939400  0.439800  1.0
  N  N286  1  0.439800  0.939400  0.681400  1.0
  N  N287  1  0.939400  0.681400  0.939400  1.0
  N  N288  1  0.939400  0.439800  0.939400  1.0
  O  O289  1  0.850540  0.448380  0.850540  1.0
  O  O290  1  0.850540  0.850540  0.448380  1.0
  O  O291  1  0.850540  0.850540  0.850540  1.0
  O  O292  1  0.448380  0.850540  0.850540  1.0
  O  O293  1  0.944100  0.587700  0.734100  1.0
  O  O294  1  0.734100  0.734100  0.587700  1.0
  O  O295  1  0.734100  0.734100  0.944100  1.0
  O  O296  1  0.587700  0.944100  0.734100  1.0
  O  O297  1  0.587700  0.734100  0.944100  1.0
  O  O298  1  0.734100  0.587700  0.734100  1.0
  O  O299  1  0.734100  0.944100  0.734100  1.0
  O  O300  1  0.944100  0.734100  0.587700  1.0
  O  O301  1  0.734100  0.944100  0.587700  1.0
  O  O302  1  0.587700  0.734100  0.734100  1.0
  O  O303  1  0.944100  0.734100  0.734100  1.0
  O  O304  1  0.734100  0.587700  0.944100  1.0
  O  O305  1  0.020200  0.486600  0.746600  1.0
  O  O306  1  0.746600  0.746600  0.486600  1.0
  O  O307  1  0.746600  0.746600  0.020200  1.0
  O  O308  1  0.486600  0.020200  0.746600  1.0
  O  O309  1  0.486600  0.746600  0.020200  1.0
  O  O310  1  0.746600  0.486600  0.746600  1.0
  O  O311  1  0.746600  0.020200  0.746600  1.0
  O  O312  1  0.020200  0.746600  0.486600  1.0
  O  O313  1  0.746600  0.020200  0.486600  1.0
  O  O314  1  0.486600  0.746600  0.746600  1.0
  O  O315  1  0.020200  0.746600  0.746600  1.0
  O  O316  1  0.746600  0.486600  0.020200  1.0
  O  O317  1  0.968320  0.378680  0.786200  1.0
  O  O318  1  0.866800  0.786200  0.378680  1.0
  O  O319  1  0.786200  0.866800  0.968320  1.0
  O  O320  1  0.378680  0.968320  0.866800  1.0
  O  O321  1  0.378680  0.786200  0.968320  1.0
  O  O322  1  0.786200  0.378680  0.866800  1.0
  O  O323  1  0.866800  0.968320  0.786200  1.0
  O  O324  1  0.968320  0.866800  0.378680  1.0
  O  O325  1  0.786200  0.968320  0.378680  1.0
  O  O326  1  0.378680  0.866800  0.786200  1.0
  O  O327  1  0.968320  0.786200  0.866800  1.0
  O  O328  1  0.866800  0.378680  0.968320  1.0
  O  O329  1  0.968320  0.786200  0.378680  1.0
  O  O330  1  0.866800  0.378680  0.786200  1.0
  O  O331  1  0.786200  0.968320  0.866800  1.0
  O  O332  1  0.378680  0.866800  0.968320  1.0
  O  O333  1  0.378680  0.968320  0.786200  1.0
  O  O334  1  0.786200  0.866800  0.378680  1.0
  O  O335  1  0.866800  0.786200  0.968320  1.0
  O  O336  1  0.968320  0.378680  0.866800  1.0
  O  O337  1  0.786200  0.378680  0.968320  1.0
  O  O338  1  0.378680  0.786200  0.866800  1.0
  O  O339  1  0.968320  0.866800  0.786200  1.0
  O  O340  1  0.866800  0.968320  0.378680  1.0
  O  O341  1  0.926720  0.507960  0.738460  1.0
  O  O342  1  0.826860  0.738460  0.507960  1.0
  O  O343  1  0.738460  0.826860  0.926720  1.0
  O  O344  1  0.507960  0.926720  0.826860  1.0
  O  O345  1  0.507960  0.738460  0.926720  1.0
  O  O346  1  0.738460  0.507960  0.826860  1.0
  O  O347  1  0.826860  0.926720  0.738460  1.0
  O  O348  1  0.926720  0.826860  0.507960  1.0
  O  O349  1  0.738460  0.926720  0.507960  1.0
  O  O350  1  0.507960  0.826860  0.738460  1.0
  O  O351  1  0.926720  0.738460  0.826860  1.0
  O  O352  1  0.826860  0.507960  0.926720  1.0
  O  O353  1  0.926720  0.738460  0.507960  1.0
  O  O354  1  0.826860  0.507960  0.738460  1.0
  O  O355  1  0.738460  0.926720  0.826860  1.0
  O  O356  1  0.507960  0.826860  0.926720  1.0
  O  O357  1  0.507960  0.926720  0.738460  1.0
  O  O358  1  0.738460  0.826860  0.507960  1.0
  O  O359  1  0.826860  0.738460  0.926720  1.0
  O  O360  1  0.926720  0.507960  0.826860  1.0
  O  O361  1  0.738460  0.507960  0.926720  1.0
  O  O362  1  0.507960  0.738460  0.826860  1.0
  O  O363  1  0.926720  0.826860  0.738460  1.0
  O  O364  1  0.826860  0.926720  0.507960  1.0
  S  S365  1  0.956280  0.522540  0.760580  1.0
  S  S366  1  0.760600  0.760580  0.522540  1.0
  S  S367  1  0.760580  0.760600  0.956280  1.0
  S  S368  1  0.522540  0.956280  0.760600  1.0
  S  S369  1  0.522540  0.760580  0.956280  1.0
  S  S370  1  0.760580  0.522540  0.760600  1.0
  S  S371  1  0.760600  0.956280  0.760580  1.0
  S  S372  1  0.956280  0.760600  0.522540  1.0
  S  S373  1  0.760580  0.956280  0.522540  1.0
  S  S374  1  0.522540  0.760600  0.760580  1.0
  S  S375  1  0.956280  0.760580  0.760600  1.0
  S  S376  1  0.760600  0.522540  0.956280  1.0
