# generated using pymatgen
data_Fe12H100C153S12(N3O19)4
_symmetry_space_group_name_H-M   'P 1'
_cell_length_a   25.86260000
_cell_length_b   26.83590000
_cell_length_c   28.19260000
_cell_angle_alpha   75.13800000
_cell_angle_beta   88.56800000
_cell_angle_gamma   63.78300000
_symmetry_Int_Tables_number   1
_chemical_formula_structural   Fe12H100C153S12(N3O19)4
_chemical_formula_sum   'Fe24 H200 C306 S24 N24 O152'
_cell_volume   16878.57224579
_cell_formula_units_Z   2
loop_
 _symmetry_equiv_pos_site_id
 _symmetry_equiv_pos_as_xyz
  1  'x, y, z'
loop_
 _atom_site_type_symbol
 _atom_site_label
 _atom_site_symmetry_multiplicity
 _atom_site_fract_x
 _atom_site_fract_y
 _atom_site_fract_z
 _atom_site_occupancy
  Fe  Fe1  1  0.626110  0.783360  0.123920  1
  Fe  Fe2  1  0.373890  0.216640  0.876080  1
  Fe  Fe3  1  0.547200  0.795340  0.219730  1
  Fe  Fe4  1  0.452800  0.204660  0.780270  1
  Fe  Fe5  1  0.675760  0.794140  0.227420  1
  Fe  Fe6  1  0.324240  0.205860  0.772580  1
  Fe  Fe7  1  0.768360  0.301310  0.691730  1
  Fe  Fe8  1  0.231640  0.698690  0.308270  1
  Fe  Fe9  1  0.206900  0.259190  0.157700  1
  Fe  Fe10  1  0.793100  0.740810  0.842300  1
  Fe  Fe11  1  0.652050  0.211500  0.139460  1
  Fe  Fe12  1  0.347950  0.788500  0.860540  1
  Fe  Fe13  1  0.569920  0.217250  0.232370  1
  Fe  Fe14  1  0.430080  0.782750  0.767630  1
  Fe  Fe15  1  0.256590  0.153380  0.262620  1
  Fe  Fe16  1  0.743410  0.846620  0.737380  1
  Fe  Fe17  1  0.890810  0.314780  0.690590  1
  Fe  Fe18  1  0.109190  0.685220  0.309410  1
  Fe  Fe19  1  0.246820  0.282310  0.258110  1
  Fe  Fe20  1  0.753180  0.717690  0.741890  1
  Fe  Fe21  1  0.895000  0.188930  0.692030  1
  Fe  Fe22  1  0.105000  0.811070  0.307970  1
  Fe  Fe23  1  0.698100  0.102370  0.241550  1
  Fe  Fe24  1  0.301900  0.897630  0.758450  1
  H  H25  1  0.730800  0.674300  0.368200  1
  H  H26  1  0.269200  0.325700  0.631800  1
  H  H27  1  0.761500  0.603300  0.440000  1
  H  H28  1  0.238500  0.396700  0.560000  1
  H  H29  1  0.611500  0.600000  0.434900  1
  H  H30  1  0.388500  0.400000  0.565100  1
  H  H31  1  0.582200  0.668500  0.361700  1
  H  H32  1  0.417800  0.331500  0.638300  1
  H  H33  1  0.686700  0.443600  0.563000  1
  H  H34  1  0.313300  0.556400  0.437000  1
  H  H35  1  0.650700  0.518300  0.491100  1
  H  H36  1  0.349300  0.481700  0.508900  1
  H  H37  1  0.779400  0.555900  0.513500  1
  H  H38  1  0.220600  0.444100  0.486500  1
  H  H39  1  0.817500  0.477200  0.581800  1
  H  H40  1  0.182500  0.522800  0.418200  1
  H  H41  1  0.180400  0.139100  0.398200  1
  H  H42  1  0.819600  0.860900  0.601800  1
  H  H43  1  0.133300  0.138900  0.468800  1
  H  H44  1  0.866700  0.861100  0.531200  1
  H  H45  1  0.106900  0.298400  0.454200  1
  H  H46  1  0.893100  0.701600  0.545800  1
  H  H47  1  0.156000  0.296100  0.386300  1
  H  H48  1  0.844000  0.703900  0.613700  1
  H  H49  1  0.003300  0.163200  0.573900  1
  H  H50  1  0.996700  0.836800  0.426100  1
  H  H51  1  0.061700  0.156300  0.511900  1
  H  H52  1  0.938300  0.843700  0.488100  1
  H  H53  1  0.078800  0.291100  0.525400  1
  H  H54  1  0.921200  0.708900  0.474600  1
  H  H55  1  0.016600  0.300300  0.585600  1
  H  H56  1  0.983400  0.699700  0.414400  1
  H  H57  1  0.869300  0.091500  0.249700  1
  H  H58  1  0.130700  0.908500  0.750300  1
  H  H59  1  0.954400  0.100100  0.250400  1
  H  H60  1  0.045600  0.899900  0.749600  1
  H  H61  1  0.891600  0.234900  0.137900  1
  H  H62  1  0.108400  0.765100  0.862100  1
  H  H63  1  0.808200  0.224400  0.132100  1
  H  H64  1  0.191800  0.775600  0.867900  1
  H  H65  1  0.109400  0.121200  0.263600  1
  H  H66  1  0.890600  0.878800  0.736400  1
  H  H67  1  0.027700  0.108200  0.257100  1
  H  H68  1  0.972300  0.891800  0.742900  1
  H  H69  1  0.973200  0.229900  0.132800  1
  H  H70  1  0.026800  0.770100  0.867200  1
  H  H71  1  0.057000  0.240000  0.137200  1
  H  H72  1  0.943000  0.760000  0.862800  1
  H  H73  1  0.787500  0.640500  0.113900  1
  H  H74  1  0.212500  0.359500  0.886100  1
  H  H75  1  0.876500  0.562300  0.116400  1
  H  H76  1  0.123500  0.437700  0.883600  1
  H  H77  1  0.931700  0.583300  0.236400  1
  H  H78  1  0.068300  0.416700  0.763600  1
  H  H79  1  0.843500  0.660700  0.233900  1
  H  H80  1  0.156500  0.339300  0.766100  1
  H  H81  1  0.044600  0.412300  0.128800  1
  H  H82  1  0.955400  0.587700  0.871200  1
  H  H83  1  0.955300  0.490500  0.121900  1
  H  H84  1  0.044700  0.509500  0.878100  1
  H  H85  1  0.007000  0.517400  0.238500  1
  H  H86  1  0.993000  0.482600  0.761500  1
  H  H87  1  0.094900  0.436700  0.245700  1
  H  H88  1  0.905100  0.563300  0.754300  1
  H  H89  1  0.529800  0.393700  0.223900  1
  H  H90  1  0.470200  0.606300  0.776100  1
  H  H91  1  0.520900  0.483100  0.220800  1
  H  H92  1  0.479100  0.516900  0.779200  1
  H  H93  1  0.639900  0.462200  0.128000  1
  H  H94  1  0.360100  0.537800  0.872000  1
  H  H95  1  0.646400  0.373600  0.130200  1
  H  H96  1  0.353600  0.626400  0.869800  1
  H  H97  1  0.540700  0.634700  0.234600  1
  H  H98  1  0.459300  0.365300  0.765400  1
  H  H99  1  0.544400  0.546600  0.238300  1
  H  H100  1  0.455600  0.453400  0.761700  1
  H  H101  1  0.610200  0.552200  0.109100  1
  H  H102  1  0.389800  0.447800  0.890900  1
  H  H103  1  0.604300  0.641600  0.105900  1
  H  H104  1  0.395700  0.358400  0.894100  1
  H  H105  1  0.876500  0.082200  0.689300  1
  H  H106  1  0.123500  0.917800  0.310700  1
  H  H107  1  0.921400  0.993900  0.671600  1
  H  H108  1  0.078600  0.006100  0.328400  1
  H  H109  1  0.018800  0.958800  0.656600  1
  H  H110  1  0.981200  0.041200  0.343400  1
  H  H111  1  0.065900  0.010600  0.662300  1
  H  H112  1  0.934100  0.989400  0.337700  1
  H  H113  1  0.017800  0.099100  0.678400  1
  H  H114  1  0.982200  0.900900  0.321600  1
  H  H115  1  0.013600  0.308700  0.682400  1
  H  H116  1  0.986400  0.691300  0.317600  1
  H  H117  1  0.060200  0.368100  0.669600  1
  H  H118  1  0.939800  0.631900  0.330400  1
  H  H119  1  0.007000  0.465100  0.666100  1
  H  H120  1  0.993000  0.534900  0.333900  1
  H  H121  1  0.907700  0.502700  0.673700  1
  H  H122  1  0.092300  0.497300  0.326300  1
  H  H123  1  0.864900  0.441200  0.685200  1
  H  H124  1  0.135100  0.558800  0.314800  1
  H  H125  1  0.662400  0.417200  0.690700  1
  H  H126  1  0.337600  0.582800  0.309300  1
  H  H127  1  0.559100  0.458500  0.688300  1
  H  H128  1  0.440900  0.541500  0.311700  1
  H  H129  1  0.514800  0.399400  0.689100  1
  H  H130  1  0.485200  0.600600  0.310900  1
  H  H131  1  0.567400  0.309600  0.689400  1
  H  H132  1  0.432600  0.690400  0.310600  1
  H  H133  1  0.666667  0.274000  0.691700  1
  H  H134  1  0.333333  0.726000  0.308300  1
  H  H135  1  0.313300  0.060800  0.367000  1
  H  H136  1  0.686700  0.939200  0.633000  1
  H  H137  1  0.319900  0.965500  0.408000  1
  H  H138  1  0.680100  0.034500  0.592000  1
  H  H139  1  0.292800  0.915700  0.371600  1
  H  H140  1  0.707200  0.084300  0.628400  1
  H  H141  1  0.256300  0.956200  0.287400  1
  H  H142  1  0.743700  0.043800  0.712600  1
  H  H143  1  0.242200  0.049000  0.250100  1
  H  H144  1  0.757800  0.951000  0.749900  1
  H  H145  1  0.231600  0.407200  0.234200  1
  H  H146  1  0.768400  0.592800  0.765800  1
  H  H147  1  0.223500  0.478600  0.268700  1
  H  H148  1  0.776500  0.521400  0.731300  1
  H  H149  1  0.246800  0.455700  0.350600  1
  H  H150  1  0.753200  0.544300  0.649400  1
  H  H151  1  0.264700  0.365500  0.400100  1
  H  H152  1  0.735300  0.634500  0.599900  1
  H  H153  1  0.266100  0.296400  0.362700  1
  H  H154  1  0.733900  0.703600  0.637300  1
  H  H155  1  0.165300  0.219400  0.079900  1
  H  H156  1  0.834700  0.780600  0.920100  1
  H  H157  1  0.125200  0.247800  0.000100  1
  H  H158  1  0.874800  0.752200  0.999900  1
  H  H159  1  0.108100  0.339700  0.951800  1
  H  H160  1  0.891900  0.660300  0.048200  1
  H  H161  1  0.125700  0.399000  0.984700  1
  H  H162  1  0.874300  0.601000  0.015300  1
  H  H163  1  0.164400  0.366600  0.067700  1
  H  H164  1  0.835600  0.633400  0.932300  1
  H  H165  1  0.817700  0.006400  0.231100  1
  H  H166  1  0.182300  0.993600  0.768900  1
  H  H167  1  0.887000  0.917500  0.272000  1
  H  H168  1  0.113000  0.082500  0.728000  1
  H  H169  1  0.881100  0.875100  0.350100  1
  H  H170  1  0.118900  0.124900  0.649900  1
  H  H171  1  0.802200  0.923000  0.390400  1
  H  H172  1  0.197800  0.077000  0.609600  1
  H  H173  1  0.730400  0.014700  0.345300  1
  H  H174  1  0.269600  0.985300  0.654700  1
  H  H175  1  0.510300  0.197300  0.325400  1
  H  H176  1  0.489700  0.802700  0.674600  1
  H  H177  1  0.428400  0.245400  0.365200  1
  H  H178  1  0.571600  0.754600  0.634800  1
  H  H179  1  0.355300  0.348400  0.304100  1
  H  H180  1  0.644700  0.651600  0.695900  1
  H  H181  1  0.371700  0.373300  0.233500  1
  H  H182  1  0.628300  0.626700  0.766500  1
  H  H183  1  0.468300  0.330600  0.204000  1
  H  H184  1  0.531700  0.669400  0.796000  1
  H  H185  1  0.594000  0.325000  0.053000  1
  H  H186  1  0.406000  0.675000  0.947000  1
  H  H187  1  0.606500  0.370100  0.977700  1
  H  H188  1  0.393500  0.629900  0.022300  1
  H  H189  1  0.686600  0.324600  0.942700  1
  H  H190  1  0.313400  0.675400  0.057300  1
  H  H191  1  0.758700  0.234100  0.984200  1
  H  H192  1  0.241300  0.765900  0.015800  1
  H  H193  1  0.743800  0.191700  0.066000  1
  H  H194  1  0.256200  0.808300  0.934000  1
  H  H195  1  0.714400  0.774400  0.046200  1
  H  H196  1  0.285600  0.225600  0.953800  1
  H  H197  1  0.731600  0.761500  0.969900  1
  H  H198  1  0.268400  0.238500  0.030100  1
  H  H199  1  0.666100  0.750700  0.924900  1
  H  H200  1  0.333900  0.249300  0.075100  1
  H  H201  1  0.585000  0.748200  0.961600  1
  H  H202  1  0.415000  0.251800  0.038400  1
  H  H203  1  0.571100  0.761600  0.039700  1
  H  H204  1  0.428900  0.238400  0.960300  1
  H  H205  1  0.711300  0.798400  0.330900  1
  H  H206  1  0.288700  0.201600  0.669100  1
  H  H207  1  0.791400  0.787500  0.378300  1
  H  H208  1  0.208600  0.212500  0.621700  1
  H  H209  1  0.874000  0.781500  0.338700  1
  H  H210  1  0.126000  0.218500  0.661300  1
  H  H211  1  0.876400  0.782400  0.257700  1
  H  H212  1  0.123600  0.217600  0.742300  1
  H  H213  1  0.799600  0.785400  0.217400  1
  H  H214  1  0.200400  0.214600  0.782600  1
  H  H215  1  0.429400  0.792800  0.198300  1
  H  H216  1  0.570600  0.207200  0.801700  1
  H  H217  1  0.341700  0.812900  0.227200  1
  H  H218  1  0.658300  0.187100  0.772800  1
  H  H219  1  0.326100  0.829300  0.303900  1
  H  H220  1  0.673900  0.170700  0.696100  1
  H  H221  1  0.402600  0.822200  0.351300  1
  H  H222  1  0.597400  0.177800  0.648700  1
  H  H223  1  0.488500  0.808700  0.316400  1
  H  H224  1  0.511500  0.191300  0.683600  1
  C  C225  1  0.660300  0.165300  0.320040  1
  C  C226  1  0.339700  0.834700  0.679960  1
  C  C227  1  0.673800  0.169200  0.369800  1
  C  C228  1  0.326200  0.830800  0.630200  1
  C  C229  1  0.734100  0.134400  0.389300  1
  C  C230  1  0.265900  0.865600  0.610700  1
  C  C231  1  0.748500  0.140900  0.436100  1
  C  C232  1  0.251500  0.859100  0.563900  1
  C  C233  1  0.711500  0.189200  0.450900  1
  C  C234  1  0.288500  0.810800  0.549100  1
  C  C235  1  0.655700  0.229600  0.425800  1
  C  C236  1  0.344300  0.770400  0.574200  1
  C  C237  1  0.636700  0.215100  0.385700  1
  C  C238  1  0.363300  0.784900  0.614300  1
  C  C239  1  0.788000  0.225400  0.624870  1
  C  C240  1  0.212000  0.774600  0.375130  1
  C  C241  1  0.763400  0.211100  0.585100  1
  C  C242  1  0.236600  0.788900  0.414900  1
  C  C243  1  0.715800  0.255900  0.554100  1
  C  C244  1  0.284200  0.744100  0.445900  1
  C  C245  1  0.695400  0.245800  0.508900  1
  C  C246  1  0.304600  0.754200  0.491100  1
  C  C247  1  0.727100  0.196700  0.498500  1
  C  C248  1  0.272900  0.803300  0.501500  1
  C  C249  1  0.786300  0.161100  0.516900  1
  C  C250  1  0.213700  0.838900  0.483100  1
  C  C251  1  0.801400  0.171400  0.564400  1
  C  C252  1  0.198600  0.828600  0.435600  1
  C  C253  1  0.637200  0.723100  0.307490  1
  C  C254  1  0.362800  0.276900  0.692510  1
  C  C255  1  0.653000  0.679000  0.356620  1
  C  C256  1  0.347000  0.321000  0.643380  1
  C  C257  1  0.706100  0.658700  0.381600  1
  C  C258  1  0.293900  0.341300  0.618400  1
  C  C259  1  0.724400  0.616800  0.425000  1
  C  C260  1  0.275600  0.383200  0.575000  1
  C  C261  1  0.689600  0.594500  0.446450  1
  C  C262  1  0.310400  0.405500  0.553550  1
  C  C263  1  0.636500  0.615000  0.421300  1
  C  C264  1  0.363500  0.385000  0.578700  1
  C  C265  1  0.618700  0.656200  0.377400  1
  C  C266  1  0.381300  0.343800  0.622600  1
  C  C267  1  0.783500  0.397200  0.620340  1
  C  C268  1  0.216500  0.602800  0.379660  1
  C  C269  1  0.757100  0.450000  0.577680  1
  C  C270  1  0.242900  0.550000  0.422320  1
  C  C271  1  0.707000  0.464900  0.552000  1
  C  C272  1  0.293000  0.535100  0.448000  1
  C  C273  1  0.684100  0.511400  0.509000  1
  C  C274  1  0.315900  0.488600  0.491000  1
  C  C275  1  0.709900  0.546400  0.493160  1
  C  C276  1  0.290100  0.453600  0.506840  1
  C  C277  1  0.760900  0.532600  0.522300  1
  C  C278  1  0.239100  0.467400  0.477700  1
  C  C279  1  0.783900  0.485200  0.563570  1
  C  C280  1  0.216100  0.514800  0.436430  1
  C  C281  1  0.202600  0.217300  0.339000  1
  C  C282  1  0.797400  0.782700  0.661000  1
  C  C283  1  0.173400  0.217100  0.384500  1
  C  C284  1  0.826600  0.782900  0.615500  1
  C  C285  1  0.165700  0.172000  0.409500  1
  C  C286  1  0.834300  0.828000  0.590500  1
  C  C287  1  0.136500  0.171800  0.451900  1
  C  C288  1  0.863500  0.828200  0.548100  1
  C  C289  1  0.112500  0.220500  0.468700  1
  C  C290  1  0.887500  0.779500  0.531300  1
  C  C291  1  0.121400  0.265200  0.443500  1
  C  C292  1  0.878600  0.734800  0.556500  1
  C  C293  1  0.151100  0.263900  0.402300  1
  C  C294  1  0.848900  0.736100  0.597700  1
  C  C295  1  0.956700  0.245200  0.621530  1
  C  C296  1  0.043300  0.754800  0.378470  1
  C  C297  1  0.999900  0.235500  0.584480  1
  C  C298  1  0.000100  0.764500  0.415520  1
  C  C299  1  0.016600  0.190800  0.563200  1
  C  C300  1  0.983400  0.809200  0.436800  1
  C  C301  1  0.052600  0.186100  0.526500  1
  C  C302  1  0.947400  0.813900  0.473500  1
  C  C303  1  0.075700  0.223500  0.510700  1
  C  C304  1  0.924300  0.776500  0.489300  1
  C  C305  1  0.062500  0.265700  0.534000  1
  C  C306  1  0.937500  0.734300  0.466000  1
  C  C307  1  0.024900  0.271100  0.570300  1
  C  C308  1  0.975100  0.728900  0.429700  1
  C  C309  1  0.771400  0.157200  0.192900  1
  C  C310  1  0.228600  0.842800  0.807100  1
  C  C311  1  0.828700  0.159400  0.193000  1
  C  C312  1  0.171300  0.840600  0.807000  1
  C  C313  1  0.872700  0.121100  0.226300  1
  C  C314  1  0.127300  0.878900  0.773700  1
  C  C315  1  0.924600  0.126100  0.225800  1
  C  C316  1  0.075400  0.873900  0.774200  1
  C  C317  1  0.933800  0.165500  0.192200  1
  C  C318  1  0.066200  0.834500  0.807800  1
  C  C319  1  0.888700  0.204000  0.159900  1
  C  C320  1  0.111300  0.796000  0.840100  1
  C  C321  1  0.837000  0.199600  0.157800  1
  C  C322  1  0.163000  0.800400  0.842200  1
  C  C323  1  0.144300  0.189700  0.204400  1
  C  C324  1  0.855700  0.810300  0.795600  1
  C  C325  1  0.091300  0.181200  0.201000  1
  C  C326  1  0.908700  0.818800  0.799000  1
  C  C327  1  0.082200  0.143300  0.236300  1
  C  C328  1  0.917800  0.856700  0.763700  1
  C  C329  1  0.031900  0.136500  0.232600  1
  C  C330  1  0.968100  0.863500  0.767400  1
  C  C331  1  0.989300  0.169100  0.195400  1
  C  C332  1  0.010700  0.830900  0.804600  1
  C  C333  1  0.000500  0.207000  0.160000  1
  C  C334  1  0.999500  0.793000  0.840000  1
  C  C335  1  0.051300  0.213400  0.162400  1
  C  C336  1  0.948700  0.786600  0.837600  1
  C  C337  1  0.746180  0.705490  0.174900  1
  C  C338  1  0.253820  0.294510  0.825100  1
  C  C339  1  0.805400  0.656200  0.174650  1
  C  C340  1  0.194600  0.343800  0.825350  1
  C  C341  1  0.816200  0.628500  0.139280  1
  C  C342  1  0.183800  0.371500  0.860720  1
  C  C343  1  0.870200  0.581900  0.140400  1
  C  C344  1  0.129800  0.418100  0.859600  1
  C  C345  1  0.914100  0.564600  0.176600  1
  C  C346  1  0.085900  0.435400  0.823400  1
  C  C347  1  0.902800  0.594400  0.211500  1
  C  C348  1  0.097200  0.405600  0.788500  1
  C  C349  1  0.849600  0.640300  0.210500  1
  C  C350  1  0.150400  0.359700  0.789500  1
  C  C351  1  0.133380  0.361800  0.194070  1
  C  C352  1  0.866620  0.638200  0.805930  1
  C  C353  1  0.077800  0.415200  0.188000  1
  C  C354  1  0.922200  0.584800  0.812000  1
  C  C355  1  0.037200  0.432900  0.152200  1
  C  C356  1  0.962800  0.567100  0.847800  1
  C  C357  1  0.983300  0.481000  0.147100  1
  C  C358  1  0.016700  0.519000  0.852900  1
  C  C359  1  0.972100  0.513500  0.178800  1
  C  C360  1  0.027900  0.486500  0.821200  1
  C  C361  1  0.013700  0.496200  0.215600  1
  C  C362  1  0.986300  0.503800  0.784400  1
  C  C363  1  0.066800  0.447200  0.220200  1
  C  C364  1  0.933200  0.552800  0.779800  1
  C  C365  1  0.596800  0.314400  0.181000  1
  C  C366  1  0.403200  0.685600  0.819000  1
  C  C367  1  0.591100  0.372800  0.178900  1
  C  C368  1  0.408900  0.627200  0.821100  1
  C  C369  1  0.553200  0.407000  0.204600  1
  C  C370  1  0.446800  0.593000  0.795400  1
  C  C371  1  0.548000  0.460600  0.203200  1
  C  C372  1  0.452000  0.539400  0.796800  1
  C  C373  1  0.582800  0.481100  0.175800  1
  C  C374  1  0.417200  0.518900  0.824200  1
  C  C375  1  0.617600  0.448500  0.148500  1
  C  C376  1  0.382400  0.551500  0.851500  1
  C  C377  1  0.621700  0.394700  0.149900  1
  C  C378  1  0.378300  0.605300  0.850100  1
  C  C379  1  0.576000  0.701100  0.170620  1
  C  C380  1  0.424000  0.298900  0.829380  1
  C  C381  1  0.575700  0.645900  0.171780  1
  C  C382  1  0.424300  0.354100  0.828220  1
  C  C383  1  0.555900  0.617700  0.209400  1
  C  C384  1  0.444100  0.382300  0.790600  1
  C  C385  1  0.557500  0.564800  0.211600  1
  C  C386  1  0.442500  0.435200  0.788400  1
  C  C387  1  0.578300  0.539600  0.174500  1
  C  C388  1  0.421700  0.460400  0.825500  1
  C  C389  1  0.596200  0.568500  0.134900  1
  C  C390  1  0.403800  0.431500  0.865100  1
  C  C391  1  0.593700  0.621900  0.133500  1
  C  C392  1  0.406300  0.378100  0.866500  1
  C  C393  1  0.915100  0.068300  0.683000  1
  C  C394  1  0.084900  0.931700  0.317000  1
  C  C395  1  0.941800  0.014800  0.672700  1
  C  C396  1  0.058200  0.985200  0.327300  1
  C  C397  1  0.999600  0.993900  0.664200  1
  C  C398  1  0.000400  0.006100  0.335800  1
  C  C399  1  0.026800  0.024700  0.667000  1
  C  C400  1  0.973200  0.975300  0.333000  1
  C  C401  1  0.997500  0.078200  0.676900  1
  C  C402  1  0.002500  0.921800  0.323100  1
  C  C403  1  0.992500  0.347800  0.680100  1
  C  C404  1  0.007500  0.652200  0.319900  1
  C  C405  1  0.020700  0.383300  0.672800  1
  C  C406  1  0.979300  0.616700  0.327200  1
  C  C407  1  0.988800  0.441300  0.670600  1
  C  C408  1  0.011200  0.558700  0.329400  1
  C  C409  1  0.929700  0.464000  0.675100  1
  C  C410  1  0.070300  0.536000  0.324900  1
  C  C411  1  0.904400  0.426700  0.681800  1
  C  C412  1  0.095600  0.573300  0.318200  1
  C  C413  1  0.643400  0.395100  0.689500  1
  C  C414  1  0.356600  0.604900  0.310500  1
  C  C415  1  0.581000  0.419900  0.688900  1
  C  C416  1  0.419000  0.580100  0.311100  1
  C  C417  1  0.554800  0.384700  0.689200  1
  C  C418  1  0.445200  0.615300  0.310800  1
  C  C419  1  0.584500  0.333700  0.689500  1
  C  C420  1  0.415500  0.666300  0.310500  1
  C  C421  1  0.645100  0.313000  0.690000  1
  C  C422  1  0.354900  0.687000  0.310000  1
  C  C423  1  0.299500  0.042000  0.351200  1
  C  C424  1  0.700500  0.958000  0.648800  1
  C  C425  1  0.304400  0.982200  0.375200  1
  C  C426  1  0.695600  0.017800  0.624800  1
  C  C427  1  0.288800  0.951900  0.354300  1
  C  C428  1  0.711200  0.048100  0.645700  1
  C  C429  1  0.266000  0.976400  0.304900  1
  C  C430  1  0.734000  0.023600  0.695100  1
  C  C431  1  0.258500  0.032200  0.282700  1
  C  C432  1  0.741500  0.967800  0.717300  1
  C  C433  1  0.237300  0.398600  0.268300  1
  C  C434  1  0.762700  0.601400  0.731700  1
  C  C435  1  0.234000  0.441300  0.288500  1
  C  C436  1  0.766000  0.558700  0.711500  1
  C  C437  1  0.246100  0.428200  0.336600  1
  C  C438  1  0.753900  0.571800  0.663400  1
  C  C439  1  0.257600  0.374500  0.366100  1
  C  C440  1  0.742400  0.625500  0.633900  1
  C  C441  1  0.258300  0.333100  0.343300  1
  C  C442  1  0.741700  0.666900  0.656700  1
  C  C443  1  0.156600  0.256500  0.060800  1
  C  C444  1  0.843400  0.743500  0.939200  1
  C  C445  1  0.133400  0.272400  0.013000  1
  C  C446  1  0.866600  0.727600  0.987000  1
  C  C447  1  0.122900  0.327400  0.984700  1
  C  C448  1  0.877100  0.672600  0.015300  1
  C  C449  1  0.133300  0.362100  0.003700  1
  C  C450  1  0.866700  0.637900  0.996300  1
  C  C451  1  0.156500  0.342400  0.053900  1
  C  C452  1  0.843500  0.657600  0.946100  1
  C  C453  1  0.813500  0.989800  0.263300  1
  C  C454  1  0.186500  0.010200  0.736700  1
  C  C455  1  0.855300  0.936600  0.288000  1
  C  C456  1  0.144700  0.063400  0.712000  1
  C  C457  1  0.852000  0.911500  0.334000  1
  C  C458  1  0.148000  0.088500  0.666000  1
  C  C459  1  0.805500  0.939400  0.357900  1
  C  C460  1  0.194500  0.060600  0.642100  1
  C  C461  1  0.762500  0.994700  0.330300  1
  C  C462  1  0.237500  0.005300  0.669700  1
  C  C463  1  0.483170  0.234930  0.310050  1
  C  C464  1  0.516830  0.765070  0.689950  1
  C  C465  1  0.435100  0.260600  0.333460  1
  C  C466  1  0.564900  0.739400  0.666540  1
  C  C467  1  0.389970  0.325000  0.293900  1
  C  C468  1  0.610030  0.675000  0.706100  1
  C  C469  1  0.401200  0.340700  0.254500  1
  C  C470  1  0.598800  0.659300  0.745500  1
  C  C471  1  0.458600  0.313800  0.233770  1
  C  C472  1  0.541400  0.686200  0.766230  1
  C  C473  1  0.628100  0.306200  0.039500  1
  C  C474  1  0.371900  0.693800  0.960500  1
  C  C475  1  0.634700  0.333400  0.994300  1
  C  C476  1  0.365300  0.666600  0.005700  1
  C  C477  1  0.682100  0.306700  0.974300  1
  C  C478  1  0.317900  0.693300  0.025700  1
  C  C479  1  0.725300  0.252900  0.998500  1
  C  C480  1  0.274700  0.747100  0.001500  1
  C  C481  1  0.715400  0.227400  0.047700  1
  C  C482  1  0.284600  0.772600  0.952300  1
  C  C483  1  0.688000  0.768700  0.029180  1
  C  C484  1  0.312000  0.231300  0.970820  1
  C  C485  1  0.698300  0.761600  0.983200  1
  C  C486  1  0.301700  0.238400  0.016800  1
  C  C487  1  0.660000  0.754700  0.956600  1
  C  C488  1  0.340000  0.245300  0.043400  1
  C  C489  1  0.611800  0.753700  0.978200  1
  C  C490  1  0.388200  0.246300  0.021800  1
  C  C491  1  0.604000  0.761250  0.025490  1
  C  C492  1  0.396000  0.238750  0.974510  1
  C  C493  1  0.745500  0.793300  0.316600  1
  C  C494  1  0.254500  0.206700  0.683400  1
  C  C495  1  0.793000  0.788200  0.345200  1
  C  C496  1  0.207000  0.211800  0.654800  1
  C  C497  1  0.842300  0.784200  0.321400  1
  C  C498  1  0.157700  0.215800  0.678600  1
  C  C499  1  0.844200  0.784100  0.273900  1
  C  C500  1  0.155800  0.215900  0.726100  1
  C  C501  1  0.797600  0.786800  0.250000  1
  C  C502  1  0.202400  0.213200  0.750000  1
  C  C503  1  0.423700  0.800500  0.228860  1
  C  C504  1  0.576300  0.199500  0.771140  1
  C  C505  1  0.371300  0.811700  0.246300  1
  C  C506  1  0.628700  0.188300  0.753700  1
  C  C507  1  0.362000  0.821100  0.291800  1
  C  C508  1  0.638000  0.178900  0.708200  1
  C  C509  1  0.406700  0.818100  0.319500  1
  C  C510  1  0.593300  0.181900  0.680500  1
  C  C511  1  0.458800  0.808800  0.298420  1
  C  C512  1  0.541200  0.191200  0.701580  1
  C  C513  1  0.716300  0.121000  0.405400  1
  C  C514  1  0.283700  0.879000  0.594600  1
  C  C515  1  0.729400  0.126400  0.451600  1
  C  C516  1  0.270600  0.873600  0.548400  1
  C  C517  1  0.698100  0.174500  0.466600  1
  C  C518  1  0.301900  0.825500  0.533400  1
  C  C519  1  0.648600  0.210900  0.439100  1
  C  C520  1  0.351400  0.789100  0.560900  1
  C  C521  1  0.704800  0.230800  0.574800  1
  C  C522  1  0.295200  0.769200  0.425200  1
  C  C523  1  0.683100  0.219900  0.534800  1
  C  C524  1  0.316900  0.780100  0.465200  1
  C  C525  1  0.719900  0.179100  0.514800  1
  C  C526  1  0.280100  0.820900  0.485200  1
  C  C527  1  0.767700  0.143300  0.538100  1
  C  C528  1  0.232300  0.856700  0.461900  1
  C  C529  1  0.783100  0.153400  0.579000  1
  C  C530  1  0.216900  0.846600  0.421000  1
  S  S531  1  0.997240  0.195280  0.748860  1
  S  S532  1  0.002760  0.804720  0.251140  1
  S  S533  1  0.788940  0.379270  0.752110  1
  S  S534  1  0.211060  0.620730  0.247890  1
  S  S535  1  0.797050  0.172030  0.755840  1
  S  S536  1  0.202950  0.827970  0.244160  1
  S  S537  1  0.566960  0.880730  0.271880  1
  S  S538  1  0.433040  0.119270  0.728120  1
  S  S539  1  0.698620  0.855090  0.120990  1
  S  S540  1  0.301380  0.144910  0.879010  1
  S  S541  1  0.487590  0.850200  0.107980  1
  S  S542  1  0.512410  0.149800  0.892020  1
  S  S543  1  0.270970  0.338740  0.150200  1
  S  S544  1  0.729030  0.661260  0.849800  1
  S  S545  1  0.355660  0.165450  0.317880  1
  S  S546  1  0.644340  0.834550  0.682120  1
  S  S547  1  0.283370  0.128390  0.156480  1
  S  S548  1  0.716630  0.871610  0.843520  1
  S  S549  1  0.722540  0.080050  0.134440  1
  S  S550  1  0.277460  0.919950  0.865560  1
  S  S551  1  0.587850  0.088290  0.286490  1
  S  S552  1  0.412150  0.911710  0.713510  1
  S  S553  1  0.520160  0.235010  0.124910  1
  S  S554  1  0.479840  0.764990  0.875090  1
  N  N555  1  0.941900  0.100400  0.684310  1
  N  N556  1  0.058100  0.899600  0.315690  1
  N  N557  1  0.934600  0.370500  0.683530  1
  N  N558  1  0.065400  0.629500  0.316470  1
  N  N559  1  0.672940  0.341200  0.688350  1
  N  N560  1  0.327060  0.658800  0.311650  1
  N  N561  1  0.273500  0.064700  0.305500  1
  N  N562  1  0.726500  0.935300  0.694500  1
  N  N563  1  0.248300  0.345200  0.295300  1
  N  N564  1  0.751700  0.654800  0.704700  1
  N  N565  1  0.167200  0.290000  0.081380  1
  N  N566  1  0.832800  0.710000  0.918620  1
  N  N567  1  0.766960  0.018480  0.283900  1
  N  N568  1  0.233040  0.981520  0.716100  1
  N  N569  1  0.493170  0.262830  0.264230  1
  N  N570  1  0.506830  0.737170  0.735770  1
  N  N571  1  0.667400  0.253600  0.066940  1
  N  N572  1  0.332600  0.746400  0.933060  1
  N  N573  1  0.642080  0.767900  0.050950  1
  N  N574  1  0.357920  0.232100  0.949050  1
  N  N575  1  0.748530  0.791170  0.270870  1
  N  N576  1  0.251470  0.208830  0.729130  1
  N  N577  1  0.467740  0.800130  0.253980  1
  N  N578  1  0.532260  0.199870  0.746020  1
  O  O579  1  0.851520  0.267850  0.692690  1
  O  O580  1  0.148480  0.732150  0.307310  1
  O  O581  1  0.615800  0.792490  0.190000  1
  O  O582  1  0.384200  0.207510  0.810000  1
  O  O583  1  0.237810  0.231670  0.225670  1
  O  O584  1  0.762190  0.768330  0.774330  1
  O  O585  1  0.639680  0.176590  0.204000  1
  O  O586  1  0.360320  0.823410  0.796000  1
  O  O587  1  0.961820  0.166970  0.739570  1
  O  O588  1  0.038180  0.833030  0.260430  1
  O  O589  1  0.956680  0.257410  0.741190  1
  O  O590  1  0.043320  0.742590  0.258810  1
  O  O591  1  0.022710  0.171100  0.799440  1
  O  O592  1  0.977290  0.828900  0.200560  1
  O  O593  1  0.039710  0.189440  0.713460  1
  O  O594  1  0.960290  0.810560  0.286540  1
  O  O595  1  0.762320  0.343480  0.741400  1
  O  O596  1  0.237680  0.656520  0.258600  1
  O  O597  1  0.851360  0.351610  0.742370  1
  O  O598  1  0.148640  0.648390  0.257630  1
  O  O599  1  0.760720  0.436850  0.719730  1
  O  O600  1  0.239280  0.563150  0.280270  1
  O  O601  1  0.786400  0.377100  0.803910  1
  O  O602  1  0.213600  0.622900  0.196090  1
  O  O603  1  0.858650  0.155910  0.745210  1
  O  O604  1  0.141350  0.844090  0.254790  1
  O  O605  1  0.765710  0.236770  0.743230  1
  O  O606  1  0.234290  0.763230  0.256770  1
  O  O607  1  0.770860  0.152070  0.724030  1
  O  O608  1  0.229140  0.847930  0.275970  1
  O  O609  1  0.795080  0.149780  0.806920  1
  O  O610  1  0.204920  0.850220  0.193080  1
  O  O611  1  0.531480  0.864940  0.243380  1
  O  O612  1  0.468520  0.135060  0.756620  1
  O  O613  1  0.626140  0.859570  0.253990  1
  O  O614  1  0.373860  0.140430  0.746010  1
  O  O615  1  0.541990  0.943120  0.261040  1
  O  O616  1  0.458010  0.056880  0.738960  1
  O  O617  1  0.571560  0.853230  0.323060  1
  O  O618  1  0.428440  0.146770  0.676940  1
  O  O619  1  0.653490  0.843530  0.100350  1
  O  O620  1  0.346510  0.156470  0.899650  1
  O  O621  1  0.690490  0.849750  0.174670  1
  O  O622  1  0.309510  0.150250  0.825330  1
  O  O623  1  0.756270  0.813230  0.115360  1
  O  O624  1  0.243730  0.186770  0.884640  1
  O  O625  1  0.686980  0.914160  0.097240  1
  O  O626  1  0.313020  0.085840  0.902760  1
  O  O627  1  0.546890  0.839790  0.092730  1
  O  O628  1  0.453110  0.160210  0.907270  1
  O  O629  1  0.490530  0.849520  0.161670  1
  O  O630  1  0.509470  0.150480  0.838330  1
  O  O631  1  0.474990  0.804270  0.103960  1
  O  O632  1  0.525010  0.195730  0.896040  1
  O  O633  1  0.445970  0.906910  0.080330  1
  O  O634  1  0.554030  0.093090  0.919670  1
  O  O635  1  0.254610  0.299190  0.132880  1
  O  O636  1  0.745390  0.700810  0.867120  1
  O  O637  1  0.283800  0.315370  0.204980  1
  O  O638  1  0.716200  0.684630  0.795020  1
  O  O639  1  0.223840  0.396350  0.137860  1
  O  O640  1  0.776160  0.603650  0.862140  1
  O  O641  1  0.322510  0.336270  0.128770  1
  O  O642  1  0.677490  0.663730  0.871230  1
  O  O643  1  0.323710  0.228220  0.294520  1
  O  O644  1  0.676290  0.771780  0.705480  1
  O  O645  1  0.333910  0.135210  0.291840  1
  O  O646  1  0.666090  0.864790  0.708160  1
  O  O647  1  0.344940  0.154510  0.366930  1
  O  O648  1  0.655060  0.845490  0.633070  1
  O  O649  1  0.418090  0.146860  0.310770  1
  O  O650  1  0.581910  0.853140  0.689230  1
  O  O651  1  0.294610  0.115230  0.211180  1
  O  O652  1  0.705390  0.884770  0.788820  1
  O  O653  1  0.262250  0.191900  0.136160  1
  O  O654  1  0.737750  0.808100  0.863840  1
  O  O655  1  0.336880  0.097940  0.137880  1
  O  O656  1  0.663120  0.902060  0.862120  1
  O  O657  1  0.238250  0.113530  0.145650  1
  O  O658  1  0.761750  0.886470  0.854350  1
  O  O659  1  0.711900  0.064270  0.187410  1
  O  O660  1  0.288100  0.935730  0.812590  1
  O  O661  1  0.681140  0.142420  0.113080  1
  O  O662  1  0.318860  0.857580  0.886920  1
  O  O663  1  0.780770  0.072400  0.131370  1
  O  O664  1  0.219230  0.927600  0.868630  1
  O  O665  1  0.707680  0.046290  0.109420  1
  O  O666  1  0.292320  0.953710  0.890580  1
  O  O667  1  0.645350  0.067160  0.265990  1
  O  O668  1  0.354650  0.932840  0.734010  1
  O  O669  1  0.553020  0.149940  0.257820  1
  O  O670  1  0.446980  0.850060  0.742180  1
  O  O671  1  0.595330  0.083450  0.338370  1
  O  O672  1  0.404670  0.916550  0.661630  1
  O  O673  1  0.558800  0.056020  0.276110  1
  O  O674  1  0.441200  0.943980  0.723890  1
  O  O675  1  0.574560  0.234920  0.106610  1
  O  O676  1  0.425440  0.765080  0.893390  1
  O  O677  1  0.514510  0.243240  0.173430  1
  O  O678  1  0.485490  0.756760  0.826570  1
  O  O679  1  0.528600  0.167900  0.134000  1
  O  O680  1  0.471400  0.832100  0.866000  1
  O  O681  1  0.473790  0.267400  0.091470  1
  O  O682  1  0.526210  0.732600  0.908530  1
  O  O683  1  0.754660  0.268760  0.638740  1
  O  O684  1  0.245340  0.731240  0.361260  1
  O  O685  1  0.839830  0.193400  0.640230  1
  O  O686  1  0.160170  0.806600  0.359770  1
  O  O687  1  0.611600  0.202410  0.297580  1
  O  O688  1  0.388400  0.797590  0.702420  1
  O  O689  1  0.697360  0.125190  0.304660  1
  O  O690  1  0.302640  0.874810  0.695340  1
  O  O691  1  0.752480  0.372020  0.635670  1
  O  O692  1  0.247520  0.627980  0.364330  1
  O  O693  1  0.834630  0.382260  0.636800  1
  O  O694  1  0.165370  0.617740  0.363200  1
  O  O695  1  0.586430  0.741710  0.286890  1
  O  O696  1  0.413570  0.258290  0.713110  1
  O  O697  1  0.674870  0.738020  0.289640  1
  O  O698  1  0.325130  0.261980  0.710360  1
  O  O699  1  0.939250  0.289520  0.635530  1
  O  O700  1  0.060750  0.710480  0.364470  1
  O  O701  1  0.940120  0.206240  0.635480  1
  O  O702  1  0.059880  0.793760  0.364520  1
  O  O703  1  0.219550  0.172720  0.323710  1
  O  O704  1  0.780450  0.827280  0.676290  1
  O  O705  1  0.207950  0.261300  0.318310  1
  O  O706  1  0.792050  0.738700  0.681690  1
  O  O707  1  0.733170  0.194910  0.158810  1
  O  O708  1  0.266830  0.805090  0.841190  1
  O  O709  1  0.765160  0.120900  0.226850  1
  O  O710  1  0.234840  0.879100  0.773150  1
  O  O711  1  0.179800  0.158530  0.241910  1
  O  O712  1  0.820200  0.841470  0.758090  1
  O  O713  1  0.148700  0.227270  0.170760  1
  O  O714  1  0.851300  0.772730  0.829240  1
  O  O715  1  0.740410  0.726590  0.211190  1
  O  O716  1  0.259590  0.273410  0.788810  1
  O  O717  1  0.708560  0.719740  0.140790  1
  O  O718  1  0.291440  0.280260  0.859210  1
  O  O719  1  0.167670  0.348340  0.231100  1
  O  O720  1  0.832330  0.651660  0.768900  1
  O  O721  1  0.140580  0.333820  0.163130  1
  O  O722  1  0.859420  0.666180  0.836870  1
  O  O723  1  0.603650  0.717880  0.138650  1
  O  O724  1  0.396350  0.282120  0.861350  1
  O  O725  1  0.551220  0.725220  0.203460  1
  O  O726  1  0.448780  0.274780  0.796540  1
  O  O727  1  0.626920  0.289970  0.150070  1
  O  O728  1  0.373080  0.710030  0.849930  1
  O  O729  1  0.572390  0.293720  0.213410  1
  O  O730  1  0.427610  0.706280  0.786590  1
