# generated using pymatgen
data_Fe3H27C36S3N3O19
_symmetry_space_group_name_H-M   'P 1'
_cell_length_a   27.22926793
_cell_length_b   27.22926793
_cell_length_c   27.22926793
_cell_angle_alpha   60.00000000
_cell_angle_beta   60.00000000
_cell_angle_gamma   60.00000000
_symmetry_Int_Tables_number   1
_chemical_formula_structural   Fe3H27C36S3N3O19
_chemical_formula_sum   'Fe12 H108 C144 S12 N12 O76'
_cell_volume   14275.55159813
_cell_formula_units_Z   4
loop_
 _symmetry_equiv_pos_site_id
 _symmetry_equiv_pos_as_xyz
  1  'x, y, z'
loop_
 _atom_site_type_symbol
 _atom_site_label
 _atom_site_symmetry_multiplicity
 _atom_site_fract_x
 _atom_site_fract_y
 _atom_site_fract_z
 _atom_site_occupancy
  C  C1  1  0.995800  0.355000  0.824600  1.0
  C  C2  1  0.824600  0.824600  0.355000  1.0
  C  C3  1  0.824600  0.824600  0.995800  1.0
  C  C4  1  0.355000  0.995800  0.824600  1.0
  C  C5  1  0.355000  0.824600  0.995800  1.0
  C  C6  1  0.824600  0.355000  0.824600  1.0
  C  C7  1  0.824600  0.995800  0.824600  1.0
  C  C8  1  0.995800  0.824600  0.355000  1.0
  C  C9  1  0.824600  0.995800  0.355000  1.0
  C  C10  1  0.355000  0.824600  0.824600  1.0
  C  C11  1  0.995800  0.824600  0.824600  1.0
  C  C12  1  0.824600  0.355000  0.995800  1.0
  C  C13  1  0.044200  0.309000  0.823400  1.0
  C  C14  1  0.823400  0.823400  0.309000  1.0
  C  C15  1  0.823400  0.823400  0.044200  1.0
  C  C16  1  0.309000  0.044200  0.823400  1.0
  C  C17  1  0.309000  0.823400  0.044200  1.0
  C  C18  1  0.823400  0.309000  0.823400  1.0
  C  C19  1  0.823400  0.044200  0.823400  1.0
  C  C20  1  0.044200  0.823400  0.309000  1.0
  C  C21  1  0.823400  0.044200  0.309000  1.0
  C  C22  1  0.309000  0.823400  0.823400  1.0
  C  C23  1  0.044200  0.823400  0.823400  1.0
  C  C24  1  0.823400  0.309000  0.044200  1.0
  C  C25  1  0.150600  0.204600  0.822400  1.0
  C  C26  1  0.822400  0.822400  0.204600  1.0
  C  C27  1  0.822400  0.822400  0.150600  1.0
  C  C28  1  0.204600  0.150600  0.822400  1.0
  C  C29  1  0.204600  0.822400  0.150600  1.0
  C  C30  1  0.822400  0.204600  0.822400  1.0
  C  C31  1  0.822400  0.150600  0.822400  1.0
  C  C32  1  0.150600  0.822400  0.204600  1.0
  C  C33  1  0.822400  0.150600  0.204600  1.0
  C  C34  1  0.204600  0.822400  0.822400  1.0
  C  C35  1  0.150600  0.822400  0.822400  1.0
  C  C36  1  0.822400  0.204600  0.150600  1.0
  C  C37  1  0.005600  0.427400  0.561400  1.0
  C  C38  1  0.005600  0.561400  0.427400  1.0
  C  C39  1  0.561400  0.005600  0.005600  1.0
  C  C40  1  0.427400  0.005600  0.005600  1.0
  C  C41  1  0.427400  0.561400  0.005600  1.0
  C  C42  1  0.561400  0.427400  0.005600  1.0
  C  C43  1  0.005600  0.005600  0.561400  1.0
  C  C44  1  0.005600  0.005600  0.427400  1.0
  C  C45  1  0.561400  0.005600  0.427400  1.0
  C  C46  1  0.427400  0.005600  0.561400  1.0
  C  C47  1  0.005600  0.561400  0.005600  1.0
  C  C48  1  0.005600  0.427400  0.005600  1.0
  C  C49  1  0.067700  0.279700  0.789300  1.0
  C  C50  1  0.863300  0.789300  0.279700  1.0
  C  C51  1  0.789300  0.863300  0.067700  1.0
  C  C52  1  0.279700  0.067700  0.863300  1.0
  C  C53  1  0.279700  0.789300  0.067700  1.0
  C  C54  1  0.789300  0.279700  0.863300  1.0
  C  C55  1  0.863300  0.067700  0.789300  1.0
  C  C56  1  0.067700  0.863300  0.279700  1.0
  C  C57  1  0.789300  0.067700  0.279700  1.0
  C  C58  1  0.279700  0.863300  0.789300  1.0
  C  C59  1  0.067700  0.789300  0.863300  1.0
  C  C60  1  0.863300  0.279700  0.067700  1.0
  C  C61  1  0.067700  0.789300  0.279700  1.0
  C  C62  1  0.863300  0.279700  0.789300  1.0
  C  C63  1  0.789300  0.067700  0.863300  1.0
  C  C64  1  0.279700  0.863300  0.067700  1.0
  C  C65  1  0.279700  0.067700  0.789300  1.0
  C  C66  1  0.789300  0.863300  0.279700  1.0
  C  C67  1  0.863300  0.789300  0.067700  1.0
  C  C68  1  0.067700  0.279700  0.863300  1.0
  C  C69  1  0.789300  0.279700  0.067700  1.0
  C  C70  1  0.279700  0.789300  0.863300  1.0
  C  C71  1  0.067700  0.863300  0.789300  1.0
  C  C72  1  0.863300  0.067700  0.279700  1.0
  C  C73  1  0.121700  0.229900  0.782700  1.0
  C  C74  1  0.865700  0.782700  0.229900  1.0
  C  C75  1  0.782700  0.865700  0.121700  1.0
  C  C76  1  0.229900  0.121700  0.865700  1.0
  C  C77  1  0.229900  0.782700  0.121700  1.0
  C  C78  1  0.782700  0.229900  0.865700  1.0
  C  C79  1  0.865700  0.121700  0.782700  1.0
  C  C80  1  0.121700  0.865700  0.229900  1.0
  C  C81  1  0.782700  0.121700  0.229900  1.0
  C  C82  1  0.229900  0.865700  0.782700  1.0
  C  C83  1  0.121700  0.782700  0.865700  1.0
  C  C84  1  0.865700  0.229900  0.121700  1.0
  C  C85  1  0.121700  0.782700  0.229900  1.0
  C  C86  1  0.865700  0.229900  0.782700  1.0
  C  C87  1  0.782700  0.121700  0.865700  1.0
  C  C88  1  0.229900  0.865700  0.121700  1.0
  C  C89  1  0.229900  0.121700  0.782700  1.0
  C  C90  1  0.782700  0.865700  0.229900  1.0
  C  C91  1  0.865700  0.782700  0.121700  1.0
  C  C92  1  0.121700  0.229900  0.865700  1.0
  C  C93  1  0.782700  0.229900  0.121700  1.0
  C  C94  1  0.229900  0.782700  0.865700  1.0
  C  C95  1  0.121700  0.865700  0.782700  1.0
  C  C96  1  0.865700  0.121700  0.229900  1.0
  C  C97  1  0.916000  0.437200  0.649600  1.0
  C  C98  1  0.997200  0.649600  0.437200  1.0
  C  C99  1  0.649600  0.997200  0.916000  1.0
  C  C100  1  0.437200  0.916000  0.997200  1.0
  C  C101  1  0.437200  0.649600  0.916000  1.0
  C  C102  1  0.649600  0.437200  0.997200  1.0
  C  C103  1  0.997200  0.916000  0.649600  1.0
  C  C104  1  0.916000  0.997200  0.437200  1.0
  C  C105  1  0.649600  0.916000  0.437200  1.0
  C  C106  1  0.437200  0.997200  0.649600  1.0
  C  C107  1  0.916000  0.649600  0.997200  1.0
  C  C108  1  0.997200  0.437200  0.916000  1.0
  C  C109  1  0.916000  0.649600  0.437200  1.0
  C  C110  1  0.997200  0.437200  0.649600  1.0
  C  C111  1  0.649600  0.916000  0.997200  1.0
  C  C112  1  0.437200  0.997200  0.916000  1.0
  C  C113  1  0.437200  0.916000  0.649600  1.0
  C  C114  1  0.649600  0.997200  0.437200  1.0
  C  C115  1  0.997200  0.649600  0.916000  1.0
  C  C116  1  0.916000  0.437200  0.997200  1.0
  C  C117  1  0.649600  0.437200  0.916000  1.0
  C  C118  1  0.437200  0.649600  0.997200  1.0
  C  C119  1  0.916000  0.997200  0.649600  1.0
  C  C120  1  0.997200  0.916000  0.437200  1.0
  C  C121  1  0.946700  0.432700  0.588100  1.0
  C  C122  1  0.032500  0.588100  0.432700  1.0
  C  C123  1  0.588100  0.032500  0.946700  1.0
  C  C124  1  0.432700  0.946700  0.032500  1.0
  C  C125  1  0.432700  0.588100  0.946700  1.0
  C  C126  1  0.588100  0.432700  0.032500  1.0
  C  C127  1  0.032500  0.946700  0.588100  1.0
  C  C128  1  0.946700  0.032500  0.432700  1.0
  C  C129  1  0.588100  0.946700  0.432700  1.0
  C  C130  1  0.432700  0.032500  0.588100  1.0
  C  C131  1  0.946700  0.588100  0.032500  1.0
  C  C132  1  0.032500  0.432700  0.946700  1.0
  C  C133  1  0.946700  0.588100  0.432700  1.0
  C  C134  1  0.032500  0.432700  0.588100  1.0
  C  C135  1  0.588100  0.946700  0.032500  1.0
  C  C136  1  0.432700  0.032500  0.946700  1.0
  C  C137  1  0.432700  0.946700  0.588100  1.0
  C  C138  1  0.588100  0.032500  0.432700  1.0
  C  C139  1  0.032500  0.588100  0.946700  1.0
  C  C140  1  0.946700  0.432700  0.032500  1.0
  C  C141  1  0.588100  0.432700  0.946700  1.0
  C  C142  1  0.432700  0.588100  0.032500  1.0
  C  C143  1  0.946700  0.032500  0.588100  1.0
  C  C144  1  0.032500  0.946700  0.432700  1.0
  Fe  Fe145  1  0.892440  0.444880  0.770240  1.0
  Fe  Fe146  1  0.892440  0.770240  0.444880  1.0
  Fe  Fe147  1  0.770240  0.892440  0.892440  1.0
  Fe  Fe148  1  0.444880  0.892440  0.892440  1.0
  Fe  Fe149  1  0.444880  0.770240  0.892440  1.0
  Fe  Fe150  1  0.770240  0.444880  0.892440  1.0
  Fe  Fe151  1  0.892440  0.892440  0.770240  1.0
  Fe  Fe152  1  0.892440  0.892440  0.444880  1.0
  Fe  Fe153  1  0.770240  0.892440  0.444880  1.0
  Fe  Fe154  1  0.444880  0.892440  0.770240  1.0
  Fe  Fe155  1  0.892440  0.770240  0.892440  1.0
  Fe  Fe156  1  0.892440  0.444880  0.892440  1.0
  H  H157  1  0.027900  0.419900  0.524300  1.0
  H  H158  1  0.027900  0.524300  0.419900  1.0
  H  H159  1  0.524300  0.027900  0.027900  1.0
  H  H160  1  0.419900  0.027900  0.027900  1.0
  H  H161  1  0.419900  0.524300  0.027900  1.0
  H  H162  1  0.524300  0.419900  0.027900  1.0
  H  H163  1  0.027900  0.027900  0.524300  1.0
  H  H164  1  0.027900  0.027900  0.419900  1.0
  H  H165  1  0.524300  0.027900  0.419900  1.0
  H  H166  1  0.419900  0.027900  0.524300  1.0
  H  H167  1  0.027900  0.524300  0.027900  1.0
  H  H168  1  0.027900  0.419900  0.027900  1.0
  H  H169  1  0.046400  0.292600  0.763800  1.0
  H  H170  1  0.897200  0.763800  0.292600  1.0
  H  H171  1  0.763800  0.897200  0.046400  1.0
  H  H172  1  0.292600  0.046400  0.897200  1.0
  H  H173  1  0.292600  0.763800  0.046400  1.0
  H  H174  1  0.763800  0.292600  0.897200  1.0
  H  H175  1  0.897200  0.046400  0.763800  1.0
  H  H176  1  0.046400  0.897200  0.292600  1.0
  H  H177  1  0.763800  0.046400  0.292600  1.0
  H  H178  1  0.292600  0.897200  0.763800  1.0
  H  H179  1  0.046400  0.763800  0.897200  1.0
  H  H180  1  0.897200  0.292600  0.046400  1.0
  H  H181  1  0.046400  0.763800  0.292600  1.0
  H  H182  1  0.897200  0.292600  0.763800  1.0
  H  H183  1  0.763800  0.046400  0.897200  1.0
  H  H184  1  0.292600  0.897200  0.046400  1.0
  H  H185  1  0.292600  0.046400  0.763800  1.0
  H  H186  1  0.763800  0.897200  0.292600  1.0
  H  H187  1  0.897200  0.763800  0.046400  1.0
  H  H188  1  0.046400  0.292600  0.897200  1.0
  H  H189  1  0.763800  0.292600  0.046400  1.0
  H  H190  1  0.292600  0.763800  0.897200  1.0
  H  H191  1  0.046400  0.897200  0.763800  1.0
  H  H192  1  0.897200  0.046400  0.292600  1.0
  H  H193  1  0.137100  0.214700  0.751300  1.0
  H  H194  1  0.896900  0.751300  0.214700  1.0
  H  H195  1  0.751300  0.896900  0.137100  1.0
  H  H196  1  0.214700  0.137100  0.896900  1.0
  H  H197  1  0.214700  0.751300  0.137100  1.0
  H  H198  1  0.751300  0.214700  0.896900  1.0
  H  H199  1  0.896900  0.137100  0.751300  1.0
  H  H200  1  0.137100  0.896900  0.214700  1.0
  H  H201  1  0.751300  0.137100  0.214700  1.0
  H  H202  1  0.214700  0.896900  0.751300  1.0
  H  H203  1  0.137100  0.751300  0.896900  1.0
  H  H204  1  0.896900  0.214700  0.137100  1.0
  H  H205  1  0.137100  0.751300  0.214700  1.0
  H  H206  1  0.896900  0.214700  0.751300  1.0
  H  H207  1  0.751300  0.137100  0.896900  1.0
  H  H208  1  0.214700  0.896900  0.137100  1.0
  H  H209  1  0.214700  0.137100  0.751300  1.0
  H  H210  1  0.751300  0.896900  0.214700  1.0
  H  H211  1  0.896900  0.751300  0.137100  1.0
  H  H212  1  0.137100  0.214700  0.896900  1.0
  H  H213  1  0.751300  0.214700  0.137100  1.0
  H  H214  1  0.214700  0.751300  0.896900  1.0
  H  H215  1  0.137100  0.896900  0.751300  1.0
  H  H216  1  0.896900  0.137100  0.214700  1.0
  H  H217  1  0.875500  0.438300  0.669100  1.0
  H  H218  1  0.017100  0.669100  0.438300  1.0
  H  H219  1  0.669100  0.017100  0.875500  1.0
  H  H220  1  0.438300  0.875500  0.017100  1.0
  H  H221  1  0.438300  0.669100  0.875500  1.0
  H  H222  1  0.669100  0.438300  0.017100  1.0
  H  H223  1  0.017100  0.875500  0.669100  1.0
  H  H224  1  0.875500  0.017100  0.438300  1.0
  H  H225  1  0.669100  0.875500  0.438300  1.0
  H  H226  1  0.438300  0.017100  0.669100  1.0
  H  H227  1  0.875500  0.669100  0.017100  1.0
  H  H228  1  0.017100  0.438300  0.875500  1.0
  H  H229  1  0.875500  0.669100  0.438300  1.0
  H  H230  1  0.017100  0.438300  0.669100  1.0
  H  H231  1  0.669100  0.875500  0.017100  1.0
  H  H232  1  0.438300  0.017100  0.875500  1.0
  H  H233  1  0.438300  0.875500  0.669100  1.0
  H  H234  1  0.669100  0.017100  0.438300  1.0
  H  H235  1  0.017100  0.669100  0.875500  1.0
  H  H236  1  0.875500  0.438300  0.017100  1.0
  H  H237  1  0.669100  0.438300  0.875500  1.0
  H  H238  1  0.438300  0.669100  0.017100  1.0
  H  H239  1  0.875500  0.017100  0.669100  1.0
  H  H240  1  0.017100  0.875500  0.438300  1.0
  H  H241  1  0.925700  0.433500  0.568300  1.0
  H  H242  1  0.072500  0.568300  0.433500  1.0
  H  H243  1  0.568300  0.072500  0.925700  1.0
  H  H244  1  0.433500  0.925700  0.072500  1.0
  H  H245  1  0.433500  0.568300  0.925700  1.0
  H  H246  1  0.568300  0.433500  0.072500  1.0
  H  H247  1  0.072500  0.925700  0.568300  1.0
  H  H248  1  0.925700  0.072500  0.433500  1.0
  H  H249  1  0.568300  0.925700  0.433500  1.0
  H  H250  1  0.433500  0.072500  0.568300  1.0
  H  H251  1  0.925700  0.568300  0.072500  1.0
  H  H252  1  0.072500  0.433500  0.925700  1.0
  H  H253  1  0.925700  0.568300  0.433500  1.0
  H  H254  1  0.072500  0.433500  0.568300  1.0
  H  H255  1  0.568300  0.925700  0.072500  1.0
  H  H256  1  0.433500  0.072500  0.925700  1.0
  H  H257  1  0.433500  0.925700  0.568300  1.0
  H  H258  1  0.568300  0.072500  0.433500  1.0
  H  H259  1  0.072500  0.568300  0.925700  1.0
  H  H260  1  0.925700  0.433500  0.072500  1.0
  H  H261  1  0.568300  0.433500  0.925700  1.0
  H  H262  1  0.433500  0.568300  0.072500  1.0
  H  H263  1  0.925700  0.072500  0.568300  1.0
  H  H264  1  0.072500  0.925700  0.433500  1.0
  N  N265  1  0.940700  0.439400  0.679200  1.0
  N  N266  1  0.940700  0.679200  0.439400  1.0
  N  N267  1  0.679200  0.940700  0.940700  1.0
  N  N268  1  0.439400  0.940700  0.940700  1.0
  N  N269  1  0.439400  0.679200  0.940700  1.0
  N  N270  1  0.679200  0.439400  0.940700  1.0
  N  N271  1  0.940700  0.940700  0.679200  1.0
  N  N272  1  0.940700  0.940700  0.439400  1.0
  N  N273  1  0.679200  0.940700  0.439400  1.0
  N  N274  1  0.439400  0.940700  0.679200  1.0
  N  N275  1  0.940700  0.679200  0.940700  1.0
  N  N276  1  0.940700  0.439400  0.940700  1.0
  O  O277  1  0.850390  0.448830  0.850390  1.0
  O  O278  1  0.850390  0.850390  0.448830  1.0
  O  O279  1  0.850390  0.850390  0.850390  1.0
  O  O280  1  0.448830  0.850390  0.850390  1.0
  O  O281  1  0.944420  0.587420  0.734080  1.0
  O  O282  1  0.734080  0.734080  0.587420  1.0
  O  O283  1  0.734080  0.734080  0.944420  1.0
  O  O284  1  0.587420  0.944420  0.734080  1.0
  O  O285  1  0.587420  0.734080  0.944420  1.0
  O  O286  1  0.734080  0.587420  0.734080  1.0
  O  O287  1  0.734080  0.944420  0.734080  1.0
  O  O288  1  0.944420  0.734080  0.587420  1.0
  O  O289  1  0.734080  0.944420  0.587420  1.0
  O  O290  1  0.587420  0.734080  0.734080  1.0
  O  O291  1  0.944420  0.734080  0.734080  1.0
  O  O292  1  0.734080  0.587420  0.944420  1.0
  O  O293  1  0.020700  0.485500  0.746900  1.0
  O  O294  1  0.746900  0.746900  0.485500  1.0
  O  O295  1  0.746900  0.746900  0.020700  1.0
  O  O296  1  0.485500  0.020700  0.746900  1.0
  O  O297  1  0.485500  0.746900  0.020700  1.0
  O  O298  1  0.746900  0.485500  0.746900  1.0
  O  O299  1  0.746900  0.020700  0.746900  1.0
  O  O300  1  0.020700  0.746900  0.485500  1.0
  O  O301  1  0.746900  0.020700  0.485500  1.0
  O  O302  1  0.485500  0.746900  0.746900  1.0
  O  O303  1  0.020700  0.746900  0.746900  1.0
  O  O304  1  0.746900  0.485500  0.020700  1.0
  O  O305  1  0.969430  0.378550  0.785750  1.0
  O  O306  1  0.866270  0.785750  0.378550  1.0
  O  O307  1  0.785750  0.866270  0.969430  1.0
  O  O308  1  0.378550  0.969430  0.866270  1.0
  O  O309  1  0.378550  0.785750  0.969430  1.0
  O  O310  1  0.785750  0.378550  0.866270  1.0
  O  O311  1  0.866270  0.969430  0.785750  1.0
  O  O312  1  0.969430  0.866270  0.378550  1.0
  O  O313  1  0.785750  0.969430  0.378550  1.0
  O  O314  1  0.378550  0.866270  0.785750  1.0
  O  O315  1  0.969430  0.785750  0.866270  1.0
  O  O316  1  0.866270  0.378550  0.969430  1.0
  O  O317  1  0.969430  0.785750  0.378550  1.0
  O  O318  1  0.866270  0.378550  0.785750  1.0
  O  O319  1  0.785750  0.969430  0.866270  1.0
  O  O320  1  0.378550  0.866270  0.969430  1.0
  O  O321  1  0.378550  0.969430  0.785750  1.0
  O  O322  1  0.785750  0.866270  0.378550  1.0
  O  O323  1  0.866270  0.785750  0.969430  1.0
  O  O324  1  0.969430  0.378550  0.866270  1.0
  O  O325  1  0.785750  0.378550  0.969430  1.0
  O  O326  1  0.378550  0.785750  0.866270  1.0
  O  O327  1  0.969430  0.866270  0.785750  1.0
  O  O328  1  0.866270  0.969430  0.378550  1.0
  O  O329  1  0.927590  0.508390  0.737790  1.0
  O  O330  1  0.826230  0.737790  0.508390  1.0
  O  O331  1  0.737790  0.826230  0.927590  1.0
  O  O332  1  0.508390  0.927590  0.826230  1.0
  O  O333  1  0.508390  0.737790  0.927590  1.0
  O  O334  1  0.737790  0.508390  0.826230  1.0
  O  O335  1  0.826230  0.927590  0.737790  1.0
  O  O336  1  0.927590  0.826230  0.508390  1.0
  O  O337  1  0.737790  0.927590  0.508390  1.0
  O  O338  1  0.508390  0.826230  0.737790  1.0
  O  O339  1  0.927590  0.737790  0.826230  1.0
  O  O340  1  0.826230  0.508390  0.927590  1.0
  O  O341  1  0.927590  0.737790  0.508390  1.0
  O  O342  1  0.826230  0.508390  0.737790  1.0
  O  O343  1  0.737790  0.927590  0.826230  1.0
  O  O344  1  0.508390  0.826230  0.927590  1.0
  O  O345  1  0.508390  0.927590  0.737790  1.0
  O  O346  1  0.737790  0.826230  0.508390  1.0
  O  O347  1  0.826230  0.737790  0.927590  1.0
  O  O348  1  0.927590  0.508390  0.826230  1.0
  O  O349  1  0.737790  0.508390  0.927590  1.0
  O  O350  1  0.508390  0.737790  0.826230  1.0
  O  O351  1  0.927590  0.826230  0.737790  1.0
  O  O352  1  0.826230  0.927590  0.508390  1.0
  S  S353  1  0.956630  0.522350  0.760510  1.0
  S  S354  1  0.760510  0.760510  0.522350  1.0
  S  S355  1  0.760510  0.760510  0.956630  1.0
  S  S356  1  0.522350  0.956630  0.760510  1.0
  S  S357  1  0.522350  0.760510  0.956630  1.0
  S  S358  1  0.760510  0.522350  0.760510  1.0
  S  S359  1  0.760510  0.956630  0.760510  1.0
  S  S360  1  0.956630  0.760510  0.522350  1.0
  S  S361  1  0.760510  0.956630  0.522350  1.0
  S  S362  1  0.522350  0.760510  0.760510  1.0
  S  S363  1  0.956630  0.760510  0.760510  1.0
  S  S364  1  0.760510  0.522350  0.956630  1.0
