# generated using pymatgen
data_Fe3H33C45S3N3O19
_symmetry_space_group_name_H-M   'P 1'
_cell_length_a   31.64200000
_cell_length_b   31.76200000
_cell_length_c   31.83000000
_cell_angle_alpha   75.84700000
_cell_angle_beta   75.26400000
_cell_angle_gamma   60.15500000
_symmetry_Int_Tables_number   1
_chemical_formula_structural   Fe3H33C45S3N3O19
_chemical_formula_sum   'Fe24 H264 C360 S24 N24 O152'
_cell_volume   26567.81358991
_cell_formula_units_Z   8
loop_
 _symmetry_equiv_pos_site_id
 _symmetry_equiv_pos_as_xyz
  1  'x, y, z'
loop_
 _atom_site_type_symbol
 _atom_site_label
 _atom_site_symmetry_multiplicity
 _atom_site_fract_x
 _atom_site_fract_y
 _atom_site_fract_z
 _atom_site_occupancy
  Fe  Fe1  1  0.083292  0.577491  0.287177  1
  Fe  Fe2  1  0.916708  0.422509  0.712823  1
  Fe  Fe3  1  0.980455  0.683543  0.285155  1
  Fe  Fe4  1  0.019545  0.316457  0.714845  1
  Fe  Fe5  1  0.034056  0.635467  0.374583  1
  Fe  Fe6  1  0.965944  0.364533  0.625417  1
  Fe  Fe7  1  0.084656  0.292732  0.283598  1
  Fe  Fe8  1  0.915344  0.707268  0.716402  1
  Fe  Fe9  1  0.035478  0.244557  0.374119  1
  Fe  Fe10  1  0.964522  0.755443  0.625881  1
  Fe  Fe11  1  0.979188  0.292338  0.286596  1
  Fe  Fe12  1  0.020812  0.707662  0.713404  1
  Fe  Fe13  1  0.376590  0.863360  0.764147  1
  Fe  Fe14  1  0.623410  0.136640  0.235853  1
  Fe  Fe15  1  0.375120  0.967195  0.769486  1
  Fe  Fe16  1  0.624880  0.032805  0.230514  1
  Fe  Fe17  1  0.270790  0.966348  0.769015  1
  Fe  Fe18  1  0.729210  0.033652  0.230985  1
  Fe  Fe19  1  0.644718  0.635901  0.369917  1
  Fe  Fe20  1  0.355282  0.364099  0.630083  1
  Fe  Fe21  1  0.695206  0.684548  0.280720  1
  Fe  Fe22  1  0.304794  0.315452  0.719280  1
  Fe  Fe23  1  0.696856  0.579115  0.281610  1
  Fe  Fe24  1  0.303144  0.420885  0.718390  1
  H  H25  1  0.168300  0.624900  0.389700  1
  H  H26  1  0.831700  0.375100  0.610300  1
  H  H27  1  0.242700  0.622800  0.389900  1
  H  H28  1  0.757300  0.377200  0.610100  1
  H  H29  1  0.301500  0.557400  0.281100  1
  H  H30  1  0.698500  0.442600  0.718900  1
  H  H31  1  0.227100  0.559500  0.281100  1
  H  H32  1  0.772900  0.440500  0.718900  1
  H  H33  1  0.297800  0.643200  0.373900  1
  H  H34  1  0.702200  0.356800  0.626100  1
  H  H35  1  0.371300  0.642500  0.374400  1
  H  H36  1  0.628700  0.357500  0.625600  1
  H  H37  1  0.443400  0.538800  0.294800  1
  H  H38  1  0.556600  0.461200  0.705200  1
  H  H39  1  0.369900  0.539400  0.294200  1
  H  H40  1  0.630100  0.460600  0.705800  1
  H  H41  1  0.439800  0.626300  0.385300  1
  H  H42  1  0.560200  0.373700  0.614700  1
  H  H43  1  0.512300  0.628300  0.384300  1
  H  H44  1  0.487700  0.371700  0.615700  1
  H  H45  1  0.573600  0.561500  0.276300  1
  H  H46  1  0.426400  0.438500  0.723700  1
  H  H47  1  0.501000  0.559400  0.277300  1
  H  H48  1  0.499000  0.440600  0.722700  1
  H  H49  1  0.958800  0.827700  0.285900  1
  H  H50  1  0.041200  0.172300  0.714100  1
  H  H51  1  0.956300  0.901400  0.288300  1
  H  H52  1  0.043700  0.098600  0.711700  1
  H  H53  1  0.037100  0.836400  0.386100  1
  H  H54  1  0.962900  0.163600  0.613900  1
  H  H55  1  0.039500  0.762700  0.383500  1
  H  H56  1  0.960500  0.237300  0.616500  1
  H  H57  1  0.939400  0.967400  0.304300  1
  H  H58  1  0.060600  0.032600  0.695700  1
  H  H59  1  0.939100  0.040600  0.304200  1
  H  H60  1  0.060900  0.959400  0.695800  1
  H  H61  1  0.049600  0.968700  0.375600  1
  H  H62  1  0.950400  0.031300  0.624400  1
  H  H63  1  0.049800  0.895600  0.375600  1
  H  H64  1  0.950200  0.104400  0.624400  1
  H  H65  1  0.957800  0.096700  0.289100  1
  H  H66  1  0.042200  0.903300  0.710900  1
  H  H67  1  0.959900  0.169200  0.287000  1
  H  H68  1  0.040100  0.830800  0.713000  1
  H  H69  1  0.033200  0.108800  0.389800  1
  H  H70  1  0.966800  0.891200  0.610200  1
  H  H71  1  0.031100  0.036300  0.392000  1
  H  H72  1  0.968900  0.963700  0.608000  1
  H  H73  1  0.156400  0.619500  0.165100  1
  H  H74  1  0.843600  0.380500  0.834900  1
  H  H75  1  0.191300  0.650100  0.099900  1
  H  H76  1  0.808700  0.349900  0.900100  1
  H  H77  1  0.064300  0.775800  0.095700  1
  H  H78  1  0.935700  0.224200  0.904300  1
  H  H79  1  0.029500  0.745300  0.160900  1
  H  H80  1  0.970500  0.254700  0.839100  1
  H  H81  1  0.225500  0.683300  0.050600  1
  H  H82  1  0.774500  0.316700  0.949400  1
  H  H83  1  0.259600  0.717000  0.987000  1
  H  H84  1  0.740400  0.283000  0.013000  1
  H  H85  1  0.125300  0.829800  0.972700  1
  H  H86  1  0.874700  0.170200  0.027300  1
  H  H87  1  0.091100  0.796200  0.036200  1
  H  H88  1  0.908900  0.203800  0.963800  1
  H  H89  1  0.288000  0.743700  0.930000  1
  H  H90  1  0.712000  0.256300  0.070000  1
  H  H91  1  0.323400  0.781400  0.870900  1
  H  H92  1  0.676600  0.218600  0.129100  1
  H  H93  1  0.192900  0.903300  0.868500  1
  H  H94  1  0.807100  0.096700  0.131500  1
  H  H95  1  0.157500  0.865600  0.927600  1
  H  H96  1  0.842500  0.134400  0.072400  1
  H  H97  1  0.456000  0.782900  0.872200  1
  H  H98  1  0.544000  0.217100  0.127800  1
  H  H99  1  0.501400  0.745200  0.929700  1
  H  H100  1  0.498600  0.254800  0.070300  1
  H  H101  1  0.509700  0.868200  0.926400  1
  H  H102  1  0.490300  0.131800  0.073600  1
  H  H103  1  0.464300  0.905800  0.868900  1
  H  H104  1  0.535700  0.094200  0.131100  1
  H  H105  1  0.525400  0.720400  0.989100  1
  H  H106  1  0.474600  0.279600  0.010900  1
  H  H107  1  0.564800  0.686300  0.050300  1
  H  H108  1  0.435200  0.313700  0.949700  1
  H  H109  1  0.596100  0.798300  0.031000  1
  H  H110  1  0.403900  0.201700  0.969000  1
  H  H111  1  0.556800  0.832400  0.969800  1
  H  H112  1  0.443200  0.167600  0.030200  1
  H  H113  1  0.610300  0.652100  0.096100  1
  H  H114  1  0.389700  0.347900  0.903900  1
  H  H115  1  0.643300  0.621700  0.160800  1
  H  H116  1  0.356700  0.378300  0.839200  1
  H  H117  1  0.644700  0.748500  0.156600  1
  H  H118  1  0.355300  0.251500  0.843400  1
  H  H119  1  0.611700  0.778900  0.091900  1
  H  H120  1  0.388300  0.221100  0.908100  1
  H  H121  1  0.509300  0.765600  0.383900  1
  H  H122  1  0.490700  0.234400  0.616100  1
  H  H123  1  0.437400  0.839900  0.386600  1
  H  H124  1  0.562600  0.160100  0.613400  1
  H  H125  1  0.499000  0.899800  0.279700  1
  H  H126  1  0.501000  0.100200  0.720300  1
  H  H127  1  0.570900  0.825600  0.277400  1
  H  H128  1  0.429100  0.174400  0.722600  1
  H  H129  1  0.370900  0.897800  0.376500  1
  H  H130  1  0.629100  0.102200  0.623500  1
  H  H131  1  0.297500  0.970500  0.375900  1
  H  H132  1  0.702500  0.029500  0.624100  1
  H  H133  1  0.368500  0.039700  0.290400  1
  H  H134  1  0.631500  0.960300  0.709600  1
  H  H135  1  0.441800  0.967000  0.291000  1
  H  H136  1  0.558200  0.033000  0.709000  1
  H  H137  1  0.239700  0.038000  0.387800  1
  H  H138  1  0.760300  0.962000  0.612200  1
  H  H139  1  0.165600  0.109700  0.385800  1
  H  H140  1  0.834400  0.890300  0.614200  1
  H  H141  1  0.227300  0.168600  0.278300  1
  H  H142  1  0.772700  0.831400  0.721700  1
  H  H143  1  0.301500  0.096900  0.280200  1
  H  H144  1  0.698500  0.903100  0.719800  1
  H  H145  1  0.316200  0.051700  0.873400  1
  H  H146  1  0.683800  0.948300  0.126600  1
  H  H147  1  0.278400  0.098900  0.930200  1
  H  H148  1  0.721600  0.901100  0.069800  1
  H  H149  1  0.151200  0.099200  0.930700  1
  H  H150  1  0.848800  0.900800  0.069300  1
  H  H151  1  0.189200  0.052100  0.873600  1
  H  H152  1  0.810800  0.947900  0.126400  1
  H  H153  1  0.244600  0.141200  0.977000  1
  H  H154  1  0.755400  0.858800  0.023000  1
  H  H155  1  0.211200  0.178400  0.040100  1
  H  H156  1  0.788800  0.821600  0.959900  1
  H  H157  1  0.086400  0.171300  0.046600  1
  H  H158  1  0.913600  0.828700  0.953400  1
  H  H159  1  0.119800  0.134100  0.983500  1
  H  H160  1  0.880200  0.865900  0.016500  1
  H  H161  1  0.182800  0.206800  0.096100  1
  H  H162  1  0.817200  0.793200  0.903900  1
  H  H163  1  0.150200  0.241000  0.160700  1
  H  H164  1  0.849800  0.759000  0.839300  1
  H  H165  1  0.024000  0.237800  0.164600  1
  H  H166  1  0.976000  0.762200  0.835400  1
  H  H167  1  0.056500  0.203500  0.099900  1
  H  H168  1  0.943500  0.796500  0.900100  1
  H  H169  1  0.185300  0.485900  0.301400  1
  H  H170  1  0.814700  0.514100  0.698600  1
  H  H171  1  0.250500  0.422700  0.265100  1
  H  H172  1  0.749500  0.577300  0.734900  1
  H  H173  1  0.248300  0.417400  0.194300  1
  H  H174  1  0.751700  0.582600  0.805700  1
  H  H175  1  0.181100  0.474800  0.160000  1
  H  H176  1  0.818900  0.525200  0.840000  1
  H  H177  1  0.116200  0.537800  0.196600  1
  H  H178  1  0.883800  0.462200  0.803400  1
  H  H179  1  0.948200  0.720500  0.191000  1
  H  H180  1  0.051800  0.279500  0.809000  1
  H  H181  1  0.885700  0.784900  0.155100  1
  H  H182  1  0.114300  0.215100  0.844900  1
  H  H183  1  0.822600  0.847800  0.192600  1
  H  H184  1  0.177400  0.152200  0.807400  1
  H  H185  1  0.822000  0.846200  0.266000  1
  H  H186  1  0.178000  0.153800  0.734000  1
  H  H187  1  0.884500  0.781800  0.301900  1
  H  H188  1  0.115500  0.218200  0.698100  1
  H  H189  1  0.975700  0.707700  0.444200  1
  H  H190  1  0.024300  0.292300  0.555800  1
  H  H191  1  0.980100  0.717100  0.512700  1
  H  H192  1  0.019900  0.282900  0.487300  1
  H  H193  1  0.045000  0.658000  0.549100  1
  H  H194  1  0.955000  0.342000  0.450900  1
  H  H195  1  0.105400  0.589600  0.516900  1
  H  H196  1  0.894600  0.410400  0.483100  1
  H  H197  1  0.101000  0.580300  0.448300  1
  H  H198  1  0.899000  0.419700  0.551700  1
  H  H199  1  0.114800  0.343500  0.191800  1
  H  H200  1  0.885200  0.656500  0.808200  1
  H  H201  1  0.178100  0.361400  0.153200  1
  H  H202  1  0.821900  0.638600  0.846800  1
  H  H203  1  0.246500  0.336900  0.185200  1
  H  H204  1  0.753500  0.663100  0.814800  1
  H  H205  1  0.251600  0.294300  0.255800  1
  H  H206  1  0.748400  0.705700  0.744200  1
  H  H207  1  0.188400  0.276400  0.294400  1
  H  H208  1  0.811600  0.723600  0.705600  1
  H  H209  1  0.108500  0.196600  0.442600  1
  H  H210  1  0.891500  0.803400  0.557400  1
  H  H211  1  0.114800  0.153800  0.513000  1
  H  H212  1  0.885200  0.846200  0.487000  1
  H  H213  1  0.052200  0.135400  0.552500  1
  H  H214  1  0.947800  0.864600  0.447500  1
  H  H215  1  0.983100  0.159700  0.521500  1
  H  H216  1  0.016900  0.840300  0.478500  1
  H  H217  1  0.976800  0.202500  0.451100  1
  H  H218  1  0.023200  0.797500  0.548900  1
  H  H219  1  0.886300  0.274700  0.303900  1
  H  H220  1  0.113700  0.725300  0.696100  1
  H  H221  1  0.824000  0.288400  0.268500  1
  H  H222  1  0.176000  0.711600  0.731500  1
  H  H223  1  0.820200  0.327800  0.196800  1
  H  H224  1  0.179800  0.672200  0.803200  1
  H  H225  1  0.878600  0.353600  0.160500  1
  H  H226  1  0.121400  0.646400  0.839500  1
  H  H227  1  0.940900  0.340000  0.195900  1
  H  H228  1  0.059100  0.660000  0.804100  1
  H  H229  1  0.357300  0.775500  0.763800  1
  H  H230  1  0.642700  0.224500  0.236200  1
  H  H231  1  0.399900  0.691600  0.762100  1
  H  H232  1  0.600100  0.308400  0.237900  1
  H  H233  1  0.484400  0.649800  0.762000  1
  H  H234  1  0.515600  0.350200  0.238000  1
  H  H235  1  0.526300  0.691900  0.763600  1
  H  H236  1  0.473700  0.308100  0.236400  1
  H  H237  1  0.483700  0.775800  0.765200  1
  H  H238  1  0.516300  0.224200  0.234800  1
  H  H239  1  0.482100  0.947900  0.773700  1
  H  H240  1  0.517900  0.052100  0.226300  1
  H  H241  1  0.521500  0.988100  0.785400  1
  H  H242  1  0.478500  0.011900  0.214600  1
  H  H243  1  0.476700  0.070000  0.795500  1
  H  H244  1  0.523300  0.930000  0.204500  1
  H  H245  1  0.392500  0.111600  0.793900  1
  H  H246  1  0.607500  0.888400  0.206100  1
  H  H247  1  0.353100  0.071400  0.782200  1
  H  H248  1  0.646900  0.928600  0.217800  1
  H  H249  1  0.180700  0.069600  0.782200  1
  H  H250  1  0.819300  0.930400  0.217800  1
  H  H251  1  0.095100  0.109200  0.791600  1
  H  H252  1  0.904900  0.890800  0.208400  1
  H  H253  1  0.053100  0.067100  0.790400  1
  H  H254  1  0.946900  0.932900  0.209600  1
  H  H255  1  0.096600  0.985400  0.779900  1
  H  H256  1  0.903400  0.014600  0.220100  1
  H  H257  1  0.182100  0.945700  0.770500  1
  H  H258  1  0.817900  0.054300  0.229500  1
  H  H259  1  0.598300  0.576600  0.442700  1
  H  H260  1  0.401700  0.423400  0.557300  1
  H  H261  1  0.548600  0.583100  0.510900  1
  H  H262  1  0.451400  0.416900  0.489100  1
  H  H263  1  0.521800  0.650300  0.545600  1
  H  H264  1  0.478200  0.349700  0.454400  1
  H  H265  1  0.544600  0.711200  0.512200  1
  H  H266  1  0.455400  0.288800  0.487800  1
  H  H267  1  0.594300  0.704800  0.444100  1
  H  H268  1  0.405700  0.295200  0.555900  1
  H  H269  1  0.685100  0.782100  0.298200  1
  H  H270  1  0.314900  0.217900  0.701800  1
  H  H271  1  0.702300  0.846300  0.262700  1
  H  H272  1  0.297700  0.153700  0.737300  1
  H  H273  1  0.737900  0.848000  0.189400  1
  H  H274  1  0.262100  0.152000  0.810600  1
  H  H275  1  0.756400  0.785500  0.151500  1
  H  H276  1  0.243600  0.214500  0.848500  1
  H  H277  1  0.739200  0.721400  0.187000  1
  H  H278  1  0.260800  0.278600  0.813000  1
  H  H279  1  0.749200  0.539800  0.190700  1
  H  H280  1  0.250800  0.460200  0.809300  1
  H  H281  1  0.765700  0.476600  0.154800  1
  H  H282  1  0.234300  0.523400  0.845200  1
  H  H283  1  0.739800  0.418400  0.190200  1
  H  H284  1  0.260200  0.581600  0.809800  1
  H  H285  1  0.697400  0.423400  0.261500  1
  H  H286  1  0.302600  0.576600  0.738500  1
  H  H287  1  0.680900  0.486600  0.297300  1
  H  H288  1  0.319100  0.513400  0.702700  1
  C  C289  1  0.141070  0.598060  0.334230  1
  C  C290  1  0.858930  0.401940  0.665770  1
  C  C291  1  0.190540  0.593040  0.335510  1
  C  C292  1  0.809460  0.406960  0.664490  1
  C  C293  1  0.194970  0.611530  0.367950  1
  C  C294  1  0.805030  0.388470  0.632050  1
  C  C295  1  0.239540  0.610130  0.368080  1
  C  C296  1  0.760460  0.389870  0.631920  1
  C  C297  1  0.279450  0.589870  0.335560  1
  C  C298  1  0.720550  0.410130  0.664440  1
  C  C299  1  0.274780  0.571000  0.302910  1
  C  C300  1  0.725220  0.429000  0.697090  1
  C  C301  1  0.230200  0.572400  0.302770  1
  C  C302  1  0.769800  0.427600  0.697230  1
  C  C303  1  0.326570  0.591370  0.333960  1
  C  C304  1  0.673430  0.408630  0.666040  1
  C  C305  1  0.327000  0.622230  0.358000  1
  C  C306  1  0.673000  0.377770  0.642000  1
  C  C307  1  0.371050  0.621820  0.358350  1
  C  C308  1  0.628950  0.378180  0.641650  1
  C  C309  1  0.414660  0.590550  0.334660  1
  C  C310  1  0.585340  0.409450  0.665340  1
  C  C311  1  0.414220  0.559690  0.310620  1
  C  C312  1  0.585780  0.440310  0.689380  1
  C  C313  1  0.370180  0.560100  0.310270  1
  C  C314  1  0.629820  0.439900  0.689730  1
  C  C315  1  0.463230  0.592650  0.331410  1
  C  C316  1  0.536770  0.407350  0.668590  1
  C  C317  1  0.466610  0.613280  0.363440  1
  C  C318  1  0.533390  0.386720  0.636560  1
  C  C319  1  0.510060  0.614510  0.362840  1
  C  C320  1  0.489940  0.385490  0.637160  1
  C  C321  1  0.550140  0.595110  0.330200  1
  C  C322  1  0.449860  0.404890  0.669800  1
  C  C323  1  0.546760  0.574480  0.298170  1
  C  C324  1  0.453240  0.425520  0.701830  1
  C  C325  1  0.503310  0.573250  0.298780  1
  C  C326  1  0.496690  0.426750  0.701220  1
  C  C327  1  0.594310  0.599690  0.328790  1
  C  C328  1  0.405690  0.400310  0.671210  1
  C  C329  1  0.001800  0.740300  0.332580  1
  C  C330  1  0.998200  0.259700  0.667420  1
  C  C331  1  0.999290  0.788550  0.334290  1
  C  C332  1  0.000710  0.211450  0.665710  1
  C  C333  1  0.974480  0.829540  0.305910  1
  C  C334  1  0.025520  0.170460  0.694090  1
  C  C335  1  0.973000  0.873640  0.307380  1
  C  C336  1  0.027000  0.126360  0.692620  1
  C  C337  1  0.996470  0.876210  0.337420  1
  C  C338  1  0.003530  0.123790  0.662580  1
  C  C339  1  0.021420  0.834680  0.365980  1
  C  C340  1  0.978580  0.165320  0.634020  1
  C  C341  1  0.022890  0.790580  0.364520  1
  C  C342  1  0.977110  0.209420  0.635480  1
  C  C343  1  0.994660  0.924210  0.339950  1
  C  C344  1  0.005340  0.075790  0.660050  1
  C  C345  1  0.961490  0.967660  0.318550  1
  C  C346  1  0.038510  0.032340  0.681450  1
  C  C347  1  0.961310  0.011510  0.318530  1
  C  C348  1  0.038690  0.988490  0.681470  1
  C  C349  1  0.994310  0.011920  0.339900  1
  C  C350  1  0.005690  0.988080  0.660100  1
  C  C351  1  0.027480  0.968470  0.361300  1
  C  C352  1  0.972520  0.031530  0.638700  1
  C  C353  1  0.027650  0.924620  0.361320  1
  C  C354  1  0.972350  0.075380  0.638680  1
  C  C355  1  0.994260  0.059310  0.340770  1
  C  C356  1  0.005740  0.940690  0.659230  1
  C  C357  1  0.972920  0.099110  0.309310  1
  C  C358  1  0.027080  0.900890  0.690690  1
  C  C359  1  0.974180  0.142540  0.308020  1
  C  C360  1  0.025820  0.857460  0.691980  1
  C  C361  1  0.996770  0.146170  0.338200  1
  C  C362  1  0.003230  0.853830  0.661800  1
  C  C363  1  0.018110  0.106360  0.369650  1
  C  C364  1  0.981890  0.893640  0.630350  1
  C  C365  1  0.016860  0.062930  0.370940  1
  C  C366  1  0.983140  0.937070  0.629060  1
  C  C367  1  0.999380  0.192610  0.335370  1
  C  C368  1  0.000620  0.807390  0.664630  1
  C  C369  1  0.068560  0.661980  0.212800  1
  C  C370  1  0.931440  0.338020  0.787200  1
  C  C371  1  0.090260  0.679580  0.169750  1
  C  C372  1  0.909740  0.320420  0.830250  1
  C  C373  1  0.138050  0.650960  0.151350  1
  C  C374  1  0.861950  0.349040  0.848650  1
  C  C375  1  0.158860  0.669170  0.112160  1
  C  C376  1  0.841140  0.330830  0.887840  1
  C  C377  1  0.131240  0.715950  0.091320  1
  C  C378  1  0.868760  0.284050  0.908680  1
  C  C379  1  0.082820  0.744530  0.109660  1
  C  C380  1  0.917180  0.255470  0.890340  1
  C  C381  1  0.062020  0.726320  0.148850  1
  C  C382  1  0.937980  0.273680  0.851150  1
  C  C383  1  0.154910  0.736410  0.049680  1
  C  C384  1  0.845090  0.263590  0.950320  1
  C  C385  1  0.205380  0.712700  0.034950  1
  C  C386  1  0.794620  0.287300  0.965050  1
  C  C387  1  0.225830  0.732870  0.996880  1
  C  C388  1  0.774170  0.267130  0.003120  1
  C  C389  1  0.195820  0.776760  0.973540  1
  C  C390  1  0.804180  0.223240  0.026460  1
  C  C391  1  0.145350  0.800480  0.988270  1
  C  C392  1  0.854650  0.199520  0.011730  1
  C  C393  1  0.124900  0.780310  0.026340  1
  C  C394  1  0.875100  0.219690  0.973660  1
  C  C395  1  0.219210  0.800940  0.934650  1
  C  C396  1  0.780790  0.199060  0.065350  1
  C  C397  1  0.268910  0.775720  0.917680  1
  C  C398  1  0.731090  0.224280  0.082320  1
  C  C399  1  0.290110  0.798280  0.882290  1
  C  C400  1  0.709890  0.201720  0.117710  1
  C  C401  1  0.261620  0.846070  0.863870  1
  C  C402  1  0.738380  0.153930  0.136130  1
  C  C403  1  0.211920  0.871290  0.880830  1
  C  C404  1  0.788080  0.128710  0.119170  1
  C  C405  1  0.190710  0.848720  0.916220  1
  C  C406  1  0.809290  0.151280  0.083780  1
  C  C407  1  0.284440  0.871450  0.826660  1
  C  C408  1  0.715560  0.128550  0.173340  1
  C  C409  1  0.427370  0.871720  0.827320  1
  C  C410  1  0.572630  0.128280  0.172680  1
  C  C411  1  0.457930  0.847180  0.863670  1
  C  C412  1  0.542070  0.152820  0.136330  1
  C  C413  1  0.467460  0.799700  0.882690  1
  C  C414  1  0.532540  0.200300  0.117310  1
  C  C415  1  0.494140  0.777310  0.917400  1
  C  C416  1  0.505860  0.222690  0.082600  1
  C  C417  1  0.509950  0.802960  0.933770  1
  C  C418  1  0.490050  0.197040  0.066230  1
  C  C419  1  0.499090  0.851010  0.915430  1
  C  C420  1  0.500910  0.148990  0.084570  1
  C  C421  1  0.472410  0.873400  0.880720  1
  C  C422  1  0.527590  0.126600  0.119280  1
  C  C423  1  0.537210  0.779840  0.973370  1
  C  C424  1  0.462790  0.220160  0.026630  1
  C  C425  1  0.539610  0.736050  0.997490  1
  C  C426  1  0.460390  0.263950  0.002510  1
  C  C427  1  0.563190  0.715570  0.034180  1
  C  C428  1  0.436810  0.284430  0.965820  1
  C  C429  1  0.584360  0.738880  0.046750  1
  C  C430  1  0.415640  0.261120  0.953250  1
  C  C431  1  0.581960  0.782670  0.022630  1
  C  C432  1  0.418040  0.217330  0.977370  1
  C  C433  1  0.558380  0.803150  0.985940  1
  C  C434  1  0.441620  0.196850  0.014060  1
  C  C435  1  0.607730  0.718520  0.087580  1
  C  C436  1  0.392270  0.281480  0.912420  1
  C  C437  1  0.617180  0.671430  0.108230  1
  C  C438  1  0.382820  0.328570  0.891770  1
  C  C439  1  0.636950  0.653210  0.146990  1
  C  C440  1  0.363050  0.346790  0.853010  1
  C  C441  1  0.647270  0.682060  0.165120  1
  C  C442  1  0.352730  0.317940  0.834880  1
  C  C443  1  0.637820  0.729150  0.144480  1
  C  C444  1  0.362180  0.270850  0.855520  1
  C  C445  1  0.618050  0.747380  0.105710  1
  C  C446  1  0.381950  0.252620  0.894290  1
  C  C447  1  0.665490  0.664340  0.208170  1
  C  C448  1  0.334510  0.335660  0.791830  1
  C  C449  1  0.594600  0.741260  0.327800  1
  C  C450  1  0.405400  0.258740  0.672200  1
  C  C451  1  0.546890  0.789520  0.330980  1
  C  C452  1  0.453110  0.210480  0.669020  1
  C  C453  1  0.507220  0.792700  0.363340  1
  C  C454  1  0.492780  0.207300  0.636660  1
  C  C455  1  0.464150  0.837050  0.364710  1
  C  C456  1  0.535850  0.162950  0.635290  1
  C  C457  1  0.461080  0.877170  0.333390  1
  C  C458  1  0.538920  0.122830  0.666610  1
  C  C459  1  0.501080  0.872950  0.300690  1
  C  C460  1  0.498920  0.127050  0.699310  1
  C  C461  1  0.544140  0.828600  0.299310  1
  C  C462  1  0.455860  0.171400  0.700690  1
  C  C463  1  0.413600  0.925230  0.333830  1
  C  C464  1  0.586400  0.074770  0.666170  1
  C  C465  1  0.370370  0.926270  0.359250  1
  C  C466  1  0.629630  0.073730  0.640750  1
  C  C467  1  0.326410  0.969790  0.358870  1
  C  C468  1  0.673590  0.030210  0.641130  1
  C  C469  1  0.325700  0.012280  0.333090  1
  C  C470  1  0.674300  0.987720  0.666910  1
  C  C471  1  0.368930  0.011240  0.307680  1
  C  C472  1  0.631070  0.988760  0.692320  1
  C  C473  1  0.412890  0.967720  0.308050  1
  C  C474  1  0.587110  0.032280  0.691950  1
  C  C475  1  0.277920  0.060310  0.334180  1
  C  C476  1  0.722080  0.939690  0.665820  1
  C  C477  1  0.237210  0.064140  0.365810  1
  C  C478  1  0.762790  0.935860  0.634190  1
  C  C479  1  0.192790  0.107120  0.364640  1
  C  C480  1  0.807210  0.892880  0.635360  1
  C  C481  1  0.189090  0.146270  0.331840  1
  C  C482  1  0.810910  0.853730  0.668160  1
  C  C483  1  0.229810  0.142430  0.300200  1
  C  C484  1  0.770190  0.857570  0.699800  1
  C  C485  1  0.274220  0.099450  0.301370  1
  C  C486  1  0.725780  0.900550  0.698630  1
  C  C487  1  0.141130  0.193190  0.331140  1
  C  C488  1  0.858870  0.806810  0.668860  1
  C  C489  1  0.282600  0.013720  0.833120  1
  C  C490  1  0.717400  0.986280  0.166880  1
  C  C491  1  0.256750  0.047260  0.868350  1
  C  C492  1  0.743250  0.952740  0.131650  1
  C  C493  1  0.283170  0.061210  0.884930  1
  C  C494  1  0.716830  0.938790  0.115070  1
  C  C495  1  0.260510  0.089500  0.918920  1
  C  C496  1  0.739490  0.910500  0.081080  1
  C  C497  1  0.211070  0.103720  0.936060  1
  C  C498  1  0.788930  0.896280  0.063940  1
  C  C499  1  0.184290  0.089640  0.919200  1
  C  C500  1  0.815710  0.910360  0.080800  1
  C  C501  1  0.206950  0.061340  0.885200  1
  C  C502  1  0.793050  0.938660  0.114800  1
  C  C503  1  0.185540  0.133990  0.974010  1
  C  C504  1  0.814460  0.866010  0.025990  1
  C  C505  1  0.212920  0.147250  0.990980  1
  C  C506  1  0.787080  0.852750  0.009020  1
  C  C507  1  0.192890  0.169520  0.028780  1
  C  C508  1  0.807110  0.830480  0.971220  1
  C  C509  1  0.145470  0.178540  0.049620  1
  C  C510  1  0.854530  0.821460  0.950380  1
  C  C511  1  0.118080  0.165280  0.032650  1
  C  C512  1  0.881920  0.834720  0.967350  1
  C  C513  1  0.138120  0.143010  0.994850  1
  C  C514  1  0.861880  0.856990  0.005150  1
  C  C515  1  0.122860  0.201730  0.091590  1
  C  C516  1  0.877140  0.798270  0.908410  1
  C  C517  1  0.150940  0.212980  0.109790  1
  C  C518  1  0.849060  0.787020  0.890210  1
  C  C519  1  0.131450  0.233520  0.148520  1
  C  C520  1  0.868550  0.766480  0.851480  1
  C  C521  1  0.083870  0.242820  0.169050  1
  C  C522  1  0.916130  0.757180  0.830950  1
  C  C523  1  0.055780  0.231580  0.150850  1
  C  C524  1  0.944220  0.768420  0.849150  1
  C  C525  1  0.075280  0.211030  0.112120  1
  C  C526  1  0.924720  0.788970  0.887880  1
  C  C527  1  0.064100  0.261640  0.211870  1
  C  C528  1  0.935900  0.738360  0.788130  1
  C  C529  1  0.184650  0.483350  0.273130  1
  C  C530  1  0.815350  0.516650  0.726870  1
  C  C531  1  0.223560  0.445740  0.251320  1
  C  C532  1  0.776440  0.554260  0.748680  1
  C  C533  1  0.222230  0.442530  0.208940  1
  C  C534  1  0.777770  0.557470  0.791060  1
  C  C535  1  0.182010  0.476930  0.188370  1
  C  C536  1  0.817990  0.523070  0.811630  1
  C  C537  1  0.143110  0.514540  0.210190  1
  C  C538  1  0.856890  0.485460  0.789810  1
  C  C539  1  0.922900  0.745690  0.206070  1
  C  C540  1  0.077100  0.254310  0.793930  1
  C  C541  1  0.885460  0.784280  0.184560  1
  C  C542  1  0.114540  0.215720  0.815440  1
  C  C543  1  0.847640  0.821940  0.207020  1
  C  C544  1  0.152360  0.178060  0.792980  1
  C  C545  1  0.847270  0.821010  0.250990  1
  C  C546  1  0.152730  0.178990  0.749010  1
  C  C547  1  0.884720  0.782420  0.272510  1
  C  C548  1  0.115280  0.217580  0.727490  1
  C  C549  1  0.001680  0.684020  0.458750  1
  C  C550  1  0.998320  0.315980  0.541250  1
  C  C551  1  0.004330  0.689640  0.499810  1
  C  C552  1  0.995670  0.310360  0.500190  1
  C  C553  1  0.043180  0.654280  0.521590  1
  C  C554  1  0.956820  0.345720  0.478410  1
  C  C555  1  0.079390  0.613310  0.502310  1
  C  C556  1  0.920610  0.386690  0.497690  1
  C  C557  1  0.076740  0.607690  0.461250  1
  C  C558  1  0.923260  0.392310  0.538750  1
  C  C559  1  0.142260  0.333610  0.204640  1
  C  C560  1  0.857740  0.666390  0.795360  1
  C  C561  1  0.180150  0.344370  0.181520  1
  C  C562  1  0.819850  0.655630  0.818480  1
  C  C563  1  0.221120  0.329660  0.200700  1
  C  C564  1  0.778880  0.670340  0.799300  1
  C  C565  1  0.224210  0.304180  0.242990  1
  C  C566  1  0.775790  0.695820  0.757010  1
  C  C567  1  0.186320  0.293410  0.266110  1
  C  C568  1  0.813680  0.706590  0.733890  1
  C  C569  1  0.083360  0.189180  0.458390  1
  C  C570  1  0.916640  0.810820  0.541610  1
  C  C571  1  0.087170  0.163550  0.500600  1
  C  C572  1  0.912830  0.836450  0.499400  1
  C  C573  1  0.049620  0.152520  0.524250  1
  C  C574  1  0.950380  0.847480  0.475750  1
  C  C575  1  0.008260  0.167110  0.505700  1
  C  C576  1  0.991740  0.832890  0.494300  1
  C  C577  1  0.004450  0.192730  0.463490  1
  C  C578  1  0.995550  0.807270  0.536510  1
  C  C579  1  0.884790  0.290550  0.275150  1
  C  C580  1  0.115210  0.709450  0.724850  1
  C  C581  1  0.847470  0.298730  0.253940  1
  C  C582  1  0.152530  0.701270  0.746060  1
  C  C583  1  0.845160  0.322370  0.210990  1
  C  C584  1  0.154840  0.677630  0.789010  1
  C  C585  1  0.880170  0.337820  0.189250  1
  C  C586  1  0.119830  0.662180  0.810750  1
  C  C587  1  0.917490  0.329630  0.210460  1
  C  C588  1  0.082510  0.670370  0.789540  1
  C  C589  1  0.391140  0.758760  0.763730  1
  C  C590  1  0.608860  0.241240  0.236270  1
  C  C591  1  0.416670  0.708480  0.762750  1
  C  C592  1  0.583330  0.291520  0.237250  1
  C  C593  1  0.467330  0.683410  0.762700  1
  C  C594  1  0.532670  0.316590  0.237300  1
  C  C595  1  0.492450  0.708630  0.763630  1
  C  C596  1  0.507550  0.291370  0.236370  1
  C  C597  1  0.466920  0.758920  0.764610  1
  C  C598  1  0.533080  0.241080  0.235390  1
  C  C599  1  0.464150  0.980690  0.777760  1
  C  C600  1  0.535850  0.019310  0.222240  1
  C  C601  1  0.487770  0.004790  0.784750  1
  C  C602  1  0.512230  0.995210  0.215250  1
  C  C603  1  0.460930  0.053850  0.790790  1
  C  C604  1  0.539070  0.946150  0.209210  1
  C  C605  1  0.410470  0.078800  0.789850  1
  C  C606  1  0.589530  0.921200  0.210150  1
  C  C607  1  0.386840  0.054690  0.782860  1
  C  C608  1  0.613160  0.945310  0.217140  1
  C  C609  1  0.163800  0.052700  0.781760  1
  C  C610  1  0.836200  0.947300  0.218240  1
  C  C611  1  0.112540  0.076440  0.787390  1
  C  C612  1  0.887460  0.923560  0.212610  1
  C  C613  1  0.087350  0.051210  0.786680  1
  C  C614  1  0.912650  0.948790  0.213320  1
  C  C615  1  0.113410  0.002240  0.780350  1
  C  C616  1  0.886590  0.997760  0.219650  1
  C  C617  1  0.164660  0.978500  0.774720  1
  C  C618  1  0.835340  0.021500  0.225280  1
  C  C619  1  0.587510  0.603610  0.456650  1
  C  C620  1  0.412490  0.396390  0.543350  1
  C  C621  1  0.557750  0.607460  0.497490  1
  C  C622  1  0.442250  0.392540  0.502510  1
  C  C623  1  0.541670  0.647760  0.518320  1
  C  C624  1  0.458330  0.352240  0.481680  1
  C  C625  1  0.555350  0.684210  0.498300  1
  C  C626  1  0.444650  0.315790  0.501700  1
  C  C627  1  0.585110  0.680370  0.457460  1
  C  C628  1  0.414890  0.319630  0.542540  1
  C  C629  1  0.699420  0.782820  0.268780  1
  C  C630  1  0.300580  0.217180  0.731220  1
  C  C631  1  0.709690  0.821240  0.247520  1
  C  C632  1  0.290310  0.178760  0.752480  1
  C  C633  1  0.731030  0.822250  0.203580  1
  C  C634  1  0.268970  0.177750  0.796420  1
  C  C635  1  0.742090  0.784840  0.180910  1
  C  C636  1  0.257910  0.215160  0.819090  1
  C  C637  1  0.731820  0.746420  0.202170  1
  C  C638  1  0.268180  0.253580  0.797830  1
  C  C639  1  0.738830  0.516450  0.204870  1
  C  C640  1  0.261170  0.483550  0.795130  1
  C  C641  1  0.748700  0.478580  0.183400  1
  C  C642  1  0.251300  0.521420  0.816600  1
  C  C643  1  0.733160  0.443700  0.204600  1
  C  C644  1  0.266840  0.556300  0.795400  1
  C  C645  1  0.707760  0.446700  0.247280  1
  C  C646  1  0.292240  0.553300  0.752720  1
  C  C647  1  0.697900  0.484580  0.268750  1
  C  C648  1  0.302100  0.515420  0.731250  1
  S  S649  1  0.996840  0.595300  0.239650  1
  S  S650  1  0.003160  0.404700  0.760350  1
  S  S651  1  0.083580  0.518640  0.384760  1
  S  S652  1  0.916420  0.481360  0.615240  1
  S  S653  1  0.915790  0.689970  0.380760  1
  S  S654  1  0.084210  0.310030  0.619240  1
  S  S655  1  0.090040  0.305020  0.378540  1
  S  S656  1  0.909960  0.694980  0.621460  1
  S  S657  1  0.995910  0.385840  0.239420  1
  S  S658  1  0.004090  0.614160  0.760580  1
  S  S659  1  0.917660  0.305370  0.383620  1
  S  S660  1  0.082340  0.694630  0.616380  1
  S  S661  1  0.463340  0.889060  0.710240  1
  S  S662  1  0.536660  0.110940  0.289760  1
  S  S663  1  0.293010  0.888130  0.709140  1
  S  S664  1  0.706990  0.111870  0.290860  1
  S  S665  1  0.289220  0.058340  0.721430  1
  S  S666  1  0.710780  0.941660  0.278570  1
  S  S667  1  0.705580  0.689250  0.376640  1
  S  S668  1  0.294420  0.310750  0.623360  1
  S  S669  1  0.704570  0.518930  0.377890  1
  S  S670  1  0.295430  0.481070  0.622110  1
  S  S671  1  0.790420  0.596610  0.234890  1
  S  S672  1  0.209580  0.403390  0.765110  1
  N  N673  1  0.145060  0.516820  0.252140  1
  N  N674  1  0.854940  0.483180  0.747860  1
  N  N675  1  0.922530  0.744760  0.250050  1
  N  N676  1  0.077470  0.255240  0.749950  1
  N  N677  1  0.037890  0.643050  0.439460  1
  N  N678  1  0.962110  0.356950  0.560540  1
  N  N679  1  0.145340  0.308130  0.246930  1
  N  N680  1  0.854660  0.691870  0.753070  1
  N  N681  1  0.042000  0.203770  0.439830  1
  N  N682  1  0.958000  0.796230  0.560170  1
  N  N683  1  0.919800  0.306000  0.253410  1
  N  N684  1  0.080200  0.694000  0.746590  1
  N  N685  1  0.416260  0.783980  0.764660  1
  N  N686  1  0.583740  0.216020  0.235340  1
  N  N687  1  0.413680  0.005640  0.776810  1
  N  N688  1  0.586320  0.994360  0.223190  1
  N  N689  1  0.189860  0.003730  0.775430  1
  N  N690  1  0.810140  0.996270  0.224570  1
  N  N691  1  0.601190  0.640070  0.436630  1
  N  N692  1  0.398810  0.359930  0.563370  1
  N  N693  1  0.710480  0.745410  0.246110  1
  N  N694  1  0.289520  0.254590  0.753890  1
  N  N695  1  0.713430  0.519450  0.247550  1
  N  N696  1  0.286570  0.480550  0.752450  1
  O  O697  1  0.031830  0.631760  0.316210  1
  O  O698  1  0.968170  0.368240  0.683790  1
  O  O699  1  0.924890  0.688000  0.333070  1
  O  O700  1  0.075110  0.312000  0.666930  1
  O  O701  1  0.880880  0.672470  0.402170  1
  O  O702  1  0.119120  0.327530  0.597830  1
  O  O703  1  0.899740  0.739920  0.387660  1
  O  O704  1  0.100260  0.260080  0.612340  1
  O  O705  1  0.963400  0.656200  0.397950  1
  O  O706  1  0.036600  0.343800  0.602050  1
  O  O707  1  0.048340  0.567370  0.399760  1
  O  O708  1  0.951660  0.432630  0.600240  1
  O  O709  1  0.131840  0.503140  0.394970  1
  O  O710  1  0.868160  0.496860  0.605030  1
  O  O711  1  0.064420  0.484430  0.404960  1
  O  O712  1  0.935580  0.515570  0.595040  1
  O  O713  1  0.087100  0.524570  0.336820  1
  O  O714  1  0.912900  0.475430  0.663180  1
  O  O715  1  0.039720  0.563720  0.263740  1
  O  O716  1  0.960280  0.436280  0.736260  1
  O  O717  1  0.013760  0.604960  0.193930  1
  O  O718  1  0.986240  0.395040  0.806070  1
  O  O719  1  0.965750  0.571390  0.248700  1
  O  O720  1  0.034250  0.428610  0.751300  1
  O  O721  1  0.966690  0.642180  0.258800  1
  O  O722  1  0.033310  0.357820  0.741200  1
  O  O723  1  0.983980  0.738870  0.302480  1
  O  O724  1  0.016020  0.261130  0.697520  1
  O  O725  1  0.022350  0.705390  0.361130  1
  O  O726  1  0.977650  0.294610  0.638870  1
  O  O727  1  0.106440  0.617350  0.363190  1
  O  O728  1  0.893560  0.382650  0.636810  1
  O  O729  1  0.138670  0.581770  0.302860  1
  O  O730  1  0.861330  0.418230  0.697140  1
  O  O731  1  0.093920  0.618720  0.230030  1
  O  O732  1  0.906080  0.381280  0.769970  1
  O  O733  1  0.026100  0.690830  0.229580  1
  O  O734  1  0.973900  0.309170  0.770420  1
  O  O735  1  0.032800  0.277440  0.314650  1
  O  O736  1  0.967200  0.722560  0.685350  1
  O  O737  1  0.091130  0.318530  0.330800  1
  O  O738  1  0.908870  0.681470  0.669200  1
  O  O739  1  0.074330  0.347530  0.397510  1
  O  O740  1  0.925670  0.652470  0.602490  1
  O  O741  1  0.139010  0.266800  0.386620  1
  O  O742  1  0.860990  0.733200  0.613380  1
  O  O743  1  0.054440  0.285040  0.396360  1
  O  O744  1  0.945560  0.714960  0.603640  1
  O  O745  1  0.965970  0.285340  0.398490  1
  O  O746  1  0.034030  0.714660  0.601510  1
  O  O747  1  0.902410  0.268000  0.393840  1
  O  O748  1  0.097590  0.732000  0.606160  1
  O  O749  1  0.882840  0.349180  0.402440  1
  O  O750  1  0.117160  0.650820  0.597560  1
  O  O751  1  0.924940  0.318450  0.335280  1
  O  O752  1  0.075060  0.681550  0.664720  1
  O  O753  1  0.965110  0.360830  0.260920  1
  O  O754  1  0.034890  0.639170  0.739080  1
  O  O755  1  0.008240  0.383220  0.193070  1
  O  O756  1  0.991760  0.616780  0.806930  1
  O  O757  1  0.968110  0.436220  0.249490  1
  O  O758  1  0.031890  0.563780  0.750510  1
  O  O759  1  0.041130  0.361320  0.260320  1
  O  O760  1  0.958870  0.638680  0.739680  1
  O  O761  1  0.139860  0.225880  0.298960  1
  O  O762  1  0.860140  0.774120  0.701040  1
  O  O763  1  0.106670  0.193960  0.360850  1
  O  O764  1  0.893330  0.806040  0.639150  1
  O  O765  1  0.019170  0.193590  0.363970  1
  O  O766  1  0.980830  0.806410  0.636030  1
  O  O767  1  0.983130  0.225200  0.304640  1
  O  O768  1  0.016870  0.774800  0.695360  1
  O  O769  1  0.021610  0.267750  0.229590  1
  O  O770  1  0.978390  0.732250  0.770410  1
  O  O771  1  0.091870  0.268920  0.227640  1
  O  O772  1  0.908130  0.731080  0.772360  1
  O  O773  1  0.341230  0.932390  0.766570  1
  O  O774  1  0.658770  0.067610  0.233430  1
  O  O775  1  0.432140  0.864340  0.718870  1
  O  O776  1  0.567860  0.135660  0.281130  1
  O  O777  1  0.482420  0.893150  0.664690  1
  O  O778  1  0.517580  0.106850  0.335310  1
  O  O779  1  0.501210  0.863150  0.737570  1
  O  O780  1  0.498790  0.136850  0.262430  1
  O  O781  1  0.430860  0.939530  0.721960  1
  O  O782  1  0.569140  0.060470  0.278040  1
  O  O783  1  0.342530  0.025370  0.726950  1
  O  O784  1  0.657470  0.974630  0.273050  1
  O  O785  1  0.265230  0.090020  0.755430  1
  O  O786  1  0.734770  0.909980  0.244570  1
  O  O787  1  0.287780  0.083700  0.677750  1
  O  O788  1  0.712220  0.916300  0.322250  1
  O  O789  1  0.266430  0.025270  0.727360  1
  O  O790  1  0.733570  0.974730  0.272640  1
  O  O791  1  0.268460  0.938600  0.721340  1
  O  O792  1  0.731540  0.061400  0.278660  1
  O  O793  1  0.266480  0.861880  0.736890  1
  O  O794  1  0.733520  0.138120  0.263110  1
  O  O795  1  0.293810  0.892840  0.662950  1
  O  O796  1  0.706190  0.107160  0.337050  1
  O  O797  1  0.344630  0.863970  0.718390  1
  O  O798  1  0.655370  0.136030  0.281610  1
  O  O799  1  0.415490  0.846800  0.812350  1
  O  O800  1  0.584510  0.153200  0.187650  1
  O  O801  1  0.414360  0.916940  0.815680  1
  O  O802  1  0.585640  0.083060  0.184320  1
  O  O803  1  0.327740  0.001780  0.819820  1
  O  O804  1  0.672260  0.998220  0.180180  1
  O  O805  1  0.256910  0.001090  0.820200  1
  O  O806  1  0.743090  0.998910  0.179800  1
  O  O807  1  0.258180  0.915800  0.814690  1
  O  O808  1  0.741820  0.084200  0.185310  1
  O  O809  1  0.329820  0.846750  0.812110  1
  O  O810  1  0.670180  0.153250  0.187890  1
  O  O811  1  0.679680  0.632800  0.311190  1
  O  O812  1  0.320320  0.367200  0.688810  1
  O  O813  1  0.763880  0.643230  0.254430  1
  O  O814  1  0.236120  0.356770  0.745570  1
  O  O815  1  0.787610  0.606050  0.189130  1
  O  O816  1  0.212390  0.393950  0.810870  1
  O  O817  1  0.840780  0.571710  0.245230  1
  O  O818  1  0.159220  0.428290  0.754770  1
  O  O819  1  0.765800  0.565870  0.257790  1
  O  O820  1  0.234200  0.434130  0.742210  1
  O  O821  1  0.722020  0.525550  0.330140  1
  O  O822  1  0.277980  0.474450  0.669860  1
  O  O823  1  0.746520  0.483130  0.399160  1
  O  O824  1  0.253480  0.516870  0.600840  1
  O  O825  1  0.665630  0.504900  0.385890  1
  O  O826  1  0.334370  0.495100  0.614110  1
  O  O827  1  0.684830  0.567040  0.394300  1
  O  O828  1  0.315170  0.432960  0.605700  1
  O  O829  1  0.683280  0.655170  0.393470  1
  O  O830  1  0.316720  0.344830  0.606530  1
  O  O831  1  0.668770  0.738780  0.383380  1
  O  O832  1  0.331230  0.261220  0.616620  1
  O  O833  1  0.747640  0.671790  0.397460  1
  O  O834  1  0.252360  0.328210  0.602540  1
  O  O835  1  0.722420  0.688300  0.328230  1
  O  O836  1  0.277580  0.311700  0.671770  1
  O  O837  1  0.670450  0.692590  0.225320  1
  O  O838  1  0.329550  0.307410  0.774680  1
  O  O839  1  0.674090  0.620910  0.225230  1
  O  O840  1  0.325910  0.379090  0.774770  1
  O  O841  1  0.628750  0.583520  0.297940  1
  O  O842  1  0.371250  0.416480  0.702060  1
  O  O843  1  0.595310  0.619260  0.358140  1
  O  O844  1  0.404690  0.380740  0.641860  1
  O  O845  1  0.593340  0.706670  0.357440  1
  O  O846  1  0.406660  0.293330  0.642560  1
  O  O847  1  0.628200  0.739360  0.298370  1
  O  O848  1  0.371800  0.260640  0.701630  1
