# generated using pymatgen
data_Cr2P8H152Pd3C162S2N6(O3F)6
_symmetry_space_group_name_H-M   'P 1'
_cell_length_a   18.44070000
_cell_length_b   22.00370000
_cell_length_c   27.19250000
_cell_angle_alpha   104.14600000
_cell_angle_beta   109.29800000
_cell_angle_gamma   95.52200000
_symmetry_Int_Tables_number   1
_chemical_formula_structural   Cr2P8H152Pd3C162S2N6(O3F)6
_chemical_formula_sum   'Cr4 P16 H304 Pd6 C324 S4 N12 O36 F12'
_cell_volume   9907.33977816
_cell_formula_units_Z   2
loop_
 _symmetry_equiv_pos_site_id
 _symmetry_equiv_pos_as_xyz
  1  'x, y, z'
loop_
 _atom_site_type_symbol
 _atom_site_label
 _atom_site_symmetry_multiplicity
 _atom_site_fract_x
 _atom_site_fract_y
 _atom_site_fract_z
 _atom_site_occupancy
  Cr  Cr1  1  0.544440  0.681700  0.549430  1
  Cr  Cr2  1  0.455560  0.318300  0.450570  1
  Cr  Cr3  1  0.350570  0.876550  0.876540  1
  Cr  Cr4  1  0.649430  0.123450  0.123460  1
  P  P5  1  0.052100  0.787500  0.435350  1
  P  P6  1  0.947900  0.212500  0.564650  1
  P  P7  1  0.790200  0.143800  0.879140  1
  P  P8  1  0.209800  0.856200  0.120860  1
  P  P9  1  0.846900  0.084400  0.782780  1
  P  P10  1  0.153100  0.915600  0.217220  1
  P  P11  1  0.994100  0.854400  0.531510  1
  P  P12  1  0.005900  0.145600  0.468490  1
  P  P13  1  0.557800  0.427900  0.781600  1
  P  P14  1  0.442200  0.572100  0.218400  1
  P  P15  1  0.514400  0.497000  0.882100  1
  P  P16  1  0.485600  0.503000  0.117900  1
  P  P17  1  0.559600  0.505900  0.913900  1
  P  P18  1  0.440400  0.494100  0.086100  1
  P  P19  1  0.618000  0.437700  0.819600  1
  P  P20  1  0.382000  0.562300  0.180400  1
  H  H21  1  0.252800  0.828000  0.539800  1
  H  H22  1  0.747200  0.172000  0.460200  1
  H  H23  1  0.364200  0.781600  0.541700  1
  H  H24  1  0.635800  0.218400  0.458300  1
  H  H25  1  0.228000  0.607900  0.501600  1
  H  H26  1  0.772000  0.392100  0.498400  1
  H  H27  1  0.123300  0.659300  0.509400  1
  H  H28  1  0.876700  0.340700  0.490600  1
  H  H29  1  0.311900  0.574800  0.467900  1
  H  H30  1  0.688100  0.425200  0.532100  1
  H  H31  1  0.395000  0.505200  0.400300  1
  H  H32  1  0.605000  0.494800  0.599700  1
  H  H33  1  0.355000  0.482100  0.438400  1
  H  H34  1  0.645000  0.517900  0.561600  1
  H  H35  1  0.445300  0.480100  0.449000  1
  H  H36  1  0.554700  0.519900  0.551000  1
  H  H37  1  0.727400  0.913000  0.770000  1
  H  H38  1  0.272600  0.087000  0.230000  1
  H  H39  1  0.676800  0.825500  0.693200  1
  H  H40  1  0.323200  0.174500  0.306800  1
  H  H41  1  0.585500  0.942900  0.605400  1
  H  H42  1  0.414500  0.057100  0.394600  1
  H  H43  1  0.648700  0.028100  0.683300  1
  H  H44  1  0.351300  0.971900  0.316700  1
  H  H45  1  0.584300  0.867300  0.535700  1
  H  H46  1  0.415700  0.132700  0.464300  1
  H  H47  1  0.553500  0.760200  0.414100  1
  H  H48  1  0.446500  0.239800  0.585900  1
  H  H49  1  0.562000  0.833800  0.445600  1
  H  H50  1  0.438000  0.166200  0.554400  1
  H  H51  1  0.477800  0.787600  0.418500  1
  H  H52  1  0.522200  0.212400  0.581500  1
  H  H53  1  0.690100  0.593400  0.806300  1
  H  H54  1  0.309900  0.406600  0.193700  1
  H  H55  1  0.717700  0.637300  0.741900  1
  H  H56  1  0.282300  0.362700  0.258100  1
  H  H57  1  0.488700  0.587200  0.650200  1
  H  H58  1  0.511300  0.412800  0.349800  1
  H  H59  1  0.467900  0.542700  0.714700  1
  H  H60  1  0.532100  0.457300  0.285300  1
  H  H61  1  0.729100  0.647800  0.670800  1
  H  H62  1  0.270900  0.352200  0.329200  1
  H  H63  1  0.781700  0.631600  0.566800  1
  H  H64  1  0.218300  0.368400  0.433200  1
  H  H65  1  0.819600  0.667900  0.630800  1
  H  H66  1  0.180400  0.332100  0.369200  1
  H  H67  1  0.796900  0.708000  0.588000  1
  H  H68  1  0.203100  0.292000  0.412000  1
  H  H69  1  0.051800  0.725100  0.601800  1
  H  H70  1  0.948200  0.274900  0.398200  1
  H  H71  1  0.099400  0.730700  0.694500  1
  H  H72  1  0.900600  0.269300  0.305500  1
  H  H73  1  0.254500  0.887000  0.723000  1
  H  H74  1  0.745500  0.113000  0.277000  1
  H  H75  1  0.206500  0.880800  0.631400  1
  H  H76  1  0.793500  0.119200  0.368600  1
  H  H77  1  0.113800  0.794300  0.785200  1
  H  H78  1  0.886200  0.205700  0.214800  1
  H  H79  1  0.145700  0.759400  0.899000  1
  H  H80  1  0.854300  0.240600  0.101000  1
  H  H81  1  0.085700  0.793700  0.862900  1
  H  H82  1  0.914300  0.206300  0.137100  1
  H  H83  1  0.147000  0.833900  0.922100  1
  H  H84  1  0.853000  0.166100  0.077900  1
  H  H85  1  0.573900  0.080600  0.777100  1
  H  H86  1  0.426100  0.919400  0.222900  1
  H  H87  1  0.461300  0.050200  0.789400  1
  H  H88  1  0.538700  0.949800  0.210600  1
  H  H89  1  0.567000  0.932500  0.869000  1
  H  H90  1  0.433000  0.067500  0.131000  1
  H  H91  1  0.680400  0.970500  0.860300  1
  H  H92  1  0.319600  0.029500  0.139700  1
  H  H93  1  0.364100  0.025000  0.807900  1
  H  H94  1  0.635900  0.975000  0.192100  1
  H  H95  1  0.194000  0.007400  0.836100  1
  H  H96  1  0.806000  0.992600  0.163900  1
  H  H97  1  0.241000  0.046400  0.809900  1
  H  H98  1  0.759000  0.953600  0.190100  1
  H  H99  1  0.261400  0.068200  0.874300  1
  H  H100  1  0.738600  0.931800  0.125700  1
  H  H101  1  0.429500  0.595600  0.802600  1
  H  H102  1  0.570500  0.404400  0.197400  1
  H  H103  1  0.385200  0.690000  0.829800  1
  H  H104  1  0.614800  0.310000  0.170200  1
  H  H105  1  0.600900  0.762500  0.939700  1
  H  H106  1  0.399100  0.237500  0.060300  1
  H  H107  1  0.639100  0.668900  0.910100  1
  H  H108  1  0.360900  0.331100  0.089900  1
  H  H109  1  0.549200  0.829300  0.978100  1
  H  H110  1  0.450800  0.170700  0.021900  1
  H  H111  1  0.555000  0.968300  0.038800  1
  H  H112  1  0.445000  0.031700  0.961200  1
  H  H113  1  0.550000  0.905500  0.058200  1
  H  H114  1  0.450000  0.094500  0.941800  1
  H  H115  1  0.482900  0.947100  0.055300  1
  H  H116  1  0.517100  0.052900  0.944700  1
  H  H117  1  0.077400  0.893700  0.435200  1
  H  H118  1  0.922600  0.106300  0.564800  1
  H  H119  1  0.015400  0.851100  0.377100  1
  H  H120  1  0.984600  0.148900  0.622900  1
  H  H121  1  0.946200  0.918100  0.415000  1
  H  H122  1  0.053800  0.081900  0.585000  1
  H  H123  1  0.916900  0.849300  0.419000  1
  H  H124  1  0.083100  0.150700  0.581000  1
  H  H125  1  0.947200  0.938100  0.501800  1
  H  H126  1  0.052800  0.061900  0.498200  1
  H  H127  1  0.037300  0.942600  0.509100  1
  H  H128  1  0.962700  0.057400  0.490900  1
  H  H129  1  0.194400  0.861300  0.439000  1
  H  H130  1  0.805600  0.138700  0.561000  1
  H  H131  1  0.297600  0.836300  0.410800  1
  H  H132  1  0.702400  0.163700  0.589200  1
  H  H133  1  0.296600  0.730400  0.366800  1
  H  H134  1  0.703400  0.269600  0.633200  1
  H  H135  1  0.192400  0.649400  0.351100  1
  H  H136  1  0.807600  0.350600  0.648900  1
  H  H137  1  0.089200  0.674400  0.379400  1
  H  H138  1  0.910800  0.325600  0.620600  1
  H  H139  1  0.995300  0.671100  0.445700  1
  H  H140  1  0.004700  0.328900  0.554300  1
  H  H141  1  0.894900  0.585400  0.393000  1
  H  H142  1  0.105100  0.414600  0.607000  1
  H  H143  1  0.804500  0.587400  0.308200  1
  H  H144  1  0.195500  0.412600  0.691800  1
  H  H145  1  0.823400  0.677600  0.279600  1
  H  H146  1  0.176600  0.322400  0.720400  1
  H  H147  1  0.924200  0.764600  0.329900  1
  H  H148  1  0.075800  0.235400  0.670100  1
  H  H149  1  0.084900  0.978600  0.599900  1
  H  H150  1  0.915100  0.021400  0.400100  1
  H  H151  1  0.119900  0.035200  0.691900  1
  H  H152  1  0.880100  0.964800  0.308100  1
  H  H153  1  0.074000  0.990500  0.748300  1
  H  H154  1  0.926000  0.009500  0.251700  1
  H  H155  1  0.993100  0.889300  0.712800  1
  H  H156  1  0.006900  0.110700  0.287200  1
  H  H157  1  0.958000  0.832800  0.620800  1
  H  H158  1  0.042000  0.167200  0.379200  1
  H  H159  1  0.925000  0.721500  0.503300  1
  H  H160  1  0.075000  0.278500  0.496700  1
  H  H161  1  0.798700  0.664100  0.479000  1
  H  H162  1  0.201300  0.335900  0.521000  1
  H  H163  1  0.692300  0.717900  0.466300  1
  H  H164  1  0.307700  0.282100  0.533700  1
  H  H165  1  0.713300  0.826000  0.483500  1
  H  H166  1  0.286700  0.174000  0.516500  1
  H  H167  1  0.836800  0.883300  0.508200  1
  H  H168  1  0.163200  0.116700  0.491800  1
  H  H169  1  0.783100  0.226600  0.840700  1
  H  H170  1  0.216900  0.773400  0.159300  1
  H  H171  1  0.844200  0.250400  0.902200  1
  H  H172  1  0.155800  0.749600  0.097800  1
  H  H173  1  0.917800  0.254100  0.847900  1
  H  H174  1  0.082200  0.745900  0.152100  1
  H  H175  1  0.937100  0.195600  0.871900  1
  H  H176  1  0.062900  0.804400  0.128100  1
  H  H177  1  0.917100  0.172700  0.777300  1
  H  H178  1  0.082900  0.827300  0.222700  1
  H  H179  1  0.827800  0.179600  0.765100  1
  H  H180  1  0.172200  0.820400  0.234900  1
  H  H181  1  0.654000  0.196600  0.841700  1
  H  H182  1  0.346000  0.803400  0.158300  1
  H  H183  1  0.555800  0.228700  0.874200  1
  H  H184  1  0.444200  0.771300  0.125800  1
  H  H185  1  0.554400  0.209300  0.954800  1
  H  H186  1  0.445600  0.790700  0.045200  1
  H  H187  1  0.652800  0.168800  0.005800  1
  H  H188  1  0.347200  0.831200  0.994200  1
  H  H189  1  0.752800  0.139700  0.976100  1
  H  H190  1  0.247200  0.860300  0.023900  1
  H  H191  1  0.826700  0.032600  0.909800  1
  H  H192  1  0.173300  0.967400  0.090200  1
  H  H193  1  0.920200  0.012400  0.984800  1
  H  H194  1  0.079800  0.987600  0.015200  1
  H  H195  1  0.014300  0.096500  0.051800  1
  H  H196  1  0.985700  0.903500  0.948200  1
  H  H197  1  0.016800  0.198400  0.044100  1
  H  H198  1  0.983200  0.801600  0.955900  1
  H  H199  1  0.919300  0.220000  0.972400  1
  H  H200  1  0.080700  0.780000  0.027600  1
  H  H201  1  0.880300  0.970600  0.721800  1
  H  H202  1  0.119700  0.029400  0.278200  1
  H  H203  1  0.841900  0.917900  0.628300  1
  H  H204  1  0.158100  0.082100  0.371700  1
  H  H205  1  0.771400  0.963200  0.561600  1
  H  H206  1  0.228600  0.036800  0.438400  1
  H  H207  1  0.735200  0.059400  0.588200  1
  H  H208  1  0.264800  0.940600  0.411800  1
  H  H209  1  0.770800  0.112300  0.681700  1
  H  H210  1  0.229200  0.887700  0.318300  1
  H  H211  1  0.014300  0.132400  0.829900  1
  H  H212  1  0.985700  0.867600  0.170100  1
  H  H213  1  0.121700  0.095600  0.879600  1
  H  H214  1  0.878300  0.904400  0.120400  1
  H  H215  1  0.102500  0.999200  0.899700  1
  H  H216  1  0.897500  0.000800  0.100300  1
  H  H217  1  0.975900  0.939400  0.870000  1
  H  H218  1  0.024100  0.060600  0.130000  1
  H  H219  1  0.868500  0.976200  0.820300  1
  H  H220  1  0.131500  0.023800  0.179700  1
  H  H221  1  0.601900  0.355100  0.897500  1
  H  H222  1  0.398100  0.644900  0.102500  1
  H  H223  1  0.512000  0.352400  0.862800  1
  H  H224  1  0.488000  0.647600  0.137200  1
  H  H225  1  0.570800  0.334600  0.802700  1
  H  H226  1  0.429200  0.665400  0.197300  1
  H  H227  1  0.645000  0.388300  0.840800  1
  H  H228  1  0.355000  0.611700  0.159200  1
  H  H229  1  0.626600  0.472800  0.929000  1
  H  H230  1  0.373400  0.527200  0.071000  1
  H  H231  1  0.556600  0.446200  0.944900  1
  H  H232  1  0.443400  0.553800  0.055100  1
  H  H233  1  0.644400  0.572400  0.984600  1
  H  H234  1  0.355600  0.427600  0.015400  1
  H  H235  1  0.654300  0.664000  0.053600  1
  H  H236  1  0.345700  0.336000  0.946400  1
  H  H237  1  0.543900  0.709300  0.051200  1
  H  H238  1  0.456100  0.290700  0.948800  1
  H  H239  1  0.423600  0.662900  0.979900  1
  H  H240  1  0.576400  0.337100  0.020100  1
  H  H241  1  0.413800  0.571200  0.910900  1
  H  H242  1  0.586200  0.428800  0.089100  1
  H  H243  1  0.433100  0.389200  0.895500  1
  H  H244  1  0.566900  0.610800  0.104500  1
  H  H245  1  0.301300  0.344300  0.871000  1
  H  H246  1  0.698700  0.655700  0.129000  1
  H  H247  1  0.203200  0.383800  0.814900  1
  H  H248  1  0.796800  0.616200  0.185100  1
  H  H249  1  0.236900  0.468100  0.783400  1
  H  H250  1  0.763100  0.531900  0.216600  1
  H  H251  1  0.368700  0.513000  0.807900  1
  H  H252  1  0.631300  0.487000  0.192100  1
  H  H253  1  0.714400  0.476300  0.795400  1
  H  H254  1  0.285600  0.523700  0.204600  1
  H  H255  1  0.784000  0.480200  0.738000  1
  H  H256  1  0.216000  0.519800  0.262000  1
  H  H257  1  0.723900  0.429000  0.644300  1
  H  H258  1  0.276100  0.571000  0.355700  1
  H  H259  1  0.594100  0.373800  0.608100  1
  H  H260  1  0.405900  0.626200  0.391900  1
  H  H261  1  0.524400  0.369800  0.665600  1
  H  H262  1  0.475600  0.630200  0.334400  1
  H  H263  1  0.490300  0.291800  0.750700  1
  H  H264  1  0.509700  0.708200  0.249300  1
  H  H265  1  0.370500  0.227600  0.689100  1
  H  H266  1  0.629500  0.772400  0.310900  1
  H  H267  1  0.271900  0.273900  0.641200  1
  H  H268  1  0.728100  0.726100  0.358800  1
  H  H269  1  0.293200  0.384300  0.654900  1
  H  H270  1  0.706800  0.615700  0.345100  1
  H  H271  1  0.413000  0.448500  0.716500  1
  H  H272  1  0.587000  0.551500  0.283500  1
  H  H273  1  0.616100  0.382700  0.905900  1
  H  H274  1  0.383900  0.617300  0.094100  1
  H  H275  1  0.538200  0.332900  0.867100  1
  H  H276  1  0.461800  0.667100  0.132900  1
  H  H277  1  0.625600  0.351000  0.825600  1
  H  H278  1  0.374400  0.649000  0.174400  1
  H  H279  1  0.539300  0.358600  0.794100  1
  H  H280  1  0.460700  0.641400  0.205900  1
  H  H281  1  0.512400  0.417200  0.935000  1
  H  H282  1  0.487600  0.582800  0.065000  1
  H  H283  1  0.459100  0.415900  0.874400  1
  H  H284  1  0.540900  0.584100  0.125600  1
  H  H285  1  0.579800  0.624400  0.988000  1
  H  H286  1  0.420200  0.375600  0.012000  1
  H  H287  1  0.500400  0.689300  0.018000  1
  H  H288  1  0.499600  0.310700  0.982000  1
  H  H289  1  0.364800  0.653000  0.985200  1
  H  H290  1  0.635200  0.347000  0.014800  1
  H  H291  1  0.308800  0.551700  0.922500  1
  H  H292  1  0.691200  0.448300  0.077500  1
  H  H293  1  0.388200  0.486800  0.892500  1
  H  H294  1  0.611800  0.513200  0.107500  1
  H  H295  1  0.701500  0.601000  0.958100  1
  H  H296  1  0.298500  0.399000  0.041900  1
  H  H297  1  0.817700  0.623000  0.034000  1
  H  H298  1  0.182300  0.377000  0.966000  1
  H  H299  1  0.834800  0.559000  0.092700  1
  H  H300  1  0.165200  0.441000  0.907300  1
  H  H301  1  0.735600  0.473100  0.075400  1
  H  H302  1  0.264400  0.526900  0.924600  1
  H  H303  1  0.619400  0.451100  0.999500  1
  H  H304  1  0.380600  0.548900  0.000500  1
  H  H305  1  0.720500  0.443400  0.757500  1
  H  H306  1  0.279500  0.556600  0.242500  1
  H  H307  1  0.702500  0.403900  0.665400  1
  H  H308  1  0.297500  0.596100  0.334600  1
  H  H309  1  0.577400  0.355800  0.600700  1
  H  H310  1  0.422600  0.644200  0.399300  1
  H  H311  1  0.470200  0.347200  0.628200  1
  H  H312  1  0.529800  0.652800  0.371800  1
  H  H313  1  0.488100  0.386700  0.720400  1
  H  H314  1  0.511900  0.613300  0.279600  1
  H  H315  1  0.713600  0.349800  0.836300  1
  H  H316  1  0.286400  0.650200  0.163700  1
  H  H317  1  0.845800  0.359000  0.888700  1
  H  H318  1  0.154200  0.641000  0.111300  1
  H  H319  1  0.922400  0.459500  0.942300  1
  H  H320  1  0.077600  0.540500  0.057700  1
  H  H321  1  0.866900  0.550900  0.943600  1
  H  H322  1  0.133100  0.449100  0.056400  1
  H  H323  1  0.734700  0.541700  0.891200  1
  H  H324  1  0.265300  0.458300  0.108800  1
  Pd  Pd325  1  0.086660  0.795240  0.525130  1
  Pd  Pd326  1  0.913340  0.204760  0.474870  1
  Pd  Pd327  1  0.741360  0.058220  0.803380  1
  Pd  Pd328  1  0.258640  0.941780  0.196620  1
  Pd  Pd329  1  0.560490  0.531260  0.829040  1
  Pd  Pd330  1  0.439510  0.468740  0.170960  1
  C  C331  1  0.479100  0.834700  0.300500  1
  C  C332  1  0.520900  0.165300  0.699500  1
  C  C333  1  0.272900  0.043100  0.609600  1
  C  C334  1  0.727100  0.956900  0.390400  1
  C  C335  1  0.248800  0.783300  0.534000  1
  C  C336  1  0.751200  0.216700  0.466000  1
  C  C337  1  0.315100  0.755900  0.534100  1
  C  C338  1  0.684900  0.244100  0.465900  1
  C  C339  1  0.305800  0.690200  0.522700  1
  C  C340  1  0.694200  0.309800  0.477300  1
  C  C341  1  0.234800  0.653100  0.511500  1
  C  C342  1  0.765200  0.346900  0.488500  1
  C  C343  1  0.172200  0.683800  0.514900  1
  C  C344  1  0.827800  0.316200  0.485100  1
  C  C345  1  0.376200  0.660700  0.517800  1
  C  C346  1  0.623800  0.339300  0.482200  1
  C  C347  1  0.363700  0.599200  0.485000  1
  C  C348  1  0.636300  0.400800  0.515000  1
  C  C349  1  0.426600  0.571400  0.476000  1
  C  C350  1  0.573400  0.428600  0.524000  1
  C  C351  1  0.403400  0.503700  0.437500  1
  C  C352  1  0.596600  0.496300  0.562500  1
  C  C353  1  0.700400  0.918700  0.735500  1
  C  C354  1  0.299600  0.081300  0.264500  1
  C  C355  1  0.670200  0.866900  0.690400  1
  C  C356  1  0.329800  0.133100  0.309600  1
  C  C357  1  0.629100  0.875400  0.639300  1
  C  C358  1  0.370900  0.124600  0.360700  1
  C  C359  1  0.617500  0.935800  0.638200  1
  C  C360  1  0.382500  0.064200  0.361800  1
  C  C361  1  0.652800  0.985900  0.684800  1
  C  C362  1  0.347200  0.014100  0.315200  1
  C  C363  1  0.595000  0.817100  0.590600  1
  C  C364  1  0.405000  0.182900  0.409400  1
  C  C365  1  0.576600  0.825200  0.538500  1
  C  C366  1  0.423400  0.174800  0.461500  1
  C  C367  1  0.547000  0.773500  0.489700  1
  C  C368  1  0.453000  0.226500  0.510300  1
  C  C369  1  0.534000  0.790200  0.437400  1
  C  C370  1  0.466000  0.209800  0.562600  1
  C  C371  1  0.648400  0.591200  0.773600  1
  C  C372  1  0.351600  0.408800  0.226400  1
  C  C373  1  0.665900  0.617900  0.735800  1
  C  C374  1  0.334100  0.382100  0.264200  1
  C  C375  1  0.602700  0.614200  0.688800  1
  C  C376  1  0.397300  0.385800  0.311200  1
  C  C377  1  0.531600  0.588200  0.681700  1
  C  C378  1  0.468400  0.411800  0.318300  1
  C  C379  1  0.519500  0.562300  0.720500  1
  C  C380  1  0.480500  0.437700  0.279500  1
  C  C381  1  0.615900  0.640400  0.644700  1
  C  C382  1  0.384100  0.359600  0.355300  1
  C  C383  1  0.686100  0.650700  0.640900  1
  C  C384  1  0.313900  0.349300  0.359100  1
  C  C385  1  0.704700  0.665200  0.598200  1
  C  C386  1  0.295300  0.334800  0.401800  1
  C  C387  1  0.781900  0.668400  0.595700  1
  C  C388  1  0.218100  0.331600  0.404300  1
  C  C389  1  0.093600  0.758600  0.627000  1
  C  C390  1  0.906400  0.241400  0.373000  1
  C  C391  1  0.121400  0.762200  0.682300  1
  C  C392  1  0.878600  0.237800  0.317700  1
  C  C393  1  0.180500  0.811300  0.718600  1
  C  C394  1  0.819500  0.188700  0.281400  1
  C  C395  1  0.212000  0.853700  0.698500  1
  C  C396  1  0.788000  0.146300  0.301500  1
  C  C397  1  0.184300  0.850000  0.644200  1
  C  C398  1  0.815700  0.150000  0.355800  1
  C  C399  1  0.220700  0.821400  0.778200  1
  C  C400  1  0.779300  0.178600  0.221800  1
  C  C401  1  0.168500  0.808000  0.805200  1
  C  C402  1  0.831500  0.192000  0.194800  1
  C  C403  1  0.199900  0.815600  0.863400  1
  C  C404  1  0.800100  0.184400  0.136600  1
  C  C405  1  0.138800  0.799100  0.889300  1
  C  C406  1  0.861200  0.200900  0.110700  1
  C  C407  1  0.573400  0.051400  0.797600  1
  C  C408  1  0.426600  0.948600  0.202400  1
  C  C409  1  0.505700  0.032300  0.803700  1
  C  C410  1  0.494300  0.967700  0.196300  1
  C  C411  1  0.500300  0.987900  0.830100  1
  C  C412  1  0.499700  0.012100  0.169900  1
  C  C413  1  0.567900  0.964200  0.850900  1
  C  C414  1  0.432100  0.035800  0.149100  1
  C  C415  1  0.634800  0.986700  0.845200  1
  C  C416  1  0.365200  0.013300  0.154800  1
  C  C417  1  0.429000  0.965700  0.839700  1
  C  C418  1  0.571000  0.034300  0.160300  1
  C  C419  1  0.366000  0.996600  0.829400  1
  C  C420  1  0.634000  0.003400  0.170600  1
  C  C421  1  0.304700  0.988800  0.848600  1
  C  C422  1  0.695300  0.011200  0.151400  1
  C  C423  1  0.245100  0.031400  0.841600  1
  C  C424  1  0.754900  0.968600  0.158400  1
  C  C425  1  0.464900  0.630200  0.831900  1
  C  C426  1  0.535100  0.369800  0.168100  1
  C  C427  1  0.437800  0.686400  0.847300  1
  C  C428  1  0.562200  0.313600  0.152700  1
  C  C429  1  0.489700  0.735400  0.888100  1
  C  C430  1  0.510300  0.264600  0.111900  1
  C  C431  1  0.563900  0.728200  0.911200  1
  C  C432  1  0.436100  0.271800  0.088800  1
  C  C433  1  0.586100  0.672400  0.894000  1
  C  C434  1  0.413900  0.327600  0.106000  1
  C  C435  1  0.460000  0.795000  0.906400  1
  C  C436  1  0.540000  0.205000  0.093600  1
  C  C437  1  0.500600  0.837300  0.957100  1
  C  C438  1  0.499400  0.162700  0.042900  1
  C  C439  1  0.474400  0.892400  0.980200  1
  C  C440  1  0.525600  0.107600  0.019800  1
  C  C441  1  0.519500  0.931700  0.038200  1
  C  C442  1  0.480500  0.068300  0.961800  1
  C  C443  1  0.029700  0.859900  0.417000  1
  C  C444  1  0.970300  0.140100  0.583000  1
  C  C445  1  0.962400  0.884800  0.432800  1
  C  C446  1  0.037600  0.115200  0.567200  1
  C  C447  1  0.986200  0.912900  0.494700  1
  C  C448  1  0.013800  0.087100  0.505300  1
  C  C449  1  0.132100  0.770200  0.411900  1
  C  C450  1  0.867900  0.229800  0.588100  1
  C  C451  1  0.194000  0.818300  0.421200  1
  C  C452  1  0.806000  0.181700  0.578800  1
  C  C453  1  0.255300  0.803400  0.404400  1
  C  C454  1  0.744700  0.196600  0.595600  1
  C  C455  1  0.254700  0.740500  0.378300  1
  C  C456  1  0.745300  0.259500  0.621700  1
  C  C457  1  0.192800  0.692400  0.369000  1
  C  C458  1  0.807200  0.307600  0.631000  1
  C  C459  1  0.131500  0.707300  0.385800  1
  C  C460  1  0.868500  0.292700  0.614200  1
  C  C461  1  0.968800  0.725100  0.392900  1
  C  C462  1  0.031200  0.274900  0.607100  1
  C  C463  1  0.959800  0.671900  0.411500  1
  C  C464  1  0.040200  0.328100  0.588500  1
  C  C465  1  0.900000  0.621600  0.380000  1
  C  C466  1  0.100000  0.378400  0.620000  1
  C  C467  1  0.847000  0.622200  0.330100  1
  C  C468  1  0.153000  0.377800  0.669900  1
  C  C469  1  0.859000  0.677000  0.313800  1
  C  C470  1  0.141000  0.323000  0.686200  1
  C  C471  1  0.918000  0.728700  0.342700  1
  C  C472  1  0.082000  0.271300  0.657300  1
  C  C473  1  0.018200  0.900400  0.601700  1
  C  C474  1  0.981800  0.099600  0.398300  1
  C  C475  1  0.066300  0.960500  0.622800  1
  C  C476  1  0.933700  0.039500  0.377200  1
  C  C477  1  0.087100  0.994100  0.677500  1
  C  C478  1  0.912900  0.005900  0.322500  1
  C  C479  1  0.059800  0.967500  0.711000  1
  C  C480  1  0.940200  0.032500  0.289000  1
  C  C481  1  0.011700  0.907400  0.689900  1
  C  C482  1  0.988300  0.092600  0.310100  1
  C  C483  1  0.990900  0.873800  0.635300  1
  C  C484  1  0.009100  0.126200  0.364700  1
  C  C485  1  0.896200  0.808100  0.508600  1
  C  C486  1  0.103800  0.191900  0.491400  1
  C  C487  1  0.882400  0.743400  0.499400  1
  C  C488  1  0.117600  0.256600  0.500600  1
  C  C489  1  0.807200  0.709000  0.484500  1
  C  C490  1  0.192800  0.291000  0.515500  1
  C  C491  1  0.744000  0.741300  0.477700  1
  C  C492  1  0.256000  0.258700  0.522300  1
  C  C493  1  0.756200  0.804500  0.487200  1
  C  C494  1  0.243800  0.195500  0.512800  1
  C  C495  1  0.829500  0.838300  0.502000  1
  C  C496  1  0.170500  0.161700  0.498000  1
  C  C497  1  0.826600  0.215300  0.867700  1
  C  C498  1  0.173400  0.784700  0.132300  1
  C  C499  1  0.895500  0.210800  0.846800  1
  C  C500  1  0.104500  0.789200  0.153200  1
  C  C501  1  0.872700  0.166800  0.789600  1
  C  C502  1  0.127300  0.833200  0.210400  1
  C  C503  1  0.714400  0.167400  0.904900  1
  C  C504  1  0.285600  0.832600  0.095100  1
  C  C505  1  0.655000  0.191700  0.875600  1
  C  C506  1  0.345000  0.808300  0.124400  1
  C  C507  1  0.595200  0.209800  0.894100  1
  C  C508  1  0.404800  0.790200  0.105900  1
  C  C509  1  0.595500  0.199100  0.942400  1
  C  C510  1  0.404500  0.800900  0.057600  1
  C  C511  1  0.653400  0.174500  0.972400  1
  C  C512  1  0.346600  0.825500  0.027600  1
  C  C513  1  0.713200  0.157500  0.955200  1
  C  C514  1  0.286800  0.842500  0.044800  1
  C  C515  1  0.864700  0.127700  0.933700  1
  C  C516  1  0.135300  0.872300  0.066300  1
  C  C517  1  0.864800  0.067100  0.937400  1
  C  C518  1  0.135200  0.932900  0.062600  1
  C  C519  1  0.921000  0.054700  0.982200  1
  C  C520  1  0.079000  0.945300  0.017800  1
  C  C521  1  0.976500  0.104200  0.021600  1
  C  C522  1  0.023500  0.895800  0.978400  1
  C  C523  1  0.977000  0.164300  0.017300  1
  C  C524  1  0.023000  0.835700  0.982700  1
  C  C525  1  0.919700  0.177300  0.973800  1
  C  C526  1  0.080300  0.822700  0.026200  1
  C  C527  1  0.826500  0.045300  0.710700  1
  C  C528  1  0.173500  0.954700  0.289300  1
  C  C529  1  0.850000  0.988500  0.695300  1
  C  C530  1  0.150000  0.011500  0.304700  1
  C  C531  1  0.827800  0.957900  0.639500  1
  C  C532  1  0.172200  0.042100  0.360500  1
  C  C533  1  0.785000  0.984700  0.599200  1
  C  C534  1  0.215000  0.015300  0.400800  1
  C  C535  1  0.764100  0.040900  0.614700  1
  C  C536  1  0.235900  0.959100  0.385300  1
  C  C537  1  0.785000  0.072200  0.670800  1
  C  C538  1  0.215000  0.927800  0.329200  1
  C  C539  1  0.931300  0.057700  0.820500  1
  C  C540  1  0.068700  0.942300  0.179500  1
  C  C541  1  0.006500  0.093200  0.838100  1
  C  C542  1  0.993500  0.906800  0.161900  1
  C  C543  1  0.070300  0.071400  0.867600  1
  C  C544  1  0.929700  0.928600  0.132400  1
  C  C545  1  0.058900  0.014100  0.879500  1
  C  C546  1  0.941100  0.985900  0.120500  1
  C  C547  1  0.983700  0.978600  0.861900  1
  C  C548  1  0.016300  0.021400  0.138100  1
  C  C549  1  0.919900  0.000400  0.832400  1
  C  C550  1  0.080100  0.999600  0.167600  1
  C  C551  1  0.565900  0.377100  0.875400  1
  C  C552  1  0.434100  0.622900  0.124600  1
  C  C553  1  0.587000  0.379100  0.826800  1
  C  C554  1  0.413000  0.620900  0.173200  1
  C  C555  1  0.571000  0.450200  0.913800  1
  C  C556  1  0.429000  0.549800  0.086200  1
  C  C557  1  0.528200  0.563200  0.941300  1
  C  C558  1  0.471800  0.436800  0.058700  1
  C  C559  1  0.599600  0.590700  0.983600  1
  C  C560  1  0.400400  0.409300  0.016400  1
  C  C561  1  0.605400  0.645200  0.024600  1
  C  C562  1  0.394600  0.354800  0.975400  1
  C  C563  1  0.539900  0.672100  0.023200  1
  C  C564  1  0.460100  0.327900  0.976800  1
  C  C565  1  0.468400  0.644500  0.980900  1
  C  C566  1  0.531600  0.355500  0.019100  1
  C  C567  1  0.462600  0.590100  0.939900  1
  C  C568  1  0.537400  0.409900  0.060100  1
  C  C569  1  0.413300  0.455300  0.854000  1
  C  C570  1  0.586700  0.544700  0.146000  1
  C  C571  1  0.393300  0.405200  0.872700  1
  C  C572  1  0.606700  0.594800  0.127300  1
  C  C573  1  0.315000  0.378600  0.858200  1
  C  C574  1  0.685000  0.621400  0.141800  1
  C  C575  1  0.256700  0.402000  0.824900  1
  C  C576  1  0.743300  0.598000  0.175100  1
  C  C577  1  0.276700  0.452100  0.806100  1
  C  C578  1  0.723300  0.547900  0.193900  1
  C  C579  1  0.355000  0.478800  0.820700  1
  C  C580  1  0.645000  0.521200  0.179300  1
  C  C581  1  0.612800  0.422700  0.735900  1
  C  C582  1  0.387200  0.577300  0.264100  1
  C  C583  1  0.689900  0.455500  0.757400  1
  C  C584  1  0.310100  0.544500  0.242600  1
  C  C585  1  0.731300  0.457800  0.723300  1
  C  C586  1  0.268700  0.542200  0.276700  1
  C  C587  1  0.695600  0.427400  0.667600  1
  C  C588  1  0.304400  0.572600  0.332400  1
  C  C589  1  0.618500  0.394600  0.646200  1
  C  C590  1  0.381500  0.605400  0.353800  1
  C  C591  1  0.577100  0.392200  0.680300  1
  C  C592  1  0.422900  0.607800  0.319700  1
  C  C593  1  0.462900  0.376200  0.739400  1
  C  C594  1  0.537100  0.623800  0.260600  1
  C  C595  1  0.450300  0.310500  0.731200  1
  C  C596  1  0.549700  0.689500  0.268800  1
  C  C597  1  0.379100  0.272400  0.694700  1
  C  C598  1  0.620900  0.727600  0.305300  1
  C  C599  1  0.320600  0.299900  0.666200  1
  C  C600  1  0.679400  0.700100  0.333800  1
  C  C601  1  0.333200  0.365500  0.674400  1
  C  C602  1  0.666800  0.634500  0.325600  1
  C  C603  1  0.404300  0.403600  0.710900  1
  C  C604  1  0.595700  0.596400  0.289100  1
  C  C605  1  0.514000  0.424700  0.900800  1
  C  C606  1  0.486000  0.575300  0.099200  1
  C  C607  1  0.491500  0.549500  0.937400  1
  C  C608  1  0.508500  0.450500  0.062600  1
  C  C609  1  0.524800  0.609700  0.974700  1
  C  C610  1  0.475200  0.390300  0.025300  1
  C  C611  1  0.477600  0.648200  0.992500  1
  C  C612  1  0.522400  0.351800  0.007500  1
  C  C613  1  0.397100  0.626600  0.973100  1
  C  C614  1  0.602900  0.373400  0.026900  1
  C  C615  1  0.363800  0.566500  0.935800  1
  C  C616  1  0.636200  0.433500  0.064200  1
  C  C617  1  0.411000  0.527900  0.918000  1
  C  C618  1  0.589000  0.472100  0.082000  1
  C  C619  1  0.649500  0.524000  0.971700  1
  C  C620  1  0.350500  0.476000  0.028300  1
  C  C621  1  0.708400  0.575000  0.981900  1
  C  C622  1  0.291600  0.425000  0.018100  1
  C  C623  1  0.777500  0.588100  0.027000  1
  C  C624  1  0.222500  0.411900  0.973000  1
  C  C625  1  0.787600  0.550100  0.061900  1
  C  C626  1  0.212400  0.449900  0.938100  1
  C  C627  1  0.728700  0.499000  0.051600  1
  C  C628  1  0.271300  0.501000  0.948400  1
  C  C629  1  0.659600  0.486000  0.006500  1
  C  C630  1  0.340400  0.514000  0.993500  1
  C  C631  1  0.606000  0.418700  0.747600  1
  C  C632  1  0.394000  0.581300  0.252400  1
  C  C633  1  0.669700  0.423800  0.731300  1
  C  C634  1  0.330300  0.576200  0.268700  1
  C  C635  1  0.659000  0.400400  0.676600  1
  C  C636  1  0.341000  0.599600  0.323400  1
  C  C637  1  0.584700  0.371800  0.638100  1
  C  C638  1  0.415300  0.628200  0.361900  1
  C  C639  1  0.521000  0.366700  0.654500  1
  C  C640  1  0.479000  0.633300  0.345500  1
  C  C641  1  0.531600  0.390200  0.709200  1
  C  C642  1  0.468400  0.609800  0.290800  1
  C  C643  1  0.711800  0.444900  0.858900  1
  C  C644  1  0.288200  0.555100  0.141100  1
  C  C645  1  0.744700  0.390600  0.858100  1
  C  C646  1  0.255300  0.609400  0.141900  1
  C  C647  1  0.823200  0.396100  0.889200  1
  C  C648  1  0.176800  0.603900  0.110800  1
  C  C649  1  0.868700  0.455800  0.921000  1
  C  C650  1  0.131300  0.544200  0.079000  1
  C  C651  1  0.836000  0.510100  0.921800  1
  C  C652  1  0.164000  0.489900  0.078200  1
  C  C653  1  0.757000  0.504600  0.890700  1
  C  C654  1  0.243000  0.495400  0.109300  1
  S  S655  1  0.373000  0.816500  0.286400  1
  S  S656  1  0.627000  0.183500  0.713600  1
  S  S657  1  0.222400  0.982300  0.544000  1
  S  S658  1  0.777600  0.017700  0.456000  1
  N  N659  1  0.181700  0.748100  0.526000  1
  N  N660  1  0.818300  0.251900  0.474000  1
  N  N661  1  0.692500  0.976900  0.732100  1
  N  N662  1  0.307500  0.023100  0.267900  1
  N  N663  1  0.578500  0.564000  0.766300  1
  N  N664  1  0.421500  0.436000  0.233700  1
  N  N665  1  0.124900  0.801700  0.609200  1
  N  N666  1  0.875100  0.198300  0.390800  1
  N  N667  1  0.639700  0.031000  0.819000  1
  N  N668  1  0.360300  0.969000  0.181000  1
  N  N669  1  0.536400  0.622700  0.855600  1
  N  N670  1  0.463600  0.377300  0.144400  1
  O  O671  1  0.340200  0.857400  0.256200  1
  O  O672  1  0.659800  0.142600  0.743800  1
  O  O673  1  0.373900  0.831500  0.341600  1
  O  O674  1  0.626100  0.168500  0.658400  1
  O  O675  1  0.348400  0.750800  0.253900  1
  O  O676  1  0.651600  0.249200  0.746100  1
  O  O677  1  0.162600  0.008000  0.513200  1
  O  O678  1  0.837400  0.992000  0.486800  1
  O  O679  1  0.199100  0.927900  0.559300  1
  O  O680  1  0.800900  0.072100  0.440700  1
  O  O681  1  0.285400  0.975900  0.522900  1
  O  O682  1  0.714600  0.024100  0.477100  1
  O  O683  1  0.442700  0.699600  0.545700  1
  O  O684  1  0.557300  0.300400  0.454300  1
  O  O685  1  0.496600  0.595700  0.496900  1
  O  O686  1  0.503400  0.404300  0.503100  1
  O  O687  1  0.590200  0.765200  0.601800  1
  O  O688  1  0.409800  0.234800  0.398200  1
  O  O689  1  0.536800  0.717300  0.489200  1
  O  O690  1  0.463200  0.282700  0.510800  1
  O  O691  1  0.552400  0.646000  0.609900  1
  O  O692  1  0.447600  0.354000  0.390100  1
  O  O693  1  0.650300  0.668500  0.555800  1
  O  O694  1  0.349700  0.331500  0.444200  1
  O  O695  1  0.289600  0.843200  0.800200  1
  O  O696  1  0.710400  0.156800  0.199800  1
  O  O697  1  0.268400  0.838700  0.896200  1
  O  O698  1  0.731600  0.161300  0.103800  1
  O  O699  1  0.433400  0.919100  0.860200  1
  O  O700  1  0.566600  0.080900  0.139800  1
  O  O701  1  0.299800  0.950200  0.875500  1
  O  O702  1  0.700200  0.049800  0.124500  1
  O  O703  1  0.397000  0.800800  0.872500  1
  O  O704  1  0.603000  0.199200  0.127500  1
  O  O705  1  0.414900  0.910000  0.954100  1
  O  O706  1  0.585100  0.090000  0.045900  1
  F  F707  1  0.487500  0.822200  0.251300  1
  F  F708  1  0.512500  0.177800  0.748700  1
  F  F709  1  0.516900  0.808700  0.329200  1
  F  F710  1  0.483100  0.191300  0.670800  1
  F  F711  1  0.500200  0.901800  0.319900  1
  F  F712  1  0.499800  0.098200  0.680100  1
  F  F713  1  0.216200  0.060400  0.628000  1
  F  F714  1  0.783800  0.939600  0.372000  1
  F  F715  1  0.325600  0.028900  0.642400  1
  F  F716  1  0.674400  0.971100  0.357600  1
  F  F717  1  0.300400  0.097100  0.597900  1
  F  F718  1  0.699600  0.902900  0.402100  1
