# generated using pymatgen
data_Fe2Co3H48C54N6(ClO2)6
_symmetry_space_group_name_H-M   'P 1'
_cell_length_a   12.77080000
_cell_length_b   12.77080000
_cell_length_c   39.07090000
_cell_angle_alpha   90.00000000
_cell_angle_beta   90.00000000
_cell_angle_gamma   120.00000000
_symmetry_Int_Tables_number   1
_chemical_formula_structural   Fe2Co3H48C54N6(ClO2)6
_chemical_formula_sum   'Fe6 Co9 H144 C162 N18 Cl18 O36'
_cell_volume   5518.48992743
_cell_formula_units_Z   3
loop_
 _symmetry_equiv_pos_site_id
 _symmetry_equiv_pos_as_xyz
  1  'x, y, z'
loop_
 _atom_site_type_symbol
 _atom_site_label
 _atom_site_symmetry_multiplicity
 _atom_site_fract_x
 _atom_site_fract_y
 _atom_site_fract_z
 _atom_site_occupancy
  Fe  Fe1  1  0.422930  0.942040  0.374170  1.0
  Fe  Fe2  1  0.519110  0.577070  0.707503  1.0
  Fe  Fe3  1  0.057960  0.480890  0.040837  1.0
  Fe  Fe4  1  0.942040  0.422930  0.292497  1.0
  Fe  Fe5  1  0.577070  0.519110  0.959163  1.0
  Fe  Fe6  1  0.480890  0.057960  0.625830  1.0
  Co  Co7  1  0.631110  0.631110  0.333333  1
  Co  Co8  1  0.000000  0.368890  0.666667  1
  Co  Co9  1  0.368890  0.000000  1.000000  1
  Co  Co10  1  0.341820  0.506330  0.483840  1.0
  Co  Co11  1  0.164510  0.658180  0.817173  1.0
  Co  Co12  1  0.493670  0.835490  0.150507  1.0
  Co  Co13  1  0.506330  0.341820  0.182827  1.0
  Co  Co14  1  0.658180  0.164510  0.849493  1.0
  Co  Co15  1  0.835490  0.493670  0.516160  1.0
  H  H16  1  0.955500  0.790900  0.420400  1.0
  H  H17  1  0.835400  0.044500  0.753733  1.0
  H  H18  1  0.209100  0.164600  0.087067  1.0
  H  H19  1  0.790900  0.955500  0.246267  1.0
  H  H20  1  0.044500  0.835400  0.912933  1.0
  H  H21  1  0.164600  0.209100  0.579600  1.0
  H  H22  1  0.635300  0.377700  0.446000  1.0
  H  H23  1  0.742400  0.364700  0.779333  1.0
  H  H24  1  0.622300  0.257600  0.112667  1.0
  H  H25  1  0.377700  0.635300  0.220667  1.0
  H  H26  1  0.364700  0.742400  0.887333  1.0
  H  H27  1  0.257600  0.622300  0.554000  1.0
  H  H28  1  0.762900  0.703800  0.398500  1.0
  H  H29  1  0.940900  0.237100  0.731833  1.0
  H  H30  1  0.296200  0.059100  0.065167  1.0
  H  H31  1  0.703800  0.762900  0.268167  1.0
  H  H32  1  0.237100  0.940900  0.934833  1.0
  H  H33  1  0.059100  0.296200  0.601500  1.0
  H  H34  1  0.875400  0.673200  0.307000  1.0
  H  H35  1  0.797800  0.124600  0.640333  1.0
  H  H36  1  0.326800  0.202200  0.973667  1.0
  H  H37  1  0.673200  0.875400  0.359667  1.0
  H  H38  1  0.124600  0.797800  0.026333  1.0
  H  H39  1  0.202200  0.326800  0.693000  1.0
  H  H40  1  0.112900  0.794800  0.439500  1.0
  H  H41  1  0.681900  0.887100  0.772833  1.0
  H  H42  1  0.205200  0.318100  0.106167  1.0
  H  H43  1  0.794800  0.112900  0.227167  1.0
  H  H44  1  0.887100  0.681900  0.893833  1.0
  H  H45  1  0.318100  0.205200  0.560500  1.0
  H  H46  1  0.284400  0.133900  0.425200  1.0
  H  H47  1  0.849500  0.715600  0.758533  1.0
  H  H48  1  0.866100  0.150500  0.091867  1.0
  H  H49  1  0.133900  0.284400  0.241467  1.0
  H  H50  1  0.715600  0.849500  0.908133  1.0
  H  H51  1  0.150500  0.866100  0.574800  1.0
  H  H52  1  0.572000  0.509200  0.466700  1.0
  H  H53  1  0.937200  0.428000  0.800033  1.0
  H  H54  1  0.490800  0.062800  0.133367  1.0
  H  H55  1  0.509200  0.572000  0.199967  1.0
  H  H56  1  0.428000  0.937200  0.866633  1.0
  H  H57  1  0.062800  0.490800  0.533300  1.0
  H  H58  1  0.640000  0.197900  0.450300  1.0
  H  H59  1  0.557900  0.360000  0.783633  1.0
  H  H60  1  0.802100  0.442100  0.116967  1.0
  H  H61  1  0.197900  0.640000  0.216367  1.0
  H  H62  1  0.360000  0.557900  0.883033  1.0
  H  H63  1  0.442100  0.802100  0.549700  1.0
  H  H64  1  0.311400  0.888900  0.488900  1.0
  H  H65  1  0.577500  0.688600  0.822233  1.0
  H  H66  1  0.111100  0.422500  0.155567  1.0
  H  H67  1  0.888900  0.311400  0.177767  1.0
  H  H68  1  0.688600  0.577500  0.844433  1.0
  H  H69  1  0.422500  0.111100  0.511100  1.0
  H  H70  1  0.352600  0.791700  0.481300  1.0
  H  H71  1  0.439100  0.647400  0.814633  1.0
  H  H72  1  0.208300  0.560900  0.147967  1.0
  H  H73  1  0.791700  0.352600  0.185367  1.0
  H  H74  1  0.647400  0.439100  0.852033  1.0
  H  H75  1  0.560900  0.208300  0.518700  1.0
  H  H76  1  0.211900  0.749400  0.484100  1.0
  H  H77  1  0.537500  0.788100  0.817433  1.0
  H  H78  1  0.250600  0.462500  0.150767  1.0
  H  H79  1  0.749400  0.211900  0.182567  1.0
  H  H80  1  0.788100  0.537500  0.849233  1.0
  H  H81  1  0.462500  0.250600  0.515900  1.0
  H  H82  1  0.382400  0.932200  0.231500  1.0
  H  H83  1  0.549800  0.617600  0.564833  1.0
  H  H84  1  0.067800  0.450200  0.898167  1.0
  H  H85  1  0.932200  0.382400  0.435167  1.0
  H  H86  1  0.617600  0.549800  0.101833  1.0
  H  H87  1  0.450200  0.067800  0.768500  1.0
  H  H88  1  0.817400  0.116100  0.416000  1.0
  H  H89  1  0.298700  0.182600  0.749333  1.0
  H  H90  1  0.883900  0.701300  0.082667  1.0
  H  H91  1  0.116100  0.817400  0.250667  1.0
  H  H92  1  0.182600  0.298700  0.917333  1.0
  H  H93  1  0.701300  0.883900  0.584000  1.0
  H  H94  1  0.729700  0.993900  0.436200  1.0
  H  H95  1  0.264200  0.270300  0.769533  1.0
  H  H96  1  0.006100  0.735800  0.102867  1.0
  H  H97  1  0.993900  0.729700  0.230467  1.0
  H  H98  1  0.270300  0.264200  0.897133  1.0
  H  H99  1  0.735800  0.006100  0.563800  1.0
  H  H100  1  0.769700  0.122200  0.453400  1.0
  H  H101  1  0.352500  0.230300  0.786733  1.0
  H  H102  1  0.877800  0.647500  0.120067  1.0
  H  H103  1  0.122200  0.769700  0.213267  1.0
  H  H104  1  0.230300  0.352500  0.879933  1.0
  H  H105  1  0.647500  0.877800  0.546600  1.0
  H  H106  1  0.401000  0.071000  0.191100  1.0
  H  H107  1  0.670000  0.599000  0.524433  1.0
  H  H108  1  0.929000  0.330000  0.857767  1.0
  H  H109  1  0.071000  0.401000  0.475567  1.0
  H  H110  1  0.599000  0.670000  0.142233  1.0
  H  H111  1  0.330000  0.929000  0.808900  1.0
  H  H112  1  0.230900  0.267900  0.449600  1.0
  H  H113  1  0.037000  0.769100  0.782933  1.0
  H  H114  1  0.732100  0.963000  0.116267  1.0
  H  H115  1  0.267900  0.230900  0.217067  1.0
  H  H116  1  0.769100  0.037000  0.883733  1.0
  H  H117  1  0.963000  0.732100  0.550400  1.0
  H  H118  1  0.414900  0.827200  0.270100  1.0
  H  H119  1  0.412300  0.585100  0.603433  1.0
  H  H120  1  0.172800  0.587700  0.936767  1.0
  H  H121  1  0.827200  0.414900  0.396567  1.0
  H  H122  1  0.585100  0.412300  0.063233  1.0
  H  H123  1  0.587700  0.172800  0.729900  1.0
  H  H124  1  0.610200  0.344000  0.251500  1.0
  H  H125  1  0.733800  0.389800  0.584833  1.0
  H  H126  1  0.656000  0.266200  0.918167  1.0
  H  H127  1  0.344000  0.610200  0.415167  1.0
  H  H128  1  0.389800  0.733800  0.081833  1.0
  H  H129  1  0.266200  0.656000  0.748500  1.0
  H  H130  1  0.072700  0.753500  0.326900  1.0
  H  H131  1  0.680800  0.927300  0.660233  1.0
  H  H132  1  0.246500  0.319200  0.993567  1.0
  H  H133  1  0.753500  0.072700  0.339767  1.0
  H  H134  1  0.927300  0.680800  0.006433  1.0
  H  H135  1  0.319200  0.246500  0.673100  1.0
  H  H136  1  0.585900  0.211700  0.295800  1.0
  H  H137  1  0.625800  0.414100  0.629133  1.0
  H  H138  1  0.788300  0.374200  0.962467  1.0
  H  H139  1  0.211700  0.585900  0.370867  1.0
  H  H140  1  0.414100  0.625800  0.037533  1.0
  H  H141  1  0.374200  0.788300  0.704200  1.0
  H  H142  1  0.274400  0.595500  0.307200  1.0
  H  H143  1  0.321100  0.725600  0.640533  1.0
  H  H144  1  0.404500  0.678900  0.973867  1.0
  H  H145  1  0.595500  0.274400  0.359467  1.0
  H  H146  1  0.725600  0.321100  0.026133  1.0
  H  H147  1  0.678900  0.404500  0.692800  1.0
  H  H148  1  0.383500  0.603500  0.329400  1.0
  H  H149  1  0.220000  0.616500  0.662733  1.0
  H  H150  1  0.396500  0.780000  0.996067  1.0
  H  H151  1  0.603500  0.383500  0.337267  1.0
  H  H152  1  0.616500  0.220000  0.003933  1.0
  H  H153  1  0.780000  0.396500  0.670600  1.0
  H  H154  1  0.402700  0.638100  0.289600  1.0
  H  H155  1  0.235400  0.597300  0.622933  1.0
  H  H156  1  0.361900  0.764600  0.956267  1.0
  H  H157  1  0.638100  0.402700  0.377067  1.0
  H  H158  1  0.597300  0.235400  0.043733  1.0
  H  H159  1  0.764600  0.361900  0.710400  1.0
  C  C160  1  0.640900  0.076300  0.416200  1.0
  C  C161  1  0.435400  0.359100  0.749533  1.0
  C  C162  1  0.923700  0.564600  0.082867  1.0
  C  C163  1  0.076300  0.640900  0.250467  1.0
  C  C164  1  0.359100  0.435400  0.917133  1.0
  C  C165  1  0.564600  0.923700  0.583800  1.0
  C  C166  1  0.941300  0.765700  0.397100  1.0
  C  C167  1  0.824400  0.058700  0.730433  1.0
  C  C168  1  0.234300  0.175600  0.063767  1.0
  C  C169  1  0.765700  0.941300  0.269567  1.0
  C  C170  1  0.058700  0.824400  0.936233  1.0
  C  C171  1  0.175600  0.234300  0.602900  1.0
  C  C172  1  0.036900  0.780300  0.376400  1.0
  C  C173  1  0.743400  0.963100  0.709733  1.0
  C  C174  1  0.219700  0.256600  0.043067  1.0
  C  C175  1  0.780300  0.036900  0.290267  1.0
  C  C176  1  0.963100  0.743400  0.956933  1.0
  C  C177  1  0.256600  0.219700  0.623600  1.0
  C  C178  1  0.551900  0.353800  0.446200  1.0
  C  C179  1  0.801900  0.448100  0.779533  1.0
  C  C180  1  0.646200  0.198100  0.112867  1.0
  C  C181  1  0.353800  0.551900  0.220467  1.0
  C  C182  1  0.448100  0.801900  0.887133  1.0
  C  C183  1  0.198100  0.646200  0.553800  1.0
  C  C184  1  0.826800  0.714800  0.383700  1.0
  C  C185  1  0.888000  0.173200  0.717033  1.0
  C  C186  1  0.285200  0.112000  0.050367  1.0
  C  C187  1  0.714800  0.826800  0.282967  1.0
  C  C188  1  0.173200  0.888000  0.949633  1.0
  C  C189  1  0.112000  0.285200  0.616300  1.0
  C  C190  1  0.159700  0.825300  0.389200  1.0
  C  C191  1  0.665600  0.840300  0.722533  1.0
  C  C192  1  0.174700  0.334400  0.055867  1.0
  C  C193  1  0.825300  0.159700  0.277467  1.0
  C  C194  1  0.840300  0.665600  0.944133  1.0
  C  C195  1  0.334400  0.174700  0.610800  1.0
  C  C196  1  0.498800  0.154500  0.418540  1.0
  C  C197  1  0.655700  0.501200  0.751873  1.0
  C  C198  1  0.845500  0.344300  0.085207  1.0
  C  C199  1  0.154500  0.498800  0.248127  1.0
  C  C200  1  0.501200  0.655700  0.914793  1.0
  C  C201  1  0.344300  0.845500  0.581460  1.0
  C  C202  1  0.892400  0.696000  0.330300  1.0
  C  C203  1  0.803600  0.107600  0.663633  1.0
  C  C204  1  0.304000  0.196400  0.996967  1.0
  C  C205  1  0.696000  0.892400  0.336367  1.0
  C  C206  1  0.107600  0.803600  0.003033  1.0
  C  C207  1  0.196400  0.304000  0.669700  1.0
  C  C208  1  0.178500  0.815600  0.424300  1.0
  C  C209  1  0.637100  0.821500  0.757633  1.0
  C  C210  1  0.184400  0.362900  0.090967  1.0
  C  C211  1  0.815600  0.178500  0.242367  1.0
  C  C212  1  0.821500  0.637100  0.909033  1.0
  C  C213  1  0.362900  0.184400  0.575700  1.0
  C  C214  1  0.402300  0.771200  0.319700  1.0
  C  C215  1  0.368900  0.597700  0.653033  1.0
  C  C216  1  0.228800  0.631100  0.986367  1.0
  C  C217  1  0.771200  0.402300  0.346967  1.0
  C  C218  1  0.597700  0.368900  0.013633  1.0
  C  C219  1  0.631100  0.228800  0.680300  1.0
  C  C220  1  0.344800  0.209200  0.434200  1.0
  C  C221  1  0.864400  0.655200  0.767533  1.0
  C  C222  1  0.790800  0.135600  0.100867  1.0
  C  C223  1  0.209200  0.344800  0.232467  1.0
  C  C224  1  0.655200  0.864400  0.899133  1.0
  C  C225  1  0.135600  0.790800  0.565800  1.0
  C  C226  1  0.513200  0.431200  0.458800  1.0
  C  C227  1  0.918000  0.486800  0.792133  1.0
  C  C228  1  0.568800  0.082000  0.125467  1.0
  C  C229  1  0.431200  0.513200  0.207867  1.0
  C  C230  1  0.486800  0.918000  0.874533  1.0
  C  C231  1  0.082000  0.568800  0.541200  1.0
  C  C232  1  0.465400  0.240700  0.433800  1.0
  C  C233  1  0.775300  0.534600  0.767133  1.0
  C  C234  1  0.759300  0.224700  0.100467  1.0
  C  C235  1  0.240700  0.465400  0.232867  1.0
  C  C236  1  0.534600  0.775300  0.899533  1.0
  C  C237  1  0.224700  0.759300  0.566200  1.0
  C  C238  1  0.598400  0.149700  0.431000  1.0
  C  C239  1  0.551300  0.401600  0.764333  1.0
  C  C240  1  0.850300  0.448700  0.097667  1.0
  C  C241  1  0.149700  0.598400  0.235667  1.0
  C  C242  1  0.401600  0.551300  0.902333  1.0
  C  C243  1  0.448700  0.850300  0.569000  1.0
  C  C244  1  0.287500  0.834700  0.438270  1.0
  C  C245  1  0.547200  0.712500  0.771603  1.0
  C  C246  1  0.165300  0.452800  0.104937  1.0
  C  C247  1  0.834700  0.287500  0.228397  1.0
  C  C248  1  0.712500  0.547200  0.895063  1.0
  C  C249  1  0.452800  0.165300  0.561730  1.0
  C  C250  1  0.291100  0.814300  0.476600  1.0
  C  C251  1  0.523200  0.708900  0.809933  1.0
  C  C252  1  0.185700  0.476800  0.143267  1.0
  C  C253  1  0.814300  0.291100  0.190067  1.0
  C  C254  1  0.708900  0.523200  0.856733  1.0
  C  C255  1  0.476800  0.185700  0.523400  1.0
  C  C256  1  0.425600  0.016100  0.236600  1.0
  C  C257  1  0.590500  0.574400  0.569933  1.0
  C  C258  1  0.983900  0.409500  0.903267  1.0
  C  C259  1  0.016100  0.425600  0.430067  1.0
  C  C260  1  0.574400  0.590500  0.096733  1.0
  C  C261  1  0.409500  0.983900  0.763400  1.0
  C  C262  1  0.748800  0.077200  0.431800  1.0
  C  C263  1  0.328400  0.251200  0.765133  1.0
  C  C264  1  0.922800  0.671600  0.098467  1.0
  C  C265  1  0.077200  0.748800  0.234867  1.0
  C  C266  1  0.251200  0.328400  0.901533  1.0
  C  C267  1  0.671600  0.922800  0.568200  1.0
  C  C268  1  0.440200  0.099700  0.212500  1.0
  C  C269  1  0.659500  0.559800  0.545833  1.0
  C  C270  1  0.900300  0.340500  0.879167  1.0
  C  C271  1  0.099700  0.440200  0.454167  1.0
  C  C272  1  0.559800  0.659500  0.120833  1.0
  C  C273  1  0.340500  0.900300  0.787500  1.0
  C  C274  1  0.314000  0.290800  0.448300  1.0
  C  C275  1  0.976800  0.686000  0.781633  1.0
  C  C276  1  0.709200  0.023200  0.114967  1.0
  C  C277  1  0.290800  0.314000  0.218367  1.0
  C  C278  1  0.686000  0.976800  0.885033  1.0
  C  C279  1  0.023200  0.709200  0.551700  1.0
  C  C280  1  0.452600  0.973100  0.299200  1.0
  C  C281  1  0.520500  0.547400  0.632533  1.0
  C  C282  1  0.026900  0.479500  0.965867  1.0
  C  C283  1  0.973100  0.452600  0.367467  1.0
  C  C284  1  0.547400  0.520500  0.034133  1.0
  C  C285  1  0.479500  0.026900  0.700800  1.0
  C  C286  1  0.422400  0.854100  0.293100  1.0
  C  C287  1  0.431700  0.577600  0.626433  1.0
  C  C288  1  0.145900  0.568300  0.959767  1.0
  C  C289  1  0.854100  0.422400  0.373567  1.0
  C  C290  1  0.577600  0.431700  0.040233  1.0
  C  C291  1  0.568300  0.145900  0.706900  1.0
  C  C292  1  0.560800  0.259400  0.247900  1.0
  C  C293  1  0.698600  0.439200  0.581233  1.0
  C  C294  1  0.740600  0.301400  0.914567  1.0
  C  C295  1  0.259400  0.560800  0.418767  1.0
  C  C296  1  0.439200  0.698600  0.085433  1.0
  C  C297  1  0.301400  0.740600  0.752100  1.0
  C  C298  1  0.010500  0.744600  0.342000  1.0
  C  C299  1  0.734100  0.989500  0.675333  1.0
  C  C300  1  0.255400  0.265900  0.008667  1.0
  C  C301  1  0.744600  0.010500  0.324667  1.0
  C  C302  1  0.989500  0.734100  0.991333  1.0
  C  C303  1  0.265900  0.255400  0.658000  1.0
  C  C304  1  0.547100  0.180900  0.274400  1.0
  C  C305  1  0.633800  0.452900  0.607733  1.0
  C  C306  1  0.819100  0.366200  0.941067  1.0
  C  C307  1  0.180900  0.547100  0.392267  1.0
  C  C308  1  0.452900  0.633800  0.058933  1.0
  C  C309  1  0.366200  0.819100  0.725600  1.0
  C  C310  1  0.476600  0.057900  0.269470  1.0
  C  C311  1  0.581300  0.523400  0.602803  1.0
  C  C312  1  0.942100  0.418700  0.936137  1.0
  C  C313  1  0.057900  0.476600  0.397197  1.0
  C  C314  1  0.523400  0.581300  0.063863  1.0
  C  C315  1  0.418700  0.942100  0.730530  1.0
  C  C316  1  0.362100  0.640400  0.310700  1.0
  C  C317  1  0.278300  0.637900  0.644033  1.0
  C  C318  1  0.359600  0.721700  0.977367  1.0
  C  C319  1  0.640400  0.362100  0.355967  1.0
  C  C320  1  0.637900  0.278300  0.022633  1.0
  C  C321  1  0.721700  0.359600  0.689300  1.0
  N  N322  1  0.506200  0.219700  0.217000  1.0
  N  N323  1  0.713500  0.493800  0.550333  1.0
  N  N324  1  0.780300  0.286500  0.883667  1.0
  N  N325  1  0.219700  0.506200  0.449667  1.0
  N  N326  1  0.493800  0.713500  0.116333  1.0
  N  N327  1  0.286500  0.780300  0.783000  1.0
  N  N328  1  0.396400  0.399500  0.460210  1.0
  N  N329  1  0.003100  0.603600  0.793543  1.0
  N  N330  1  0.600500  0.996900  0.126877  1.0
  N  N331  1  0.399500  0.396400  0.206457  1.0
  N  N332  1  0.603600  0.003100  0.873123  1.0
  N  N333  1  0.996900  0.600500  0.539790  1.0
  N  N334  1  0.800300  0.679800  0.351160  1.0
  N  N335  1  0.879500  0.199700  0.684493  1.0
  N  N336  1  0.320200  0.120500  0.017827  1.0
  N  N337  1  0.679800  0.800300  0.315507  1.0
  N  N338  1  0.199700  0.879500  0.982173  1.0
  N  N339  1  0.120500  0.320200  0.648840  1.0
  Cl  Cl340  1  0.238600  0.400200  0.529540  1.0
  Cl  Cl341  1  0.161600  0.761400  0.862873  1.0
  Cl  Cl342  1  0.599800  0.838400  0.196207  1.0
  Cl  Cl343  1  0.400200  0.238600  0.137127  1.0
  Cl  Cl344  1  0.761400  0.161600  0.803793  1.0
  Cl  Cl345  1  0.838400  0.599800  0.470460  1.0
  Cl  Cl346  1  0.502500  0.687600  0.493960  1.0
  Cl  Cl347  1  0.185100  0.497500  0.827293  1.0
  Cl  Cl348  1  0.312400  0.814900  0.160627  1.0
  Cl  Cl349  1  0.687600  0.502500  0.172707  1.0
  Cl  Cl350  1  0.497500  0.185100  0.839373  1.0
  Cl  Cl351  1  0.814900  0.312400  0.506040  1.0
  Cl  Cl352  1  0.515900  0.570200  0.380310  1.0
  Cl  Cl353  1  0.054300  0.484100  0.713643  1.0
  Cl  Cl354  1  0.429800  0.945700  0.046977  1.0
  Cl  Cl355  1  0.570200  0.515900  0.286357  1.0
  Cl  Cl356  1  0.484100  0.054300  0.953023  1.0
  Cl  Cl357  1  0.945700  0.429800  0.619690  1.0
  O  O358  1  0.467400  0.022400  0.328440  1.0
  O  O359  1  0.555000  0.532600  0.661773  1.0
  O  O360  1  0.977600  0.445000  0.995107  1.0
  O  O361  1  0.022400  0.467400  0.338227  1.0
  O  O362  1  0.532600  0.555000  0.004893  1.0
  O  O363  1  0.445000  0.977600  0.671560  1.0
  O  O364  1  0.381800  0.864900  0.421120  1.0
  O  O365  1  0.483100  0.618200  0.754453  1.0
  O  O366  1  0.135100  0.516900  0.087787  1.0
  O  O367  1  0.864900  0.381800  0.245547  1.0
  O  O368  1  0.618200  0.483100  0.912213  1.0
  O  O369  1  0.516900  0.135100  0.578880  1.0
  O  O370  1  0.245900  0.868400  0.366820  1.0
  O  O371  1  0.622500  0.754100  0.700153  1.0
  O  O372  1  0.131600  0.377500  0.033487  1.0
  O  O373  1  0.868400  0.245900  0.299847  1.0
  O  O374  1  0.754100  0.622500  0.966513  1.0
  O  O375  1  0.377500  0.131600  0.633180  1.0
  O  O376  1  0.429300  0.088800  0.393940  1.0
  O  O377  1  0.659500  0.570700  0.727273  1.0
  O  O378  1  0.911200  0.340500  0.060607  1.0
  O  O379  1  0.088800  0.429300  0.272727  1.0
  O  O380  1  0.570700  0.659500  0.939393  1.0
  O  O381  1  0.340500  0.911200  0.606060  1.0
  O  O382  1  0.594100  0.009700  0.390030  1.0
  O  O383  1  0.415600  0.405900  0.723363  1.0
  O  O384  1  0.990300  0.584400  0.056697  1.0
  O  O385  1  0.009700  0.594100  0.276637  1.0
  O  O386  1  0.405900  0.415600  0.943303  1.0
  O  O387  1  0.584400  0.990300  0.609970  1.0
  O  O388  1  0.415000  0.797200  0.351740  1.0
  O  O389  1  0.382200  0.585000  0.685073  1.0
  O  O390  1  0.202800  0.617800  0.018407  1.0
  O  O391  1  0.797200  0.415000  0.314927  1.0
  O  O392  1  0.585000  0.382200  0.981593  1.0
  O  O393  1  0.617800  0.202800  0.648260  1.0
