# generated using pymatgen
data_Zn3Cr2H48C58Br6(N3O8)2
_symmetry_space_group_name_H-M   'P 1'
_cell_length_a   13.24290000
_cell_length_b   13.24290000
_cell_length_c   38.38000000
_cell_angle_alpha   90.00000000
_cell_angle_beta   90.00000000
_cell_angle_gamma   120.00000000
_symmetry_Int_Tables_number   1
_chemical_formula_structural   Zn3Cr2H48C58Br6(N3O8)2
_chemical_formula_sum   'Zn9 Cr6 H144 C174 Br18 N18 O48'
_cell_volume   5829.10396594
_cell_formula_units_Z   3
loop_
 _symmetry_equiv_pos_site_id
 _symmetry_equiv_pos_as_xyz
  1  'x, y, z'
loop_
 _atom_site_type_symbol
 _atom_site_label
 _atom_site_symmetry_multiplicity
 _atom_site_fract_x
 _atom_site_fract_y
 _atom_site_fract_z
 _atom_site_occupancy
  Zn  Zn1  1  1.000000  0.328940  0.666667  1
  Zn  Zn2  1  0.328940  0.000000  0.000000  1
  Zn  Zn3  1  0.671060  0.671060  0.333333  1
  Zn  Zn4  1  0.846570  0.497880  0.513340  1.0
  Zn  Zn5  1  0.651310  0.153430  0.846673  1.0
  Zn  Zn6  1  0.502120  0.348690  0.180007  1.0
  Zn  Zn7  1  0.497880  0.846570  0.153327  1.0
  Zn  Zn8  1  0.153430  0.651310  0.819993  1.0
  Zn  Zn9  1  0.348690  0.502120  0.486660  1.0
  Cr  Cr10  1  0.468760  0.037360  0.625810  1.0
  Cr  Cr11  1  0.568600  0.531240  0.959143  1.0
  Cr  Cr12  1  0.962640  0.431400  0.292477  1.0
  Cr  Cr13  1  0.037360  0.468760  0.040857  1.0
  Cr  Cr14  1  0.531240  0.568600  0.707523  1.0
  Cr  Cr15  1  0.431400  0.962640  0.374190  1.0
  H  H16  1  0.980400  0.735900  0.542100  1.0
  H  H17  1  0.755500  0.019600  0.875433  1.0
  H  H18  1  0.264100  0.244500  0.208767  1.0
  H  H19  1  0.735900  0.980400  0.124567  1.0
  H  H20  1  0.019600  0.755500  0.791233  1.0
  H  H21  1  0.244500  0.264100  0.457900  1.0
  H  H22  1  0.155600  0.860700  0.570300  1.0
  H  H23  1  0.705100  0.844400  0.903633  1.0
  H  H24  1  0.139300  0.294900  0.236967  1.0
  H  H25  1  0.860700  0.155600  0.096367  1.0
  H  H26  1  0.844400  0.705100  0.763033  1.0
  H  H27  1  0.294900  0.139300  0.429700  1.0
  H  H28  1  0.246900  0.613600  0.557000  1.0
  H  H29  1  0.366700  0.753100  0.890333  1.0
  H  H30  1  0.386400  0.633300  0.223667  1.0
  H  H31  1  0.613600  0.246900  0.109667  1.0
  H  H32  1  0.753100  0.366700  0.776333  1.0
  H  H33  1  0.633300  0.386400  0.443000  1.0
  H  H34  1  0.063700  0.491400  0.534600  1.0
  H  H35  1  0.427700  0.936300  0.867933  1.0
  H  H36  1  0.508600  0.572300  0.201267  1.0
  H  H37  1  0.491400  0.063700  0.132067  1.0
  H  H38  1  0.936300  0.427700  0.798733  1.0
  H  H39  1  0.572300  0.508600  0.465400  1.0
  H  H40  1  0.427800  0.769600  0.557400  1.0
  H  H41  1  0.341800  0.572200  0.890733  1.0
  H  H42  1  0.230400  0.658200  0.224067  1.0
  H  H43  1  0.769600  0.427800  0.109267  1.0
  H  H44  1  0.572200  0.341800  0.775933  1.0
  H  H45  1  0.658200  0.230400  0.442600  1.0
  H  H46  1  0.625400  0.824100  0.562600  1.0
  H  H47  1  0.198700  0.374600  0.895933  1.0
  H  H48  1  0.175900  0.801300  0.229267  1.0
  H  H49  1  0.824100  0.625400  0.104067  1.0
  H  H50  1  0.374600  0.198700  0.770733  1.0
  H  H51  1  0.801300  0.175900  0.437400  1.0
  H  H52  1  0.634200  0.806600  0.603600  1.0
  H  H53  1  0.172400  0.365800  0.936933  1.0
  H  H54  1  0.193400  0.827600  0.270267  1.0
  H  H55  1  0.806600  0.634200  0.063067  1.0
  H  H56  1  0.365800  0.172400  0.729733  1.0
  H  H57  1  0.827600  0.193400  0.396400  1.0
  H  H58  1  0.712600  0.932400  0.586300  1.0
  H  H59  1  0.219800  0.287400  0.919633  1.0
  H  H60  1  0.067600  0.780200  0.252967  1.0
  H  H61  1  0.932400  0.712600  0.080367  1.0
  H  H62  1  0.287400  0.219800  0.747033  1.0
  H  H63  1  0.780200  0.067600  0.413700  1.0
  H  H64  1  0.213200  0.316700  0.692400  1.0
  H  H65  1  0.103500  0.786800  0.025733  1.0
  H  H66  1  0.683300  0.896500  0.359067  1.0
  H  H67  1  0.316700  0.213200  0.974267  1.0
  H  H68  1  0.786800  0.103500  0.640933  1.0
  H  H69  1  0.896500  0.683300  0.307600  1.0
  H  H70  1  0.332100  0.244600  0.673600  1.0
  H  H71  1  0.912500  0.667900  0.006933  1.0
  H  H72  1  0.755400  0.087500  0.340267  1.0
  H  H73  1  0.244600  0.332100  0.993067  1.0
  H  H74  1  0.667900  0.912500  0.659733  1.0
  H  H75  1  0.087500  0.755400  0.326400  1.0
  H  H76  1  0.165200  0.171300  0.580700  1.0
  H  H77  1  0.006100  0.834800  0.914033  1.0
  H  H78  1  0.828700  0.993900  0.247367  1.0
  H  H79  1  0.171300  0.165200  0.085967  1.0
  H  H80  1  0.834800  0.006100  0.752633  1.0
  H  H81  1  0.993900  0.828700  0.419300  1.0
  H  H82  1  0.048000  0.241000  0.602600  1.0
  H  H83  1  0.193000  0.952000  0.935933  1.0
  H  H84  1  0.759000  0.807000  0.269267  1.0
  H  H85  1  0.241000  0.048000  0.064067  1.0
  H  H86  1  0.952000  0.193000  0.730733  1.0
  H  H87  1  0.807000  0.759000  0.397400  1.0
  H  H88  1  0.338200  0.205300  0.562700  1.0
  H  H89  1  0.867100  0.661800  0.896033  1.0
  H  H90  1  0.794700  0.132900  0.229367  1.0
  H  H91  1  0.205300  0.338200  0.103967  1.0
  H  H92  1  0.661800  0.867100  0.770633  1.0
  H  H93  1  0.132900  0.794700  0.437300  1.0
  H  H94  1  0.458900  0.114800  0.511600  1.0
  H  H95  1  0.655900  0.541100  0.844933  1.0
  H  H96  1  0.885200  0.344100  0.178267  1.0
  H  H97  1  0.114800  0.458900  0.155067  1.0
  H  H98  1  0.541100  0.655900  0.821733  1.0
  H  H99  1  0.344100  0.885200  0.488400  1.0
  H  H100  1  0.578800  0.226400  0.523400  1.0
  H  H101  1  0.647600  0.421200  0.856733  1.0
  H  H102  1  0.773600  0.352400  0.190067  1.0
  H  H103  1  0.226400  0.578800  0.143267  1.0
  H  H104  1  0.421200  0.647600  0.809933  1.0
  H  H105  1  0.352400  0.773600  0.476600  1.0
  H  H106  1  0.465300  0.237700  0.517300  1.0
  H  H107  1  0.772400  0.534700  0.850633  1.0
  H  H108  1  0.762300  0.227600  0.183967  1.0
  H  H109  1  0.237700  0.465300  0.149367  1.0
  H  H110  1  0.534700  0.772400  0.816033  1.0
  H  H111  1  0.227600  0.762300  0.482700  1.0
  H  H112  1  0.577300  0.133300  0.730400  1.0
  H  H113  1  0.556000  0.422700  0.063733  1.0
  H  H114  1  0.866700  0.444000  0.397067  1.0
  H  H115  1  0.133300  0.577300  0.936267  1.0
  H  H116  1  0.422700  0.556000  0.602933  1.0
  H  H117  1  0.444000  0.866700  0.269600  1.0
  H  H118  1  0.744000  0.307200  0.714200  1.0
  H  H119  1  0.563200  0.256000  0.047533  1.0
  H  H120  1  0.692800  0.436800  0.380867  1.0
  H  H121  1  0.307200  0.744000  0.952467  1.0
  H  H122  1  0.256000  0.563200  0.619133  1.0
  H  H123  1  0.436800  0.692800  0.285800  1.0
  H  H124  1  0.688600  0.366800  0.690600  1.0
  H  H125  1  0.678200  0.311400  0.023933  1.0
  H  H126  1  0.633200  0.321800  0.357267  1.0
  H  H127  1  0.366800  0.688600  0.976067  1.0
  H  H128  1  0.311400  0.678200  0.642733  1.0
  H  H129  1  0.321800  0.633200  0.309400  1.0
  H  H130  1  0.782000  0.337100  0.674300  1.0
  H  H131  1  0.555100  0.218000  0.007633  1.0
  H  H132  1  0.662900  0.444900  0.340967  1.0
  H  H133  1  0.337100  0.782000  0.992367  1.0
  H  H134  1  0.218000  0.555100  0.659033  1.0
  H  H135  1  0.444900  0.662900  0.325700  1.0
  H  H136  1  0.436300  0.037800  0.767900  1.0
  H  H137  1  0.601500  0.563700  0.101233  1.0
  H  H138  1  0.962200  0.398500  0.434567  1.0
  H  H139  1  0.037800  0.436300  0.898767  1.0
  H  H140  1  0.563700  0.601500  0.565433  1.0
  H  H141  1  0.398500  0.962200  0.232100  1.0
  H  H142  1  0.361100  0.766300  0.704600  1.0
  H  H143  1  0.405200  0.638900  0.037933  1.0
  H  H144  1  0.233700  0.594800  0.371267  1.0
  H  H145  1  0.766300  0.361100  0.962067  1.0
  H  H146  1  0.638900  0.405200  0.628733  1.0
  H  H147  1  0.594800  0.233700  0.295400  1.0
  H  H148  1  0.254900  0.639300  0.749800  1.0
  H  H149  1  0.384400  0.745100  0.083133  1.0
  H  H150  1  0.360700  0.615600  0.416467  1.0
  H  H151  1  0.639300  0.254900  0.916867  1.0
  H  H152  1  0.745100  0.384400  0.583533  1.0
  H  H153  1  0.615600  0.360700  0.250200  1.0
  H  H154  1  0.318400  0.909600  0.810000  1.0
  H  H155  1  0.591200  0.681600  0.143333  1.0
  H  H156  1  0.090400  0.408800  0.476667  1.0
  H  H157  1  0.909600  0.318400  0.856667  1.0
  H  H158  1  0.681600  0.591200  0.523333  1.0
  H  H159  1  0.408800  0.090400  0.190000  1.0
  C  C160  1  0.921000  0.723000  0.650800  1
  C  C161  1  0.802000  0.079000  0.984133  1
  C  C162  1  0.277000  0.198000  0.317467  1
  C  C163  1  0.723000  0.921000  0.015867  1
  C  C164  1  0.079000  0.802000  0.682533  1
  C  C165  1  0.198000  0.277000  0.349200  1
  C  C166  1  0.956000  0.912000  0.578200  1
  C  C167  1  0.956000  0.044000  0.911533  1
  C  C168  1  0.088000  0.044000  0.244867  1
  C  C169  1  0.912000  0.956000  0.088467  1
  C  C170  1  0.044000  0.956000  0.755133  1
  C  C171  1  0.044000  0.088000  0.421800  1
  C  C172  1  0.034000  0.709500  0.546500  1.0
  C  C173  1  0.675500  0.966000  0.879833  1.0
  C  C174  1  0.290500  0.324500  0.213167  1.0
  C  C175  1  0.709500  0.034000  0.120167  1.0
  C  C176  1  0.966000  0.675500  0.786833  1.0
  C  C177  1  0.324500  0.290500  0.453500  1.0
  C  C178  1  0.140200  0.786500  0.562300  1.0
  C  C179  1  0.646300  0.859800  0.895633  1.0
  C  C180  1  0.213500  0.353700  0.228967  1.0
  C  C181  1  0.786500  0.140200  0.104367  1.0
  C  C182  1  0.859800  0.646300  0.771033  1.0
  C  C183  1  0.353700  0.213500  0.437700  1.0
  C  C184  1  0.222400  0.751500  0.566080  1.0
  C  C185  1  0.529100  0.777600  0.899413  1.0
  C  C186  1  0.248500  0.470900  0.232747  1.0
  C  C187  1  0.751500  0.222400  0.100587  1.0
  C  C188  1  0.777600  0.529100  0.767253  1.0
  C  C189  1  0.470900  0.248500  0.433920  1.0
  C  C190  1  0.192300  0.640000  0.555070  1.0
  C  C191  1  0.447700  0.807700  0.888403  1.0
  C  C192  1  0.360000  0.552300  0.221737  1.0
  C  C193  1  0.640000  0.192300  0.111597  1.0
  C  C194  1  0.807700  0.447700  0.778263  1.0
  C  C195  1  0.552300  0.360000  0.444930  1.0
  C  C196  1  0.083700  0.568200  0.541420  1.0
  C  C197  1  0.484500  0.916300  0.874753  1.0
  C  C198  1  0.431800  0.515500  0.208087  1.0
  C  C199  1  0.568200  0.083700  0.125247  1.0
  C  C200  1  0.916300  0.484500  0.791913  1.0
  C  C201  1  0.515500  0.431800  0.458580  1.0
  C  C202  1  0.337100  0.833100  0.582870  1.0
  C  C203  1  0.496000  0.662900  0.916203  1.0
  C  C204  1  0.166900  0.504000  0.249537  1.0
  C  C205  1  0.833100  0.337100  0.083797  1.0
  C  C206  1  0.662900  0.496000  0.750463  1.0
  C  C207  1  0.504000  0.166900  0.417130  1.0
  C  C208  1  0.434500  0.822900  0.575000  1.0
  C  C209  1  0.388400  0.565500  0.908333  1.0
  C  C210  1  0.177100  0.611600  0.241667  1.0
  C  C211  1  0.822900  0.434500  0.091667  1.0
  C  C212  1  0.565500  0.388400  0.758333  1.0
  C  C213  1  0.611600  0.177100  0.425000  1.0
  C  C214  1  0.542600  0.888400  0.592200  1.0
  C  C215  1  0.345800  0.457400  0.925533  1.0
  C  C216  1  0.111600  0.654200  0.258867  1.0
  C  C217  1  0.888400  0.542600  0.074467  1.0
  C  C218  1  0.457400  0.345800  0.741133  1.0
  C  C219  1  0.654200  0.111600  0.407800  1.0
  C  C220  1  0.636700  0.860500  0.585600  1.0
  C  C221  1  0.223800  0.363300  0.918933  1.0
  C  C222  1  0.139500  0.776200  0.252267  1.0
  C  C223  1  0.860500  0.636700  0.081067  1.0
  C  C224  1  0.363300  0.223800  0.747733  1.0
  C  C225  1  0.776200  0.139500  0.414400  1.0
  C  C226  1  0.202800  0.285800  0.669500  1.0
  C  C227  1  0.083000  0.797200  0.002833  1.0
  C  C228  1  0.714200  0.917000  0.336167  1.0
  C  C229  1  0.285800  0.202800  0.997167  1.0
  C  C230  1  0.797200  0.083000  0.663833  1.0
  C  C231  1  0.917000  0.714200  0.330500  1.0
  C  C232  1  0.274900  0.243500  0.658380  1.0
  C  C233  1  0.968600  0.725100  0.991713  1.0
  C  C234  1  0.756500  0.031400  0.325047  1.0
  C  C235  1  0.243500  0.274900  0.008287  1.0
  C  C236  1  0.725100  0.968600  0.674953  1.0
  C  C237  1  0.031400  0.756500  0.341620  1.0
  C  C238  1  0.262100  0.200300  0.625100  1.0
  C  C239  1  0.938200  0.737900  0.958433  1.0
  C  C240  1  0.799700  0.061800  0.291767  1.0
  C  C241  1  0.200300  0.262100  0.041567  1.0
  C  C242  1  0.737900  0.938200  0.708233  1.0
  C  C243  1  0.061800  0.799700  0.374900  1.0
  C  C244  1  0.176000  0.200000  0.603900  1.0
  C  C245  1  0.024000  0.824000  0.937233  1.0
  C  C246  1  0.800000  0.976000  0.270567  1.0
  C  C247  1  0.200000  0.176000  0.062767  1.0
  C  C248  1  0.824000  0.024000  0.729433  1.0
  C  C249  1  0.976000  0.800000  0.396100  1.0
  C  C250  1  0.107000  0.242200  0.617000  1.0
  C  C251  1  0.135200  0.893000  0.950333  1.0
  C  C252  1  0.757800  0.864800  0.283667  1.0
  C  C253  1  0.242200  0.107000  0.049667  1.0
  C  C254  1  0.893000  0.135200  0.716333  1.0
  C  C255  1  0.864800  0.757800  0.383000  1.0
  C  C256  1  0.341800  0.158200  0.612000  1.0
  C  C257  1  0.816400  0.658200  0.945333  1.0
  C  C258  1  0.841800  0.183600  0.278667  1.0
  C  C259  1  0.158200  0.341800  0.054667  1.0
  C  C260  1  0.658200  0.816400  0.721333  1.0
  C  C261  1  0.183600  0.841800  0.388000  1.0
  C  C262  1  0.375300  0.176600  0.577700  1.0
  C  C263  1  0.801300  0.624700  0.911033  1.0
  C  C264  1  0.823400  0.198700  0.244367  1.0
  C  C265  1  0.176600  0.375300  0.088967  1.0
  C  C266  1  0.624700  0.801300  0.755633  1.0
  C  C267  1  0.198700  0.823400  0.422300  1.0
  C  C268  1  0.460200  0.156000  0.563180  1.0
  C  C269  1  0.695800  0.539800  0.896513  1.0
  C  C270  1  0.844000  0.304200  0.229847  1.0
  C  C271  1  0.156000  0.460200  0.103487  1.0
  C  C272  1  0.539800  0.695800  0.770153  1.0
  C  C273  1  0.304200  0.844000  0.436820  1.0
  C  C274  1  0.493700  0.186400  0.525600  1.0
  C  C275  1  0.692700  0.506300  0.858933  1.0
  C  C276  1  0.813600  0.307300  0.192267  1.0
  C  C277  1  0.186400  0.493700  0.141067  1.0
  C  C278  1  0.506300  0.692700  0.807733  1.0
  C  C279  1  0.307300  0.813600  0.474400  1.0
  C  C280  1  0.466400  0.998100  0.700290  1.0
  C  C281  1  0.531700  0.533600  0.033623  1.0
  C  C282  1  0.001900  0.468300  0.366957  1.0
  C  C283  1  0.998100  0.466400  0.966377  1.0
  C  C284  1  0.533600  0.531700  0.633043  1.0
  C  C285  1  0.468300  0.001900  0.299710  1.0
  C  C286  1  0.556500  0.110000  0.706860  1.0
  C  C287  1  0.553500  0.443500  0.040193  1.0
  C  C288  1  0.890000  0.446500  0.373527  1.0
  C  C289  1  0.110000  0.556500  0.959807  1.0
  C  C290  1  0.443500  0.553500  0.626473  1.0
  C  C291  1  0.446500  0.890000  0.293140  1.0
  C  C292  1  0.619200  0.191400  0.680120  1.0
  C  C293  1  0.572200  0.380800  0.013453  1.0
  C  C294  1  0.808600  0.427800  0.346787  1.0
  C  C295  1  0.191400  0.619200  0.986547  1.0
  C  C296  1  0.380800  0.572200  0.653213  1.0
  C  C297  1  0.427800  0.808600  0.319880  1.0
  C  C298  1  0.717200  0.311300  0.690800  1.0
  C  C299  1  0.594100  0.282800  0.024133  1.0
  C  C300  1  0.688700  0.405900  0.357467  1.0
  C  C301  1  0.311300  0.717200  0.975867  1.0
  C  C302  1  0.282800  0.594100  0.642533  1.0
  C  C303  1  0.405900  0.688700  0.309200  1.0
  C  C304  1  0.404600  0.917000  0.730360  1.0
  C  C305  1  0.512400  0.595400  0.063693  1.0
  C  C306  1  0.083000  0.487600  0.397027  1.0
  C  C307  1  0.917000  0.404600  0.936307  1.0
  C  C308  1  0.595400  0.512400  0.602973  1.0
  C  C309  1  0.487600  0.083000  0.269640  1.0
  C  C310  1  0.395100  0.956600  0.763000  1.0
  C  C311  1  0.561500  0.604900  0.096333  1.0
  C  C312  1  0.043400  0.438500  0.429667  1.0
  C  C313  1  0.956600  0.395100  0.903667  1.0
  C  C314  1  0.604900  0.561500  0.570333  1.0
  C  C315  1  0.438500  0.043400  0.237000  1.0
  C  C316  1  0.352500  0.796900  0.726100  1.0
  C  C317  1  0.444400  0.647500  0.059433  1.0
  C  C318  1  0.203100  0.555600  0.392767  1.0
  C  C319  1  0.796900  0.352500  0.940567  1.0
  C  C320  1  0.647500  0.444400  0.607233  1.0
  C  C321  1  0.555600  0.203100  0.273900  1.0
  C  C322  1  0.287900  0.721000  0.752900  1.0
  C  C323  1  0.433100  0.712100  0.086233  1.0
  C  C324  1  0.279000  0.566900  0.419567  1.0
  C  C325  1  0.721000  0.287900  0.913767  1.0
  C  C326  1  0.712100  0.433100  0.580433  1.0
  C  C327  1  0.566900  0.279000  0.247100  1.0
  C  C328  1  0.326800  0.879600  0.788380  1.0
  C  C329  1  0.552800  0.673200  0.121713  1.0
  C  C330  1  0.120400  0.447200  0.455047  1.0
  C  C331  1  0.879600  0.326800  0.878287  1.0
  C  C332  1  0.673200  0.552800  0.544953  1.0
  C  C333  1  0.447200  0.120400  0.211620  1.0
  Br  Br334  1  0.826870  0.313490  0.504220  1.0
  Br  Br335  1  0.486620  0.173130  0.837553  1.0
  Br  Br336  1  0.686510  0.513380  0.170887  1.0
  Br  Br337  1  0.313490  0.826870  0.162447  1.0
  Br  Br338  1  0.173130  0.486620  0.829113  1.0
  Br  Br339  1  0.513380  0.686510  0.495780  1.0
  Br  Br340  1  0.845770  0.603720  0.464410  1.0
  Br  Br341  1  0.757950  0.154230  0.797743  1.0
  Br  Br342  1  0.396280  0.242050  0.131077  1.0
  Br  Br343  1  0.603720  0.845770  0.202257  1.0
  Br  Br344  1  0.154230  0.757950  0.868923  1.0
  Br  Br345  1  0.242050  0.396280  0.535590  1.0
  Br  Br346  1  0.940960  0.385230  0.616150  1.0
  Br  Br347  1  0.444270  0.059040  0.949483  1.0
  Br  Br348  1  0.614770  0.555730  0.282817  1.0
  Br  Br349  1  0.385230  0.940960  0.050517  1.0
  Br  Br350  1  0.059040  0.444270  0.717183  1.0
  Br  Br351  1  0.555730  0.614770  0.383850  1.0
  N  N352  1  0.004100  0.602700  0.537270  1.0
  N  N353  1  0.598600  0.995900  0.870603  1.0
  N  N354  1  0.397300  0.401400  0.203937  1.0
  N  N355  1  0.602700  0.004100  0.129397  1.0
  N  N356  1  0.995900  0.598600  0.796063  1.0
  N  N357  1  0.401400  0.397300  0.462730  1.0
  N  N358  1  0.121100  0.285000  0.649860  1.0
  N  N359  1  0.163900  0.878900  0.983193  1.0
  N  N360  1  0.715000  0.836100  0.316527  1.0
  N  N361  1  0.285000  0.121100  0.016807  1.0
  N  N362  1  0.878900  0.163900  0.683473  1.0
  N  N363  1  0.836100  0.715000  0.350140  1.0
  N  N364  1  0.271400  0.763700  0.783870  1.0
  N  N365  1  0.492300  0.728600  0.117203  1.0
  N  N366  1  0.236300  0.507700  0.450537  1.0
  N  N367  1  0.763700  0.271400  0.882797  1.0
  N  N368  1  0.728600  0.492300  0.549463  1.0
  N  N369  1  0.507700  0.236300  0.216130  1.0
  O  O370  1  0.908000  0.627000  0.672300  1
  O  O371  1  0.719000  0.092000  0.005633  1
  O  O372  1  0.373000  0.281000  0.338967  1
  O  O373  1  0.627000  0.908000  0.994367  1
  O  O374  1  0.092000  0.719000  0.661033  1
  O  O375  1  0.281000  0.373000  0.327700  1
  O  O376  1  0.998000  0.913000  0.613600  1
  O  O377  1  0.915000  0.002000  0.946933  1
  O  O378  1  0.087000  0.085000  0.280267  1
  O  O379  1  0.913000  0.998000  0.053067  1
  O  O380  1  0.002000  0.915000  0.719733  1
  O  O381  1  0.085000  0.087000  0.386400  1
  O  O382  1  0.333700  0.905200  0.604060  1.0
  O  O383  1  0.571500  0.666300  0.937393  1.0
  O  O384  1  0.094800  0.428500  0.270727  1.0
  O  O385  1  0.905200  0.333700  0.062607  1.0
  O  O386  1  0.666300  0.571500  0.729273  1.0
  O  O387  1  0.428500  0.094800  0.395940  1.0
  O  O388  1  0.425200  0.954300  0.670620  1.0
  O  O389  1  0.529100  0.574800  0.003953  1.0
  O  O390  1  0.045700  0.470900  0.337287  1.0
  O  O391  1  0.954300  0.425200  0.996047  1.0
  O  O392  1  0.574800  0.529100  0.662713  1.0
  O  O393  1  0.470900  0.045700  0.329380  1.0
  O  O394  1  0.566600  0.967400  0.614010  1.0
  O  O395  1  0.400800  0.433400  0.947343  1.0
  O  O396  1  0.032600  0.599200  0.280677  1.0
  O  O397  1  0.967400  0.566600  0.052657  1.0
  O  O398  1  0.433400  0.400800  0.719323  1.0
  O  O399  1  0.599200  0.032600  0.385990  1.0
  O  O400  1  0.373500  0.109700  0.635430  1.0
  O  O401  1  0.736200  0.626500  0.968763  1.0
  O  O402  1  0.890300  0.263800  0.302097  1.0
  O  O403  1  0.109700  0.373500  0.031237  1.0
  O  O404  1  0.626500  0.736200  0.697903  1.0
  O  O405  1  0.263800  0.890300  0.364570  1.0
  O  O406  1  0.511100  0.112000  0.579740  1.0
  O  O407  1  0.600900  0.488900  0.913073  1.0
  O  O408  1  0.888000  0.399100  0.246407  1.0
  O  O409  1  0.112000  0.511100  0.086927  1.0
  O  O410  1  0.488900  0.600900  0.753593  1.0
  O  O411  1  0.399100  0.888000  0.420260  1.0
  O  O412  1  0.600800  0.173300  0.648450  1.0
  O  O413  1  0.572500  0.399200  0.981783  1.0
  O  O414  1  0.826700  0.427500  0.315117  1.0
  O  O415  1  0.173300  0.600800  0.018217  1.0
  O  O416  1  0.399200  0.572500  0.684883  1.0
  O  O417  1  0.427500  0.826700  0.351550  1.0
