# generated using pymatgen
data_Zn3Fe2H48C58Br6(NO2)10
_symmetry_space_group_name_H-M   'P 1'
_cell_length_a   12.81530000
_cell_length_b   12.81530000
_cell_length_c   38.81700000
_cell_angle_alpha   90.00000000
_cell_angle_beta   90.00000000
_cell_angle_gamma   120.00000000
_symmetry_Int_Tables_number   1
_chemical_formula_structural   Zn3Fe2H48C58Br6(NO2)10
_chemical_formula_sum   'Zn9 Fe6 H144 C174 Br18 N30 O60'
_cell_volume   5520.90347007
_cell_formula_units_Z   3
loop_
 _symmetry_equiv_pos_site_id
 _symmetry_equiv_pos_as_xyz
  1  'x, y, z'
loop_
 _atom_site_type_symbol
 _atom_site_label
 _atom_site_symmetry_multiplicity
 _atom_site_fract_x
 _atom_site_fract_y
 _atom_site_fract_z
 _atom_site_occupancy
  Zn  Zn1  1  1.000000  0.627090  0.666667  1
  Zn  Zn2  1  0.627090  0.000000  0.000000  1
  Zn  Zn3  1  0.372910  0.372910  0.333333  1
  Zn  Zn4  1  0.836620  0.342860  0.817790  1.0
  Zn  Zn5  1  0.506240  0.163380  0.151123  1.0
  Zn  Zn6  1  0.657140  0.493760  0.484457  1.0
  Zn  Zn7  1  0.342860  0.836620  0.848877  1.0
  Zn  Zn8  1  0.163380  0.506240  0.515543  1.0
  Zn  Zn9  1  0.493760  0.657140  0.182210  1.0
  Fe  Fe10  1  0.521640  0.941190  0.626850  1.0
  Fe  Fe11  1  0.419550  0.478360  0.960183  1.0
  Fe  Fe12  1  0.058810  0.580450  0.293517  1.0
  Fe  Fe13  1  0.941190  0.521640  0.039817  1.0
  Fe  Fe14  1  0.478360  0.419550  0.706483  1.0
  Fe  Fe15  1  0.580450  0.058810  0.373150  1.0
  H  H16  1  0.714200  0.341400  0.752200  1.0
  H  H17  1  0.627200  0.285800  0.085533  1.0
  H  H18  1  0.658600  0.372800  0.418867  1.0
  H  H19  1  0.341400  0.714200  0.914467  1.0
  H  H20  1  0.285800  0.627200  0.581133  1.0
  H  H21  1  0.372800  0.658600  0.247800  1.0
  H  H22  1  0.602700  0.207400  0.707600  1.0
  H  H23  1  0.604700  0.397300  0.040933  1.0
  H  H24  1  0.792600  0.395300  0.374267  1.0
  H  H25  1  0.207400  0.602700  0.959067  1.0
  H  H26  1  0.397300  0.604700  0.625733  1.0
  H  H27  1  0.395300  0.792600  0.292400  1.0
  H  H28  1  0.563900  0.932600  0.767700  1.0
  H  H29  1  0.368700  0.436100  0.101033  1.0
  H  H30  1  0.067400  0.631300  0.434367  1.0
  H  H31  1  0.932600  0.563900  0.898967  1.0
  H  H32  1  0.436100  0.368700  0.565633  1.0
  H  H33  1  0.631300  0.067400  0.232300  1.0
  H  H34  1  0.683000  0.070600  0.809100  1.0
  H  H35  1  0.387600  0.317000  0.142433  1.0
  H  H36  1  0.929400  0.612400  0.475767  1.0
  H  H37  1  0.070600  0.683000  0.857567  1.0
  H  H38  1  0.317000  0.387600  0.524233  1.0
  H  H39  1  0.612400  0.929400  0.190900  1.0
  H  H40  1  0.411700  0.825600  0.731200  1.0
  H  H41  1  0.413900  0.588300  0.064533  1.0
  H  H42  1  0.174400  0.586100  0.397867  1.0
  H  H43  1  0.825600  0.411700  0.935467  1.0
  H  H44  1  0.588300  0.413900  0.602133  1.0
  H  H45  1  0.586100  0.174400  0.268800  1.0
  H  H46  1  0.220300  0.607400  0.672300  1.0
  H  H47  1  0.387100  0.779700  0.005633  1.0
  H  H48  1  0.392600  0.612900  0.338967  1.0
  H  H49  1  0.607400  0.220300  0.994367  1.0
  H  H50  1  0.779700  0.387100  0.661033  1.0
  H  H51  1  0.612900  0.392600  0.327700  1.0
  H  H52  1  0.246900  0.637300  0.712400  1.0
  H  H53  1  0.390400  0.753100  0.045733  1.0
  H  H54  1  0.362700  0.609600  0.379067  1.0
  H  H55  1  0.637300  0.246900  0.954267  1.0
  H  H56  1  0.753100  0.390400  0.620933  1.0
  H  H57  1  0.609600  0.362700  0.287600  1.0
  H  H58  1  0.325300  0.595000  0.690700  1.0
  H  H59  1  0.269700  0.674700  0.024033  1.0
  H  H60  1  0.405000  0.730300  0.357367  1.0
  H  H61  1  0.595000  0.325300  0.975967  1.0
  H  H62  1  0.674700  0.269700  0.642633  1.0
  H  H63  1  0.730300  0.405000  0.309300  1.0
  H  H64  1  0.787600  0.653600  0.691900  1.0
  H  H65  1  0.866000  0.212400  0.025233  1.0
  H  H66  1  0.346400  0.134000  0.358567  1.0
  H  H67  1  0.653600  0.787600  0.974767  1.0
  H  H68  1  0.212400  0.866000  0.641433  1.0
  H  H69  1  0.134000  0.346400  0.308100  1.0
  H  H70  1  0.677100  0.743900  0.673200  1.0
  H  H71  1  0.066800  0.322900  0.006533  1.0
  H  H72  1  0.256100  0.933200  0.339867  1.0
  H  H73  1  0.743900  0.677100  0.993467  1.0
  H  H74  1  0.322900  0.066800  0.660133  1.0
  H  H75  1  0.933200  0.256100  0.326800  1.0
  H  H76  1  0.863000  0.826000  0.583600  1.0
  H  H77  1  0.963000  0.137000  0.916933  1.0
  H  H78  1  0.174000  0.037000  0.250267  1.0
  H  H79  1  0.826000  0.863000  0.083067  1.0
  H  H80  1  0.137000  0.963000  0.749733  1.0
  H  H81  1  0.037000  0.174000  0.416400  1.0
  H  H82  1  0.964500  0.733200  0.604000  1.0
  H  H83  1  0.768700  0.035500  0.937333  1.0
  H  H84  1  0.266800  0.231300  0.270667  1.0
  H  H85  1  0.733200  0.964500  0.062667  1.0
  H  H86  1  0.035500  0.768700  0.729333  1.0
  H  H87  1  0.231300  0.266800  0.396000  1.0
  H  H88  1  0.707000  0.817700  0.562400  1.0
  H  H89  1  0.110700  0.293000  0.895733  1.0
  H  H90  1  0.182300  0.889300  0.229067  1.0
  H  H91  1  0.817700  0.707000  0.104267  1.0
  H  H92  1  0.293000  0.110700  0.770933  1.0
  H  H93  1  0.889300  0.182300  0.437600  1.0
  H  H94  1  0.449200  0.776900  0.520200  1.0
  H  H95  1  0.327700  0.550800  0.853533  1.0
  H  H96  1  0.223100  0.672300  0.186867  1.0
  H  H97  1  0.776900  0.449200  0.146467  1.0
  H  H98  1  0.550800  0.327700  0.813133  1.0
  H  H99  1  0.672300  0.223100  0.479800  1.0
  H  H100  1  0.573600  0.777500  0.515600  1.0
  H  H101  1  0.203900  0.426400  0.848933  1.0
  H  H102  1  0.222500  0.796100  0.182267  1.0
  H  H103  1  0.777500  0.573600  0.151067  1.0
  H  H104  1  0.426400  0.203900  0.817733  1.0
  H  H105  1  0.796100  0.222500  0.484400  1.0
  H  H106  1  0.571200  0.900900  0.513100  1.0
  H  H107  1  0.329700  0.428800  0.846433  1.0
  H  H108  1  0.099100  0.670300  0.179767  1.0
  H  H109  1  0.900900  0.571200  0.153567  1.0
  H  H110  1  0.428800  0.329700  0.820233  1.0
  H  H111  1  0.670300  0.099100  0.486900  1.0
  H  H112  1  0.556300  0.184600  0.548000  1.0
  H  H113  1  0.628300  0.443700  0.881333  1.0
  H  H114  1  0.815400  0.371700  0.214667  1.0
  H  H115  1  0.184600  0.556300  0.118667  1.0
  H  H116  1  0.443700  0.628300  0.785333  1.0
  H  H117  1  0.371700  0.815400  0.452000  1.0
  H  H118  1  0.351700  0.116100  0.546700  1.0
  H  H119  1  0.764400  0.648300  0.880033  1.0
  H  H120  1  0.883900  0.235600  0.213367  1.0
  H  H121  1  0.116100  0.351700  0.119967  1.0
  H  H122  1  0.648300  0.764400  0.786633  1.0
  H  H123  1  0.235600  0.883900  0.453300  1.0
  H  H124  1  0.269000  0.981500  0.560600  1.0
  H  H125  1  0.712500  0.731000  0.893933  1.0
  H  H126  1  0.018500  0.287500  0.227267  1.0
  H  H127  1  0.981500  0.269000  0.106067  1.0
  H  H128  1  0.731000  0.712500  0.772733  1.0
  H  H129  1  0.287500  0.018500  0.439400  1.0
  H  H130  1  0.290500  0.093600  0.583900  1.0
  H  H131  1  0.803100  0.709500  0.917233  1.0
  H  H132  1  0.906400  0.196900  0.250567  1.0
  H  H133  1  0.093600  0.290500  0.082767  1.0
  H  H134  1  0.709500  0.803100  0.749433  1.0
  H  H135  1  0.196900  0.906400  0.416100  1.0
  H  H136  1  0.740400  0.367700  0.552400  1.0
  H  H137  1  0.627300  0.259600  0.885733  1.0
  H  H138  1  0.632300  0.372700  0.219067  1.0
  H  H139  1  0.367700  0.740400  0.114267  1.0
  H  H140  1  0.259600  0.627300  0.780933  1.0
  H  H141  1  0.372700  0.632300  0.447600  1.0
  H  H142  1  0.851600  0.130400  0.574700  1.0
  H  H143  1  0.278800  0.148400  0.908033  1.0
  H  H144  1  0.869600  0.721200  0.241367  1.0
  H  H145  1  0.130400  0.851600  0.091967  1.0
  H  H146  1  0.148400  0.278800  0.758633  1.0
  H  H147  1  0.721200  0.869600  0.425300  1.0
  H  H148  1  0.933200  0.501200  0.532200  1.0
  H  H149  1  0.568000  0.066800  0.865533  1.0
  H  H150  1  0.498800  0.432000  0.198867  1.0
  H  H151  1  0.501200  0.933200  0.134467  1.0
  H  H152  1  0.066800  0.568000  0.801133  1.0
  H  H153  1  0.432000  0.498800  0.467800  1.0
  H  H154  1  0.037200  0.264600  0.548700  1.0
  H  H155  1  0.227400  0.962800  0.882033  1.0
  H  H156  1  0.735400  0.772600  0.215367  1.0
  H  H157  1  0.264600  0.037200  0.117967  1.0
  H  H158  1  0.962800  0.227400  0.784633  1.0
  H  H159  1  0.772600  0.735400  0.451300  1.0
  C  C160  1  0.855000  0.168000  0.680100  1
  C  C161  1  0.313000  0.145000  0.013433  1
  C  C162  1  0.832000  0.687000  0.346767  1
  C  C163  1  0.168000  0.855000  0.986567  1
  C  C164  1  0.145000  0.313000  0.653233  1
  C  C165  1  0.687000  0.832000  0.319900  1
  C  C166  1  0.854800  0.036300  0.742400  1
  C  C167  1  0.181500  0.145200  0.075733  1
  C  C168  1  0.963700  0.818500  0.409067  1
  C  C169  1  0.036300  0.854800  0.924267  1
  C  C170  1  0.145200  0.181500  0.590933  1
  C  C171  1  0.818500  0.963700  0.257600  1
  C  C172  1  0.686400  0.257900  0.754920  1.0
  C  C173  1  0.571500  0.313600  0.088253  1.0
  C  C174  1  0.742100  0.428500  0.421587  1.0
  C  C175  1  0.257900  0.686400  0.911747  1.0
  C  C176  1  0.313600  0.571500  0.578413  1.0
  C  C177  1  0.428500  0.742100  0.245080  1.0
  C  C178  1  0.619100  0.177800  0.728170  1.0
  C  C179  1  0.558700  0.380900  0.061503  1.0
  C  C180  1  0.822200  0.441300  0.394837  1.0
  C  C181  1  0.177800  0.619100  0.938497  1.0
  C  C182  1  0.380900  0.558700  0.605163  1.0
  C  C183  1  0.441300  0.822200  0.271830  1.0
  C  C184  1  0.577600  0.056900  0.732130  1.0
  C  C185  1  0.479300  0.422400  0.065463  1.0
  C  C186  1  0.943100  0.520700  0.398797  1.0
  C  C187  1  0.056900  0.577600  0.934537  1.0
  C  C188  1  0.422400  0.479300  0.601203  1.0
  C  C189  1  0.520700  0.943100  0.267870  1.0
  C  C190  1  0.597600  0.016400  0.763500  1.0
  C  C191  1  0.418800  0.402400  0.096833  1.0
  C  C192  1  0.983600  0.581200  0.430167  1.0
  C  C193  1  0.016400  0.597600  0.903167  1.0
  C  C194  1  0.402400  0.418800  0.569833  1.0
  C  C195  1  0.581200  0.983600  0.236500  1.0
  C  C196  1  0.666667  0.098967  0.788340  1.0
  C  C197  1  0.432300  0.333333  0.121673  1.0
  C  C198  1  0.901033  0.567700  0.455007  1.0
  C  C199  1  0.098967  0.666667  0.878327  1.0
  C  C200  1  0.333333  0.432300  0.544993  1.0
  C  C201  1  0.567700  0.901033  0.211660  1.0
  C  C202  1  0.516800  0.972600  0.702230  1.0
  C  C203  1  0.455800  0.483200  0.035563  1.0
  C  C204  1  0.027400  0.544200  0.368897  1.0
  C  C205  1  0.972600  0.516800  0.964437  1.0
  C  C206  1  0.483200  0.455800  0.631103  1.0
  C  C207  1  0.544200  0.027400  0.297770  1.0
  C  C208  1  0.431100  0.852800  0.708060  1.0
  C  C209  1  0.421700  0.568900  0.041393  1.0
  C  C210  1  0.147200  0.578300  0.374727  1.0
  C  C211  1  0.852800  0.431100  0.958607  1.0
  C  C212  1  0.568900  0.421700  0.625273  1.0
  C  C213  1  0.578300  0.147200  0.291940  1.0
  C  C214  1  0.371700  0.770000  0.681300  1.0
  C  C215  1  0.398300  0.628300  0.014633  1.0
  C  C216  1  0.230000  0.601700  0.347967  1.0
  C  C217  1  0.770000  0.371700  0.985367  1.0
  C  C218  1  0.628300  0.398300  0.652033  1.0
  C  C219  1  0.601700  0.230000  0.318700  1.0
  C  C220  1  0.283400  0.641300  0.689900  1.0
  C  C221  1  0.357900  0.716600  0.023233  1.0
  C  C222  1  0.358700  0.642100  0.356567  1.0
  C  C223  1  0.641300  0.283400  0.976767  1.0
  C  C224  1  0.716600  0.357900  0.643433  1.0
  C  C225  1  0.642100  0.358700  0.310100  1.0
  C  C226  1  0.801300  0.687400  0.669430  1.0
  C  C227  1  0.886100  0.198700  0.002763  1.0
  C  C228  1  0.312600  0.113900  0.336097  1.0
  C  C229  1  0.687400  0.801300  0.997237  1.0
  C  C230  1  0.198700  0.886100  0.663903  1.0
  C  C231  1  0.113900  0.312600  0.330570  1.0
  C  C232  1  0.735000  0.741500  0.658400  1.0
  C  C233  1  0.006500  0.265000  0.991733  1.0
  C  C234  1  0.258500  0.993500  0.325067  1.0
  C  C235  1  0.741500  0.735000  0.008267  1.0
  C  C236  1  0.265000  0.006500  0.674933  1.0
  C  C237  1  0.993500  0.258500  0.341600  1.0
  C  C238  1  0.755500  0.791700  0.625350  1.0
  C  C239  1  0.036200  0.244500  0.958683  1.0
  C  C240  1  0.208300  0.963800  0.292017  1.0
  C  C241  1  0.791700  0.755500  0.041317  1.0
  C  C242  1  0.244500  0.036200  0.707983  1.0
  C  C243  1  0.963800  0.208300  0.374650  1.0
  C  C244  1  0.844000  0.789400  0.605750  1.0
  C  C245  1  0.945400  0.156000  0.939083  1.0
  C  C246  1  0.210600  0.054600  0.272417  1.0
  C  C247  1  0.789400  0.844000  0.060917  1.0
  C  C248  1  0.156000  0.945400  0.727583  1.0
  C  C249  1  0.054600  0.210600  0.394250  1.0
  C  C250  1  0.904500  0.734600  0.618070  1.0
  C  C251  1  0.830100  0.095500  0.951403  1.0
  C  C252  1  0.265400  0.169900  0.284737  1.0
  C  C253  1  0.734600  0.904500  0.048597  1.0
  C  C254  1  0.095500  0.830100  0.715263  1.0
  C  C255  1  0.169900  0.265400  0.381930  1.0
  C  C256  1  0.677000  0.836300  0.612340  1.0
  C  C257  1  0.159300  0.323000  0.945673  1.0
  C  C258  1  0.163700  0.840700  0.279007  1.0
  C  C259  1  0.836300  0.677000  0.054327  1.0
  C  C260  1  0.323000  0.159300  0.720993  1.0
  C  C261  1  0.840700  0.163700  0.387660  1.0
  C  C262  1  0.655600  0.829900  0.577480  1.0
  C  C263  1  0.174300  0.344400  0.910813  1.0
  C  C264  1  0.170100  0.825700  0.244147  1.0
  C  C265  1  0.829900  0.655600  0.089187  1.0
  C  C266  1  0.344400  0.174300  0.755853  1.0
  C  C267  1  0.825700  0.170100  0.422520  1.0
  C  C268  1  0.558500  0.841000  0.562890  1.0
  C  C269  1  0.282500  0.441500  0.896223  1.0
  C  C270  1  0.159000  0.717500  0.229557  1.0
  C  C271  1  0.841000  0.558500  0.103777  1.0
  C  C272  1  0.441500  0.282500  0.770443  1.0
  C  C273  1  0.717500  0.159000  0.437110  1.0
  C  C274  1  0.536200  0.822500  0.524600  1.0
  C  C275  1  0.286300  0.463800  0.857933  1.0
  C  C276  1  0.177500  0.713700  0.191267  1.0
  C  C277  1  0.822500  0.536200  0.142067  1.0
  C  C278  1  0.463800  0.286300  0.808733  1.0
  C  C279  1  0.713700  0.177500  0.475400  1.0
  C  C280  1  0.656400  0.148600  0.581490  1.0
  C  C281  1  0.492200  0.343600  0.914823  1.0
  C  C282  1  0.851400  0.507800  0.248157  1.0
  C  C283  1  0.148600  0.656400  0.085177  1.0
  C  C284  1  0.343600  0.492200  0.751843  1.0
  C  C285  1  0.507800  0.851400  0.418510  1.0
  C  C286  1  0.550600  0.139800  0.568150  1.0
  C  C287  1  0.589200  0.449400  0.901483  1.0
  C  C288  1  0.860200  0.410800  0.234817  1.0
  C  C289  1  0.139800  0.550600  0.098517  1.0
  C  C290  1  0.449400  0.589200  0.765183  1.0
  C  C291  1  0.410800  0.860200  0.431850  1.0
  C  C292  1  0.436900  0.068200  0.583120  1.0
  C  C293  1  0.631300  0.563100  0.916453  1.0
  C  C294  1  0.931800  0.368700  0.249787  1.0
  C  C295  1  0.068200  0.436900  0.083547  1.0
  C  C296  1  0.563100  0.631300  0.750213  1.0
  C  C297  1  0.368700  0.931800  0.416880  1.0
  C  C298  1  0.327400  0.064500  0.567200  1.0
  C  C299  1  0.737100  0.672600  0.900533  1.0
  C  C300  1  0.935500  0.262900  0.233867  1.0
  C  C301  1  0.064500  0.327400  0.099467  1.0
  C  C302  1  0.672600  0.737100  0.766133  1.0
  C  C303  1  0.262900  0.935500  0.432800  1.0
  C  C304  1  0.775700  0.234700  0.565930  1.0
  C  C305  1  0.459000  0.224300  0.899263  1.0
  C  C306  1  0.765300  0.541000  0.232597  1.0
  C  C307  1  0.234700  0.775700  0.100737  1.0
  C  C308  1  0.224300  0.459000  0.767403  1.0
  C  C309  1  0.541000  0.765300  0.434070  1.0
  C  C310  1  0.800900  0.345600  0.552740  1.0
  C  C311  1  0.544700  0.199100  0.886073  1.0
  C  C312  1  0.654400  0.455300  0.219407  1.0
  C  C313  1  0.345600  0.800900  0.113927  1.0
  C  C314  1  0.199100  0.544700  0.780593  1.0
  C  C315  1  0.455300  0.654400  0.447260  1.0
  C  C316  1  0.865000  0.204500  0.565320  1.0
  C  C317  1  0.339500  0.135000  0.898653  1.0
  C  C318  1  0.795500  0.660500  0.231987  1.0
  C  C319  1  0.204500  0.865000  0.101347  1.0
  C  C320  1  0.135000  0.339500  0.768013  1.0
  C  C321  1  0.660500  0.795500  0.434680  1.0
  C  C322  1  0.915200  0.423800  0.540060  1.0
  C  C323  1  0.508600  0.084800  0.873393  1.0
  C  C324  1  0.576200  0.491400  0.206727  1.0
  C  C325  1  0.423800  0.915200  0.126607  1.0
  C  C326  1  0.084800  0.508600  0.793273  1.0
  C  C327  1  0.491400  0.576200  0.459940  1.0
  C  C328  1  0.976700  0.286500  0.550400  1.0
  C  C329  1  0.309800  0.023300  0.883733  1.0
  C  C330  1  0.713500  0.690200  0.217067  1.0
  C  C331  1  0.286500  0.976700  0.116267  1.0
  C  C332  1  0.023300  0.309800  0.782933  1.0
  C  C333  1  0.690200  0.713500  0.449600  1.0
  Br  Br334  1  0.941650  0.506490  0.716300  1.0
  Br  Br335  1  0.564840  0.058350  0.049633  1.0
  Br  Br336  1  0.493510  0.435160  0.382967  1.0
  Br  Br337  1  0.506490  0.941650  0.950367  1.0
  Br  Br338  1  0.058350  0.564840  0.617033  1.0
  Br  Br339  1  0.435160  0.493510  0.283700  1.0
  Br  Br340  1  0.812900  0.512900  0.823420  1.0
  Br  Br341  1  0.700000  0.187100  0.156753  1.0
  Br  Br342  1  0.487100  0.300000  0.490087  1.0
  Br  Br343  1  0.512900  0.812900  0.843247  1.0
  Br  Br344  1  0.187100  0.700000  0.509913  1.0
  Br  Br345  1  0.300000  0.487100  0.176580  1.0
  Br  Br346  1  0.842300  0.238780  0.867410  1.0
  Br  Br347  1  0.396480  0.157700  0.200743  1.0
  Br  Br348  1  0.761220  0.603520  0.534077  1.0
  Br  Br349  1  0.238780  0.842300  0.799257  1.0
  Br  Br350  1  0.157700  0.396480  0.465923  1.0
  Br  Br351  1  0.603520  0.761220  0.132590  1.0
  N  N352  1  0.872300  0.088500  0.704000  1
  N  N353  1  0.216200  0.127700  0.037333  1
  N  N354  1  0.911500  0.783800  0.370667  1
  N  N355  1  0.088500  0.872300  0.962667  1
  N  N356  1  0.127700  0.216200  0.629333  1
  N  N357  1  0.783800  0.911500  0.296000  1
  N  N358  1  0.895360  0.066940  0.707170  1
  N  N359  1  0.171580  0.104640  0.040503  1
  N  N360  1  0.933060  0.828420  0.373837  1
  N  N361  1  0.066940  0.895360  0.959497  1
  N  N362  1  0.104640  0.171580  0.626163  1
  N  N363  1  0.828420  0.933060  0.292830  1
  N  N364  1  0.712500  0.219300  0.784330  1.0
  N  N365  1  0.506800  0.287500  0.117663  1.0
  N  N366  1  0.780700  0.493200  0.450997  1.0
  N  N367  1  0.219300  0.712500  0.882337  1.0
  N  N368  1  0.287500  0.506800  0.549003  1.0
  N  N369  1  0.493200  0.780700  0.215670  1.0
  N  N370  1  0.882100  0.682100  0.649570  1.0
  N  N371  1  0.800000  0.117900  0.982903  1.0
  N  N372  1  0.317900  0.200000  0.316237  1.0
  N  N373  1  0.682100  0.882100  0.017097  1.0
  N  N374  1  0.117900  0.800000  0.683763  1.0
  N  N375  1  0.200000  0.317900  0.350430  1.0
  N  N376  1  0.000300  0.393000  0.538610  1.0
  N  N377  1  0.392700  0.999700  0.871943  1.0
  N  N378  1  0.607000  0.607300  0.205277  1.0
  N  N379  1  0.393000  0.000300  0.128057  1.0
  N  N380  1  0.999700  0.392700  0.794723  1.0
  N  N381  1  0.607300  0.607000  0.461390  1.0
  O  O382  1  0.969900  0.112300  0.716200  1
  O  O383  1  0.142400  0.030100  0.049533  1
  O  O384  1  0.887700  0.857600  0.382867  1
  O  O385  1  0.112300  0.969900  0.950467  1
  O  O386  1  0.030100  0.142400  0.617133  1
  O  O387  1  0.857600  0.887700  0.283800  1
  O  O388  1  0.786800  0.994700  0.712100  1
  O  O389  1  0.207900  0.213200  0.045433  1
  O  O390  1  0.005300  0.792100  0.378767  1
  O  O391  1  0.994700  0.786800  0.954567  1
  O  O392  1  0.213200  0.207900  0.621233  1
  O  O393  1  0.792100  0.005300  0.287900  1
  O  O394  1  0.003700  0.095000  0.704400  1
  O  O395  1  0.091300  0.996300  0.037733  1
  O  O396  1  0.905000  0.908700  0.371067  1
  O  O397  1  0.095000  0.003700  0.962267  1
  O  O398  1  0.996300  0.091300  0.628933  1
  O  O399  1  0.908700  0.905000  0.295600  1
  O  O400  1  0.835200  0.065800  0.684300  1
  O  O401  1  0.230600  0.164800  0.017633  1
  O  O402  1  0.934200  0.769400  0.350967  1
  O  O403  1  0.065800  0.835200  0.982367  1
  O  O404  1  0.164800  0.230600  0.649033  1
  O  O405  1  0.769400  0.934200  0.315700  1
  O  O406  1  0.552600  0.022200  0.672550  1.0
  O  O407  1  0.469600  0.447400  0.005883  1.0
  O  O408  1  0.977800  0.530400  0.339217  1.0
  O  O409  1  0.022200  0.552600  0.994117  1.0
  O  O410  1  0.447400  0.469600  0.660783  1.0
  O  O411  1  0.530400  0.977800  0.327450  1.0
  O  O412  1  0.388200  0.795900  0.649420  1.0
  O  O413  1  0.407700  0.611800  0.982753  1.0
  O  O414  1  0.204100  0.592300  0.316087  1.0
  O  O415  1  0.795900  0.388200  0.017247  1.0
  O  O416  1  0.611800  0.407700  0.683913  1.0
  O  O417  1  0.592300  0.204100  0.350580  1.0
  O  O418  1  0.627300  0.871500  0.635360  1.0
  O  O419  1  0.244200  0.372700  0.968693  1.0
  O  O420  1  0.128500  0.755800  0.302027  1.0
  O  O421  1  0.871500  0.627300  0.031307  1.0
  O  O422  1  0.372700  0.244200  0.697973  1.0
  O  O423  1  0.755800  0.128500  0.364640  1.0
  O  O424  1  0.488800  0.864500  0.579900  1.0
  O  O425  1  0.375700  0.511200  0.913233  1.0
  O  O426  1  0.135500  0.624300  0.246567  1.0
  O  O427  1  0.864500  0.488800  0.086767  1.0
  O  O428  1  0.511200  0.375700  0.753433  1.0
  O  O429  1  0.624300  0.135500  0.420100  1.0
  O  O430  1  0.662000  0.088800  0.607050  1.0
  O  O431  1  0.426800  0.338000  0.940383  1.0
  O  O432  1  0.911200  0.573200  0.273717  1.0
  O  O433  1  0.088800  0.662000  0.059617  1.0
  O  O434  1  0.338000  0.426800  0.726283  1.0
  O  O435  1  0.573200  0.911200  0.392950  1.0
  O  O436  1  0.417900  0.005200  0.609900  1.0
  O  O437  1  0.587300  0.582100  0.943233  1.0
  O  O438  1  0.994800  0.412700  0.276567  1.0
  O  O439  1  0.005200  0.417900  0.056767  1.0
  O  O440  1  0.582100  0.587300  0.723433  1.0
  O  O441  1  0.412700  0.994800  0.390100  1.0
