# generated using pymatgen
data_B5P2H39PtC21O2
_symmetry_space_group_name_H-M   'P 1'
_cell_length_a   14.01980000
_cell_length_b   15.82000000
_cell_length_c   16.32410000
_cell_angle_alpha   90.04900000
_cell_angle_beta   114.66500000
_cell_angle_gamma   114.32070000
_symmetry_Int_Tables_number   1
_chemical_formula_structural   B5P2H39PtC21O2
_chemical_formula_sum   'B20 P8 H156 Pt4 C84 O8'
_cell_volume   2932.30995512
_cell_formula_units_Z   4
loop_
 _symmetry_equiv_pos_site_id
 _symmetry_equiv_pos_as_xyz
  1  'x, y, z'
loop_
 _atom_site_type_symbol
 _atom_site_label
 _atom_site_symmetry_multiplicity
 _atom_site_fract_x
 _atom_site_fract_y
 _atom_site_fract_z
 _atom_site_occupancy
  B  B1  1  0.135100  0.436900  0.458800  1.0
  B  B2  1  0.864900  0.563100  0.541200  1.0
  B  B3  1  0.268900  0.441700  0.469100  1.0
  B  B4  1  0.731100  0.558300  0.530900  1.0
  B  B5  1  0.385000  0.556600  0.531600  1.0
  B  B6  1  0.615000  0.443400  0.468400  1.0
  B  B7  1  0.322700  0.623700  0.560400  1.0
  B  B8  1  0.677300  0.376300  0.439600  1.0
  B  B9  1  0.169200  0.548400  0.515700  1.0
  B  B10  1  0.830800  0.451600  0.484300  1.0
  B  B11  1  0.675600  0.470700  0.589600  1.0
  B  B12  1  0.324400  0.529300  0.410400  1.0
  B  B13  1  0.356700  0.640700  0.467000  1.0
  B  B14  1  0.643300  0.359300  0.533000  1.0
  B  B15  1  0.222200  0.635100  0.455800  1.0
  B  B16  1  0.777800  0.364900  0.544200  1.0
  B  B17  1  0.891800  0.479800  0.606400  1.0
  B  B18  1  0.108200  0.520200  0.393600  1.0
  B  B19  1  0.777200  0.422200  0.635500  1.0
  B  B20  1  0.222800  0.577800  0.364500  1.0
  P  P21  1  0.145800  0.326400  0.765700  1.0
  P  P22  1  0.854200  0.673600  0.234300  1.0
  P  P23  1  0.462600  0.319600  0.753200  1.0
  P  P24  1  0.537400  0.680400  0.246800  1.0
  P  P25  1  0.226800  0.773800  0.869900  1.0
  P  P26  1  0.773200  0.226200  0.130100  1.0
  P  P27  1  0.923700  0.851400  0.796170  1.0
  P  P28  1  0.076300  0.148600  0.203830  1.0
  H  H29  1  0.492000  0.430700  0.959700  1.0
  H  H30  1  0.508000  0.569300  0.040300  1.0
  H  H31  1  0.549700  0.400100  0.106400  1.0
  H  H32  1  0.450300  0.599900  0.893600  1.0
  H  H33  1  0.531400  0.286400  0.211800  1.0
  H  H34  1  0.468600  0.713600  0.788200  1.0
  H  H35  1  0.447000  0.138200  0.232800  1.0
  H  H36  1  0.553000  0.861800  0.767200  1.0
  H  H37  1  0.304300  0.965000  0.167600  1.0
  H  H38  1  0.695700  0.035000  0.832400  1.0
  H  H39  1  0.168800  0.841600  0.045500  1.0
  H  H40  1  0.831200  0.158400  0.954500  1.0
  H  H41  1  0.205700  0.018200  0.870400  1.0
  H  H42  1  0.794300  0.981800  0.129600  1.0
  H  H43  1  0.263200  0.154300  0.850700  1.0
  H  H44  1  0.736800  0.845700  0.149300  1.0
  H  H45  1  0.053200  0.167000  0.769000  1.0
  H  H46  1  0.946800  0.833000  0.231000  1.0
  H  H47  1  0.124100  0.230100  0.870700  1.0
  H  H48  1  0.875900  0.769900  0.129300  1.0
  H  H49  1  0.967500  0.270300  0.840000  1.0
  H  H50  1  0.032500  0.729700  0.160000  1.0
  H  H51  1  0.920900  0.157900  0.826800  1.0
  H  H52  1  0.079100  0.842100  0.173200  1.0
  H  H53  1  0.896200  0.205500  0.738600  1.0
  H  H54  1  0.103800  0.794500  0.261400  1.0
  H  H55  1  0.202000  0.487000  0.811500  1.0
  H  H56  1  0.798000  0.513000  0.188500  1.0
  H  H57  1  0.081000  0.422400  0.814100  1.0
  H  H58  1  0.919000  0.577600  0.185900  1.0
  H  H59  1  0.176800  0.393700  0.955700  1.0
  H  H60  1  0.823200  0.606300  0.044300  1.0
  H  H61  1  0.250300  0.504900  0.964600  1.0
  H  H62  1  0.749700  0.495100  0.035400  1.0
  H  H63  1  0.298100  0.433200  0.949500  1.0
  H  H64  1  0.701900  0.566800  0.050500  1.0
  H  H65  1  0.963800  0.310400  0.652700  1.0
  H  H66  1  0.036200  0.689600  0.347300  1.0
  H  H67  1  0.065400  0.370400  0.625000  1.0
  H  H68  1  0.934600  0.629600  0.375000  1.0
  H  H69  1  0.064800  0.228600  0.577800  1.0
  H  H70  1  0.935200  0.771400  0.422200  1.0
  H  H71  1  0.937900  0.224700  0.521100  1.0
  H  H72  1  0.062100  0.775300  0.478900  1.0
  H  H73  1  0.961000  0.169200  0.603600  1.0
  H  H74  1  0.039000  0.830800  0.396400  1.0
  H  H75  1  0.511000  0.227500  0.860000  1.0
  H  H76  1  0.489000  0.772500  0.140000  1.0
  H  H77  1  0.409100  0.160600  0.762500  1.0
  H  H78  1  0.590900  0.839400  0.237500  1.0
  H  H79  1  0.545200  0.180900  0.708300  1.0
  H  H80  1  0.454800  0.819100  0.291700  1.0
  H  H81  1  0.592400  0.153600  0.806800  1.0
  H  H82  1  0.407600  0.846400  0.193200  1.0
  H  H83  1  0.649600  0.261500  0.797200  1.0
  H  H84  1  0.350400  0.738500  0.202800  1.0
  H  H85  1  0.433700  0.360700  0.611900  1.0
  H  H86  1  0.566300  0.639300  0.388100  1.0
  H  H87  1  0.502300  0.297500  0.633100  1.0
  H  H88  1  0.497700  0.702500  0.366900  1.0
  H  H89  1  0.322500  0.160700  0.597500  1.0
  H  H90  1  0.677500  0.839300  0.402500  1.0
  H  H91  1  0.314800  0.210300  0.511100  1.0
  H  H92  1  0.685200  0.789700  0.488900  1.0
  H  H93  1  0.255500  0.225200  0.571500  1.0
  H  H94  1  0.744500  0.774800  0.428500  1.0
  H  H95  1  0.641500  0.420800  0.881700  1.0
  H  H96  1  0.358500  0.579200  0.118300  1.0
  H  H97  1  0.661200  0.418900  0.792100  1.0
  H  H98  1  0.338800  0.581100  0.207900  1.0
  H  H99  1  0.580400  0.522400  0.740600  1.0
  H  H100  1  0.419600  0.477600  0.259400  1.0
  H  H101  1  0.681200  0.568500  0.844700  1.0
  H  H102  1  0.318800  0.431500  0.155300  1.0
  H  H103  1  0.545600  0.518200  0.822800  1.0
  H  H104  1  0.454400  0.481800  0.177200  1.0
  H  H105  1  0.143200  0.636100  0.760600  1.0
  H  H106  1  0.856800  0.363900  0.239400  1.0
  H  H107  1  0.283200  0.686800  0.800400  1.0
  H  H108  1  0.716800  0.313200  0.199600  1.0
  H  H109  1  0.279100  0.783600  0.700000  1.0
  H  H110  1  0.720900  0.216400  0.300000  1.0
  H  H111  1  0.161700  0.688400  0.638400  1.0
  H  H112  1  0.838300  0.311600  0.361600  1.0
  H  H113  1  0.153700  0.773700  0.683300  1.0
  H  H114  1  0.846300  0.226300  0.316700  1.0
  H  H115  1  0.431900  0.855300  0.924700  1.0
  H  H116  1  0.568100  0.144700  0.075300  1.0
  H  H117  1  0.390600  0.913200  0.971100  1.0
  H  H118  1  0.609400  0.086800  0.028900  1.0
  H  H119  1  0.313400  0.957400  0.821900  1.0
  H  H120  1  0.686600  0.042600  0.178100  1.0
  H  H121  1  0.453600  0.006900  0.881800  1.0
  H  H122  1  0.546400  0.993100  0.118200  1.0
  H  H123  1  0.390000  0.919600  0.797300  1.0
  H  H124  1  0.610000  0.080400  0.202700  1.0
  H  H125  1  0.290000  0.759400  0.023700  1.0
  H  H126  1  0.710000  0.240600  0.976300  1.0
  H  H127  1  0.308000  0.688400  0.968600  1.0
  H  H128  1  0.692000  0.311600  0.031400  1.0
  H  H129  1  0.095600  0.584100  0.897800  1.0
  H  H130  1  0.904400  0.415900  0.102200  1.0
  H  H131  1  0.155500  0.595100  0.007400  1.0
  H  H132  1  0.844500  0.404900  0.992600  1.0
  H  H133  1  0.083800  0.653200  0.960600  1.0
  H  H134  1  0.916200  0.346800  0.039400  1.0
  H  H135  1  0.020400  0.013600  0.801500  1.0
  H  H136  1  0.979600  0.986400  0.198500  1.0
  H  H137  1  0.884200  0.971000  0.728400  1.0
  H  H138  1  0.115800  0.029000  0.271600  1.0
  H  H139  1  0.919400  0.901100  0.620700  1.0
  H  H140  1  0.080600  0.098900  0.379300  1.0
  H  H141  1  0.002300  0.013200  0.649800  1.0
  H  H142  1  0.997700  0.986800  0.350200  1.0
  H  H143  1  0.055400  0.942500  0.693900  1.0
  H  H144  1  0.944600  0.057500  0.306100  1.0
  H  H145  1  0.754700  0.704900  0.729700  1.0
  H  H146  1  0.245300  0.295100  0.270300  1.0
  H  H147  1  0.786800  0.750200  0.651800  1.0
  H  H148  1  0.213200  0.249800  0.348200  1.0
  H  H149  1  0.702600  0.850700  0.652100  1.0
  H  H150  1  0.297400  0.149300  0.347900  1.0
  H  H151  1  0.608200  0.742600  0.632700  1.0
  H  H152  1  0.391800  0.257400  0.367300  1.0
  H  H153  1  0.673800  0.808900  0.732800  1.0
  H  H154  1  0.326200  0.191100  0.267200  1.0
  H  H155  1  0.846200  0.910400  0.870700  1.0
  H  H156  1  0.153800  0.089600  0.129300  1.0
  H  H157  1  0.978600  0.932900  0.940500  1.0
  H  H158  1  0.021400  0.067100  0.059500  1.0
  H  H159  1  0.909300  0.769200  0.950600  1.0
  H  H160  1  0.090700  0.230800  0.049400  1.0
  H  H161  1  0.854900  0.821200  0.988800  1.0
  H  H162  1  0.145100  0.178800  0.011200  1.0
  H  H163  1  0.777500  0.753500  0.888500  1.0
  H  H164  1  0.222500  0.246500  0.111500  1.0
  H  H165  1  0.061500  0.369700  0.456100  1.0
  H  H166  1  0.938500  0.630300  0.543900  1.0
  H  H167  1  0.282800  0.376700  0.473500  1.0
  H  H168  1  0.717200  0.623300  0.526500  1.0
  H  H169  1  0.476600  0.567900  0.578000  1.0
  H  H170  1  0.523400  0.432100  0.422000  1.0
  H  H171  1  0.372800  0.679100  0.625400  1.0
  H  H172  1  0.627200  0.320900  0.374600  1.0
  H  H173  1  0.119200  0.554500  0.552000  1.0
  H  H174  1  0.880800  0.445500  0.448000  1.0
  H  H175  1  0.625000  0.477500  0.625000  1.0
  H  H176  1  0.375000  0.522500  0.375000  1.0
  H  H177  1  0.430000  0.708100  0.469700  1.0
  H  H178  1  0.570000  0.291900  0.530300  1.0
  H  H179  1  0.205800  0.699000  0.450800  1.0
  H  H180  1  0.794200  0.301000  0.549200  1.0
  H  H181  1  0.984100  0.493200  0.653500  1.0
  H  H182  1  0.015900  0.506800  0.346500  1.0
  H  H183  1  0.794100  0.396900  0.701900  1.0
  H  H184  1  0.205900  0.603100  0.298100  1.0
  Pt  Pt185  1  0.313060  0.332940  0.766170  1.0
  Pt  Pt186  1  0.686940  0.667060  0.233830  1.0
  Pt  Pt187  1  0.069980  0.806150  0.832690  1.0
  Pt  Pt188  1  0.930020  0.193850  0.167310  1.0
  C  C189  1  0.287500  0.465000  0.646900  1.0
  C  C190  1  0.712500  0.535000  0.353100  1.0
  C  C191  1  0.267200  0.502200  0.554100  1.0
  C  C192  1  0.732800  0.497800  0.445900  1.0
  C  C193  1  0.822600  0.538700  0.627700  1.0
  C  C194  1  0.177400  0.461300  0.372300  1.0
  C  C195  1  0.892700  0.614700  0.718000  1.0
  C  C196  1  0.107300  0.385300  0.282000  1.0
  C  C197  1  0.365300  0.296200  0.888900  1.0
  C  C198  1  0.634700  0.703800  0.111100  1.0
  C  C199  1  0.455100  0.367800  0.967500  1.0
  C  C200  1  0.544900  0.632200  0.032500  1.0
  C  C201  1  0.490800  0.349700  0.054700  1.0
  C  C202  1  0.509200  0.650300  0.945300  1.0
  C  C203  1  0.441400  0.258400  0.067500  1.0
  C  C204  1  0.558600  0.741600  0.932500  1.0
  C  C205  1  0.473600  0.236600  0.159400  1.0
  C  C206  1  0.526400  0.763400  0.840600  1.0
  C  C207  1  0.424100  0.148900  0.171700  1.0
  C  C208  1  0.575900  0.851100  0.828300  1.0
  C  C209  1  0.337800  0.070200  0.096400  1.0
  C  C210  1  0.662200  0.929800  0.903600  1.0
  C  C211  1  0.284200  0.976800  0.107000  1.0
  C  C212  1  0.715800  0.023200  0.893000  1.0
  C  C213  1  0.205100  0.902900  0.034500  1.0
  C  C214  1  0.794900  0.097100  0.965500  1.0
  C  C215  1  0.174000  0.915300  0.939300  1.0
  C  C216  1  0.826000  0.084700  0.060700  1.0
  C  C217  1  0.225500  0.006700  0.931000  1.0
  C  C218  1  0.774500  0.993300  0.069000  1.0
  C  C219  1  0.305700  0.085700  0.004700  1.0
  C  C220  1  0.694300  0.914300  0.995300  1.0
  C  C221  1  0.357300  0.182600  0.992300  1.0
  C  C222  1  0.642700  0.817400  0.007700  1.0
  C  C223  1  0.320600  0.204600  0.902700  1.0
  C  C224  1  0.679400  0.795400  0.097300  1.0
  C  C225  1  0.069800  0.225400  0.806100  1.0
  C  C226  1  0.930200  0.774600  0.193900  1.0
  C  C227  1  0.952900  0.213700  0.802600  1.0
  C  C228  1  0.047100  0.786300  0.197400  1.0
  C  C229  1  0.160500  0.429100  0.830200  1.0
  C  C230  1  0.839500  0.570900  0.169800  1.0
  C  C231  1  0.227400  0.441300  0.934300  1.0
  C  C232  1  0.772600  0.558700  0.065700  1.0
  C  C233  1  0.033900  0.313400  0.649100  1.0
  C  C234  1  0.966100  0.686600  0.350900  1.0
  C  C235  1  0.996100  0.226300  0.582000  1.0
  C  C236  1  0.003900  0.773700  0.418000  1.0
  C  C237  1  0.485500  0.218600  0.792900  1.0
  C  C238  1  0.514500  0.781400  0.207100  1.0
  C  C239  1  0.576400  0.202200  0.774600  1.0
  C  C240  1  0.423600  0.797800  0.225400  1.0
  C  C241  1  0.435900  0.303600  0.635500  1.0
  C  C242  1  0.564100  0.696400  0.364500  1.0
  C  C243  1  0.322100  0.217400  0.573400  1.0
  C  C244  1  0.677900  0.782600  0.426600  1.0
  C  C245  1  0.608000  0.422800  0.815400  1.0
  C  C246  1  0.392000  0.577200  0.184600  1.0
  C  C247  1  0.603400  0.516200  0.804900  1.0
  C  C248  1  0.396600  0.483800  0.195100  1.0
  C  C249  1  0.213000  0.698100  0.777600  1.0
  C  C250  1  0.787000  0.301900  0.222400  1.0
  C  C251  1  0.200800  0.739600  0.692300  1.0
  C  C252  1  0.799200  0.260400  0.307700  1.0
  C  C253  1  0.371900  0.878000  0.911900  1.0
  C  C254  1  0.628100  0.122000  0.088100  1.0
  C  C255  1  0.383200  0.946600  0.847500  1.0
  C  C256  1  0.616800  0.053400  0.152500  1.0
  C  C257  1  0.252500  0.713100  0.965500  1.0
  C  C258  1  0.747500  0.286900  0.034500  1.0
  C  C259  1  0.135700  0.628300  0.957000  1.0
  C  C260  1  0.864300  0.371700  0.043000  1.0
  C  C261  1  0.954200  0.959300  0.751100  1.0
  C  C262  1  0.045800  0.040700  0.248900  1.0
  C  C263  1  0.985700  0.953500  0.671600  1.0
  C  C264  1  0.014300  0.046500  0.328400  1.0
  C  C265  1  0.779000  0.764400  0.707000  1.0
  C  C266  1  0.221000  0.235600  0.293000  1.0
  C  C267  1  0.682400  0.794300  0.678700  1.0
  C  C268  1  0.317600  0.205700  0.321300  1.0
  C  C269  1  0.902700  0.883300  0.892200  1.0
  C  C270  1  0.097300  0.116700  0.107800  1.0
  C  C271  1  0.857100  0.799400  0.933700  1.0
  C  C272  1  0.142900  0.200600  0.066300  1.0
  O  O273  1  0.273400  0.382900  0.639300  1.0
  O  O274  1  0.726600  0.617100  0.360700  1.0
  O  O275  1  0.311400  0.522700  0.712800  1.0
  O  O276  1  0.688600  0.477300  0.287200  1.0
  O  O277  1  0.963700  0.692900  0.715000  1.0
  O  O278  1  0.036300  0.307100  0.285000  1.0
  O  O279  1  0.867000  0.592300  0.781100  1.0
  O  O280  1  0.133000  0.407700  0.218900  1.0
