# generated using pymatgen
data_CoH14C8N4O23
_symmetry_space_group_name_H-M   'P 1'
_cell_length_a   17.22891100
_cell_length_b   17.22891100
_cell_length_c   17.22891100
_cell_angle_alpha   105.29143411
_cell_angle_beta   111.60067945
_cell_angle_gamma   111.60067945
_symmetry_Int_Tables_number   1
_chemical_formula_structural   CoH14C8N4O23
_chemical_formula_sum   'Co8 H112 C64 N32 O184'
_cell_volume   3921.31089878
_cell_formula_units_Z   8
loop_
 _symmetry_equiv_pos_site_id
 _symmetry_equiv_pos_as_xyz
  1  'x, y, z'
loop_
 _atom_site_type_symbol
 _atom_site_label
 _atom_site_symmetry_multiplicity
 _atom_site_fract_x
 _atom_site_fract_y
 _atom_site_fract_z
 _atom_site_occupancy
  C  C1  1  0.092100  0.749200  0.157100  1.0
  C  C2  1  0.407900  0.065000  0.157100  1.0
  C  C3  1  0.592100  0.157100  0.749200  1.0
  C  C4  1  0.907900  0.157100  0.065000  1.0
  C  C5  1  0.907900  0.250800  0.842900  1.0
  C  C6  1  0.592100  0.935000  0.842900  1.0
  C  C7  1  0.092100  0.842900  0.935000  1.0
  C  C8  1  0.407900  0.842900  0.250800  1.0
  C  C9  1  0.092500  0.820600  0.228100  1.0
  C  C10  1  0.407500  0.135600  0.228100  1.0
  C  C11  1  0.592500  0.228100  0.820600  1.0
  C  C12  1  0.907500  0.228100  0.135600  1.0
  C  C13  1  0.907500  0.179400  0.771900  1.0
  C  C14  1  0.592500  0.864400  0.771900  1.0
  C  C15  1  0.092500  0.771900  0.864400  1.0
  C  C16  1  0.407500  0.771900  0.179400  1.0
  C  C17  1  0.127230  0.649400  0.092870  1.0
  C  C18  1  0.372770  0.965640  0.022170  1.0
  C  C19  1  0.556530  0.022170  0.649400  1.0
  C  C20  1  0.943470  0.092870  0.965640  1.0
  C  C21  1  0.943470  0.350600  0.977830  1.0
  C  C22  1  0.556530  0.034360  0.907130  1.0
  C  C23  1  0.127230  0.977830  0.034360  1.0
  C  C24  1  0.372770  0.907130  0.350600  1.0
  C  C25  1  0.872770  0.350600  0.907130  1.0
  C  C26  1  0.627230  0.034360  0.977830  1.0
  C  C27  1  0.443470  0.977830  0.350600  1.0
  C  C28  1  0.056530  0.907130  0.034360  1.0
  C  C29  1  0.056530  0.649400  0.022170  1.0
  C  C30  1  0.443470  0.965640  0.092870  1.0
  C  C31  1  0.872770  0.022170  0.965640  1.0
  C  C32  1  0.627230  0.092870  0.649400  1.0
  C  C33  1  0.180250  0.599630  0.100140  1.0
  C  C34  1  0.319750  0.919890  0.919380  1.0
  C  C35  1  0.499490  0.919380  0.599630  1.0
  C  C36  1  0.000510  0.100140  0.919890  1.0
  C  C37  1  0.000510  0.400370  0.080620  1.0
  C  C38  1  0.499490  0.080110  0.899860  1.0
  C  C39  1  0.180250  0.080620  0.080110  1.0
  C  C40  1  0.319750  0.899860  0.400370  1.0
  C  C41  1  0.819750  0.400370  0.899860  1.0
  C  C42  1  0.680250  0.080110  0.080620  1.0
  C  C43  1  0.500510  0.080620  0.400370  1.0
  C  C44  1  0.999490  0.899860  0.080110  1.0
  C  C45  1  0.999490  0.599630  0.919380  1.0
  C  C46  1  0.500510  0.919890  0.100140  1.0
  C  C47  1  0.819750  0.919380  0.919890  1.0
  C  C48  1  0.680250  0.100140  0.599630  1.0
  C  C49  1  0.198900  0.583800  0.344700  1.0
  C  C50  1  0.301100  0.145800  0.884900  1.0
  C  C51  1  0.239100  0.884900  0.583800  1.0
  C  C52  1  0.260900  0.344700  0.145800  1.0
  C  C53  1  0.260900  0.416200  0.115100  1.0
  C  C54  1  0.239100  0.854200  0.655300  1.0
  C  C55  1  0.198900  0.115100  0.854200  1.0
  C  C56  1  0.301100  0.655300  0.416200  1.0
  C  C57  1  0.801100  0.416200  0.655300  1.0
  C  C58  1  0.698900  0.854200  0.115100  1.0
  C  C59  1  0.760900  0.115100  0.416200  1.0
  C  C60  1  0.739100  0.655300  0.854200  1.0
  C  C61  1  0.739100  0.583800  0.884900  1.0
  C  C62  1  0.760900  0.145800  0.344700  1.0
  C  C63  1  0.801100  0.884900  0.145800  1.0
  C  C64  1  0.698900  0.344700  0.583800  1.0
  Co  Co65  1  0.250000  0.718360  0.281640  1.0
  Co  Co66  1  0.250000  0.031640  0.968360  1.0
  Co  Co67  1  0.436720  0.968360  0.718360  1.0
  Co  Co68  1  0.063280  0.281640  0.031640  1.0
  Co  Co69  1  0.750000  0.281640  0.718360  1.0
  Co  Co70  1  0.750000  0.968360  0.031640  1.0
  Co  Co71  1  0.563280  0.031640  0.281640  1.0
  Co  Co72  1  0.936720  0.718360  0.968360  1.0
  H  H73  1  0.046100  0.836200  0.196700  1
  H  H74  1  0.453900  0.150600  0.290100  1
  H  H75  1  0.639500  0.290100  0.836200  1
  H  H76  1  0.860500  0.196700  0.150600  1
  H  H77  1  0.860500  0.163800  0.709900  1
  H  H78  1  0.639500  0.849400  0.803300  1
  H  H79  1  0.046100  0.709900  0.849400  1
  H  H80  1  0.453900  0.803300  0.163800  1
  H  H81  1  0.953900  0.163800  0.803300  1
  H  H82  1  0.546100  0.849400  0.709900  1
  H  H83  1  0.360500  0.709900  0.163800  1
  H  H84  1  0.139500  0.803300  0.849400  1
  H  H85  1  0.139500  0.836200  0.290100  1
  H  H86  1  0.360500  0.150600  0.196700  1
  H  H87  1  0.953900  0.290100  0.150600  1
  H  H88  1  0.546100  0.196700  0.836200  1
  H  H89  1  0.156500  0.876100  0.266800  1
  H  H90  1  0.343500  0.110300  0.219600  1
  H  H91  1  0.609300  0.219600  0.876100  1
  H  H92  1  0.890700  0.266800  0.110300  1
  H  H93  1  0.890700  0.123900  0.780400  1
  H  H94  1  0.609300  0.889700  0.733200  1
  H  H95  1  0.156500  0.780400  0.889700  1
  H  H96  1  0.343500  0.733200  0.123900  1
  H  H97  1  0.843500  0.123900  0.733200  1
  H  H98  1  0.656500  0.889700  0.780400  1
  H  H99  1  0.390700  0.780400  0.123900  1
  H  H100  1  0.109300  0.733200  0.889700  1
  H  H101  1  0.109300  0.876100  0.219600  1
  H  H102  1  0.390700  0.110300  0.266800  1
  H  H103  1  0.843500  0.219600  0.110300  1
  H  H104  1  0.656500  0.266800  0.876100  1
  H  H105  1  0.075000  0.795500  0.266700  1
  H  H106  1  0.425000  0.191700  0.220500  1
  H  H107  1  0.528800  0.220500  0.795500  1
  H  H108  1  0.971200  0.266700  0.191700  1
  H  H109  1  0.971200  0.204500  0.779500  1
  H  H110  1  0.528800  0.808300  0.733300  1
  H  H111  1  0.075000  0.779500  0.808300  1
  H  H112  1  0.425000  0.733300  0.204500  1
  H  H113  1  0.925000  0.204500  0.733300  1
  H  H114  1  0.575000  0.808300  0.779500  1
  H  H115  1  0.471200  0.779500  0.204500  1
  H  H116  1  0.028800  0.733300  0.808300  1
  H  H117  1  0.028800  0.795500  0.220500  1
  H  H118  1  0.471200  0.191700  0.266700  1
  H  H119  1  0.925000  0.220500  0.191700  1
  H  H120  1  0.575000  0.266700  0.795500  1
  H  H121  1  0.132000  0.654000  0.323600  1.0
  H  H122  1  0.368000  0.191600  0.022000  1.0
  H  H123  1  0.330400  0.022000  0.654000  1.0
  H  H124  1  0.169600  0.323600  0.191600  1.0
  H  H125  1  0.169600  0.346000  0.978000  1.0
  H  H126  1  0.330400  0.808400  0.676400  1.0
  H  H127  1  0.132000  0.978000  0.808400  1.0
  H  H128  1  0.368000  0.676400  0.346000  1.0
  H  H129  1  0.868000  0.346000  0.676400  1.0
  H  H130  1  0.632000  0.808400  0.978000  1.0
  H  H131  1  0.669600  0.978000  0.346000  1.0
  H  H132  1  0.830400  0.676400  0.808400  1.0
  H  H133  1  0.830400  0.654000  0.022000  1.0
  H  H134  1  0.669600  0.191600  0.323600  1.0
  H  H135  1  0.868000  0.022000  0.191600  1.0
  H  H136  1  0.632000  0.323600  0.654000  1.0
  H  H137  1  0.103500  0.580900  0.235200  1.0
  H  H138  1  0.396500  0.131700  0.977400  1.0
  H  H139  1  0.345700  0.977400  0.580900  1.0
  H  H140  1  0.154300  0.235200  0.131700  1.0
  H  H141  1  0.154300  0.419100  0.022600  1.0
  H  H142  1  0.345700  0.868300  0.764800  1.0
  H  H143  1  0.103500  0.022600  0.868300  1.0
  H  H144  1  0.396500  0.764800  0.419100  1.0
  H  H145  1  0.896500  0.419100  0.764800  1.0
  H  H146  1  0.603500  0.868300  0.022600  1.0
  H  H147  1  0.654300  0.022600  0.419100  1.0
  H  H148  1  0.845700  0.764800  0.868300  1.0
  H  H149  1  0.845700  0.580900  0.977400  1.0
  H  H150  1  0.654300  0.131700  0.235200  1.0
  H  H151  1  0.896500  0.977400  0.131700  1.0
  H  H152  1  0.603500  0.235200  0.580900  1.0
  H  H153  1  0.164100  0.560600  0.374500  1.0
  H  H154  1  0.335900  0.210400  0.896500  1.0
  H  H155  1  0.186100  0.896500  0.560600  1.0
  H  H156  1  0.313900  0.374500  0.210400  1.0
  H  H157  1  0.313900  0.439400  0.103500  1.0
  H  H158  1  0.186100  0.789600  0.625500  1.0
  H  H159  1  0.164100  0.103500  0.789600  1.0
  H  H160  1  0.335900  0.625500  0.439400  1.0
  H  H161  1  0.835900  0.439400  0.625500  1.0
  H  H162  1  0.664100  0.789600  0.103500  1.0
  H  H163  1  0.813900  0.103500  0.439400  1.0
  H  H164  1  0.686100  0.625500  0.789600  1.0
  H  H165  1  0.686100  0.560600  0.896500  1.0
  H  H166  1  0.813900  0.210400  0.374500  1.0
  H  H167  1  0.835900  0.896500  0.210400  1.0
  H  H168  1  0.664100  0.374500  0.560600  1.0
  H  H169  1  0.195100  0.531300  0.301600  1.0
  H  H170  1  0.304900  0.106500  0.836200  1.0
  H  H171  1  0.229700  0.836200  0.531300  1.0
  H  H172  1  0.270300  0.301600  0.106500  1.0
  H  H173  1  0.270300  0.468700  0.163800  1.0
  H  H174  1  0.229700  0.893500  0.698400  1.0
  H  H175  1  0.195100  0.163800  0.893500  1.0
  H  H176  1  0.304900  0.698400  0.468700  1.0
  H  H177  1  0.804900  0.468700  0.698400  1.0
  H  H178  1  0.695100  0.893500  0.163800  1.0
  H  H179  1  0.770300  0.163800  0.468700  1.0
  H  H180  1  0.729700  0.698400  0.893500  1.0
  H  H181  1  0.729700  0.531300  0.836200  1.0
  H  H182  1  0.770300  0.106500  0.301600  1.0
  H  H183  1  0.804900  0.836200  0.106500  1.0
  H  H184  1  0.695100  0.301600  0.531300  1.0
  N  N185  1  0.148670  0.712020  0.177150  1.0
  N  N186  1  0.351330  0.028480  0.063350  1.0
  N  N187  1  0.534870  0.063350  0.712020  1.0
  N  N188  1  0.965130  0.177150  0.028480  1.0
  N  N189  1  0.965130  0.287980  0.936650  1.0
  N  N190  1  0.534870  0.971520  0.822850  1.0
  N  N191  1  0.148670  0.936650  0.971520  1.0
  N  N192  1  0.351330  0.822850  0.287980  1.0
  N  N193  1  0.851330  0.287980  0.822850  1.0
  N  N194  1  0.648670  0.971520  0.936650  1.0
  N  N195  1  0.465130  0.936650  0.287980  1.0
  N  N196  1  0.034870  0.822850  0.971520  1.0
  N  N197  1  0.034870  0.712020  0.063350  1.0
  N  N198  1  0.465130  0.028480  0.177150  1.0
  N  N199  1  0.851330  0.063350  0.028480  1.0
  N  N200  1  0.648670  0.177150  0.712020  1.0
  N  N201  1  0.154390  0.626160  0.292890  1.0
  N  N202  1  0.345610  0.138500  0.971770  1.0
  N  N203  1  0.333270  0.971770  0.626160  1.0
  N  N204  1  0.166730  0.292890  0.138500  1.0
  N  N205  1  0.166730  0.373840  0.028230  1.0
  N  N206  1  0.333270  0.861500  0.707110  1.0
  N  N207  1  0.154390  0.028230  0.861500  1.0
  N  N208  1  0.345610  0.707110  0.373840  1.0
  N  N209  1  0.845610  0.373840  0.707110  1.0
  N  N210  1  0.654390  0.861500  0.028230  1.0
  N  N211  1  0.666730  0.028230  0.373840  1.0
  N  N212  1  0.833270  0.707110  0.861500  1.0
  N  N213  1  0.833270  0.626160  0.971770  1.0
  N  N214  1  0.666730  0.138500  0.292890  1.0
  N  N215  1  0.845610  0.971770  0.138500  1.0
  N  N216  1  0.654390  0.292890  0.626160  1.0
  O  O217  1  0.080000  0.411300  0.831300  1
  O  O218  1  0.420000  0.751300  0.831300  1
  O  O219  1  0.580000  0.831300  0.411300  1
  O  O220  1  0.920000  0.831300  0.751300  1
  O  O221  1  0.920000  0.588700  0.168700  1
  O  O222  1  0.580000  0.248700  0.168700  1
  O  O223  1  0.080000  0.168700  0.248700  1
  O  O224  1  0.420000  0.168700  0.588700  1
  O  O225  1  0.170000  0.509000  0.875000  1
  O  O226  1  0.330000  0.705000  0.839000  1
  O  O227  1  0.634000  0.839000  0.509000  1
  O  O228  1  0.866000  0.875000  0.705000  1
  O  O229  1  0.866000  0.491000  0.161000  1
  O  O230  1  0.634000  0.295000  0.125000  1
  O  O231  1  0.170000  0.161000  0.295000  1
  O  O232  1  0.330000  0.125000  0.491000  1
  O  O233  1  0.830000  0.491000  0.125000  1
  O  O234  1  0.670000  0.295000  0.161000  1
  O  O235  1  0.366000  0.161000  0.491000  1
  O  O236  1  0.134000  0.125000  0.295000  1
  O  O237  1  0.134000  0.509000  0.839000  1
  O  O238  1  0.366000  0.705000  0.875000  1
  O  O239  1  0.830000  0.839000  0.705000  1
  O  O240  1  0.670000  0.875000  0.509000  1
  O  O241  1  0.114000  0.444500  0.830500  1
  O  O242  1  0.386000  0.716500  0.830500  1
  O  O243  1  0.614000  0.830500  0.444500  1
  O  O244  1  0.886000  0.830500  0.716500  1
  O  O245  1  0.886000  0.555500  0.169500  1
  O  O246  1  0.614000  0.283500  0.169500  1
  O  O247  1  0.114000  0.169500  0.283500  1
  O  O248  1  0.386000  0.169500  0.555500  1
  O  O249  1  0.312700  0.548300  0.978600  1
  O  O250  1  0.187300  0.665900  0.735600  1
  O  O251  1  0.569700  0.735600  0.548300  1
  O  O252  1  0.930300  0.978600  0.665900  1
  O  O253  1  0.930300  0.451700  0.264400  1
  O  O254  1  0.569700  0.334100  0.021400  1
  O  O255  1  0.312700  0.264400  0.334100  1
  O  O256  1  0.187300  0.021400  0.451700  1
  O  O257  1  0.687300  0.451700  0.021400  1
  O  O258  1  0.812700  0.334100  0.264400  1
  O  O259  1  0.430300  0.264400  0.451700  1
  O  O260  1  0.069700  0.021400  0.334100  1
  O  O261  1  0.069700  0.548300  0.735600  1
  O  O262  1  0.430300  0.665900  0.978600  1
  O  O263  1  0.687300  0.735600  0.665900  1
  O  O264  1  0.812700  0.978600  0.548300  1
  O  O265  1  0.354000  0.561900  0.033700  1
  O  O266  1  0.146000  0.679700  0.707900  1
  O  O267  1  0.528200  0.707900  0.561900  1
  O  O268  1  0.971800  0.033700  0.679700  1
  O  O269  1  0.971800  0.438100  0.292100  1
  O  O270  1  0.528200  0.320300  0.966300  1
  O  O271  1  0.354000  0.292100  0.320300  1
  O  O272  1  0.146000  0.966300  0.438100  1
  O  O273  1  0.646000  0.438100  0.966300  1
  O  O274  1  0.854000  0.320300  0.292100  1
  O  O275  1  0.471800  0.292100  0.438100  1
  O  O276  1  0.028200  0.966300  0.320300  1
  O  O277  1  0.028200  0.561900  0.707900  1
  O  O278  1  0.471800  0.679700  0.033700  1
  O  O279  1  0.646000  0.707900  0.679700  1
  O  O280  1  0.854000  0.033700  0.561900  1
  O  O281  1  0.021500  0.687700  0.351200  1
  O  O282  1  0.478500  0.329700  0.166200  1
  O  O283  1  0.336500  0.166200  0.687700  1
  O  O284  1  0.163500  0.351200  0.329700  1
  O  O285  1  0.163500  0.312300  0.833800  1
  O  O286  1  0.336500  0.670300  0.648800  1
  O  O287  1  0.021500  0.833800  0.670300  1
  O  O288  1  0.478500  0.648800  0.312300  1
  O  O289  1  0.978500  0.312300  0.648800  1
  O  O290  1  0.521500  0.670300  0.833800  1
  O  O291  1  0.663500  0.833800  0.312300  1
  O  O292  1  0.836500  0.648800  0.670300  1
  O  O293  1  0.836500  0.687700  0.166200  1
  O  O294  1  0.663500  0.329700  0.351200  1
  O  O295  1  0.978500  0.166200  0.329700  1
  O  O296  1  0.521500  0.351200  0.687700  1
  O  O297  1  0.053000  0.624000  0.417000  1
  O  O298  1  0.447000  0.364000  0.071000  1
  O  O299  1  0.207000  0.071000  0.624000  1
  O  O300  1  0.293000  0.417000  0.364000  1
  O  O301  1  0.293000  0.376000  0.929000  1
  O  O302  1  0.207000  0.636000  0.583000  1
  O  O303  1  0.053000  0.929000  0.636000  1
  O  O304  1  0.447000  0.583000  0.376000  1
  O  O305  1  0.947000  0.376000  0.583000  1
  O  O306  1  0.553000  0.636000  0.929000  1
  O  O307  1  0.793000  0.929000  0.376000  1
  O  O308  1  0.707000  0.583000  0.636000  1
  O  O309  1  0.707000  0.624000  0.071000  1
  O  O310  1  0.793000  0.364000  0.417000  1
  O  O311  1  0.947000  0.071000  0.364000  1
  O  O312  1  0.553000  0.417000  0.624000  1
  O  O313  1  0.023800  0.645200  0.367200  1
  O  O314  1  0.476200  0.343400  0.121400  1
  O  O315  1  0.278000  0.121400  0.645200  1
  O  O316  1  0.222000  0.367200  0.343400  1
  O  O317  1  0.222000  0.354800  0.878600  1
  O  O318  1  0.278000  0.656600  0.632800  1
  O  O319  1  0.023800  0.878600  0.656600  1
  O  O320  1  0.476200  0.632800  0.354800  1
  O  O321  1  0.976200  0.354800  0.632800  1
  O  O322  1  0.523800  0.656600  0.878600  1
  O  O323  1  0.722000  0.878600  0.354800  1
  O  O324  1  0.778000  0.632800  0.656600  1
  O  O325  1  0.778000  0.645200  0.121400  1
  O  O326  1  0.722000  0.343400  0.367200  1
  O  O327  1  0.976200  0.121400  0.343400  1
  O  O328  1  0.523800  0.367200  0.645200  1
  O  O329  1  0.047000  0.592000  0.471000  1
  O  O330  1  0.453000  0.424000  0.045000  1
  O  O331  1  0.121000  0.045000  0.592000  1
  O  O332  1  0.379000  0.471000  0.424000  1
  O  O333  1  0.379000  0.408000  0.955000  1
  O  O334  1  0.121000  0.576000  0.529000  1
  O  O335  1  0.047000  0.955000  0.576000  1
  O  O336  1  0.453000  0.529000  0.408000  1
  O  O337  1  0.953000  0.408000  0.529000  1
  O  O338  1  0.547000  0.576000  0.955000  1
  O  O339  1  0.879000  0.955000  0.408000  1
  O  O340  1  0.621000  0.529000  0.576000  1
  O  O341  1  0.621000  0.592000  0.045000  1
  O  O342  1  0.879000  0.424000  0.471000  1
  O  O343  1  0.953000  0.045000  0.424000  1
  O  O344  1  0.547000  0.471000  0.592000  1
  O  O345  1  0.517000  0.627000  0.144000  1
  O  O346  1  0.983000  0.627000  0.610000  1
  O  O347  1  0.483000  0.610000  0.627000  1
  O  O348  1  0.017000  0.144000  0.627000  1
  O  O349  1  0.017000  0.373000  0.390000  1
  O  O350  1  0.483000  0.373000  0.856000  1
  O  O351  1  0.517000  0.390000  0.373000  1
  O  O352  1  0.983000  0.856000  0.373000  1
  O  O353  1  0.516000  0.619000  0.181000  1
  O  O354  1  0.984000  0.665000  0.603000  1
  O  O355  1  0.438000  0.603000  0.619000  1
  O  O356  1  0.062000  0.181000  0.665000  1
  O  O357  1  0.062000  0.381000  0.397000  1
  O  O358  1  0.438000  0.335000  0.819000  1
  O  O359  1  0.516000  0.397000  0.335000  1
  O  O360  1  0.984000  0.819000  0.381000  1
  O  O361  1  0.484000  0.381000  0.819000  1
  O  O362  1  0.016000  0.335000  0.397000  1
  O  O363  1  0.562000  0.397000  0.381000  1
  O  O364  1  0.938000  0.819000  0.335000  1
  O  O365  1  0.938000  0.619000  0.603000  1
  O  O366  1  0.562000  0.665000  0.181000  1
  O  O367  1  0.484000  0.603000  0.665000  1
  O  O368  1  0.016000  0.181000  0.619000  1
  O  O369  1  0.239030  0.621300  0.186170  1.0
  O  O370  1  0.260970  0.947140  0.882270  1.0
  O  O371  1  0.435130  0.882270  0.621300  1.0
  O  O372  1  0.064870  0.186170  0.947140  1.0
  O  O373  1  0.064870  0.378700  0.117730  1.0
  O  O374  1  0.435130  0.052860  0.813830  1.0
  O  O375  1  0.239030  0.117730  0.052860  1.0
  O  O376  1  0.260970  0.813830  0.378700  1.0
  O  O377  1  0.760970  0.378700  0.813830  1.0
  O  O378  1  0.739030  0.052860  0.117730  1.0
  O  O379  1  0.564870  0.117730  0.378700  1.0
  O  O380  1  0.935130  0.813830  0.052860  1.0
  O  O381  1  0.935130  0.621300  0.882270  1.0
  O  O382  1  0.564870  0.947140  0.186170  1.0
  O  O383  1  0.760970  0.882270  0.947140  1.0
  O  O384  1  0.739030  0.186170  0.621300  1.0
  O  O385  1  0.170590  0.542190  0.031460  1.0
  O  O386  1  0.329410  0.860870  0.871600  1.0
  O  O387  1  0.510730  0.871600  0.542190  1.0
  O  O388  1  0.989270  0.031460  0.860870  1.0
  O  O389  1  0.989270  0.457810  0.128400  1.0
  O  O390  1  0.510730  0.139130  0.968540  1.0
  O  O391  1  0.170590  0.128400  0.139130  1.0
  O  O392  1  0.329410  0.968540  0.457810  1.0
  O  O393  1  0.829410  0.457810  0.968540  1.0
  O  O394  1  0.670590  0.139130  0.128400  1.0
  O  O395  1  0.489270  0.128400  0.457810  1.0
  O  O396  1  0.010730  0.968540  0.139130  1.0
  O  O397  1  0.010730  0.542190  0.871600  1.0
  O  O398  1  0.489270  0.860870  0.031460  1.0
  O  O399  1  0.829410  0.871600  0.860870  1.0
  O  O400  1  0.670590  0.031460  0.542190  1.0
