# generated using pymatgen
data_CoH6C12(N2O9)2
_symmetry_space_group_name_H-M   'P 1'
_cell_length_a   17.02946745
_cell_length_b   17.02946745
_cell_length_c   17.02946745
_cell_angle_alpha   101.35772381
_cell_angle_beta   113.67404922
_cell_angle_gamma   113.67404922
_symmetry_Int_Tables_number   1
_chemical_formula_structural   CoH6C12(N2O9)2
_chemical_formula_sum   'Co8 H48 C96 N32 O144'
_cell_volume   3745.70891135
_cell_formula_units_Z   8
loop_
 _symmetry_equiv_pos_site_id
 _symmetry_equiv_pos_as_xyz
  1  'x, y, z'
loop_
 _atom_site_type_symbol
 _atom_site_label
 _atom_site_symmetry_multiplicity
 _atom_site_fract_x
 _atom_site_fract_y
 _atom_site_fract_z
 _atom_site_occupancy
  C  C1  1  0.207200  0.601500  0.319300  1
  C  C2  1  0.292800  0.112100  0.894300  1
  C  C3  1  0.282200  0.894300  0.601500  1
  C  C4  1  0.217800  0.319300  0.112100  1
  C  C5  1  0.217800  0.398500  0.105700  1
  C  C6  1  0.282200  0.887900  0.680700  1
  C  C7  1  0.207200  0.105700  0.887900  1
  C  C8  1  0.292800  0.680700  0.398500  1
  C  C9  1  0.792800  0.398500  0.680700  1
  C  C10  1  0.707200  0.887900  0.105700  1
  C  C11  1  0.717800  0.105700  0.398500  1
  C  C12  1  0.782200  0.680700  0.887900  1
  C  C13  1  0.782200  0.601500  0.894300  1
  C  C14  1  0.717800  0.112100  0.319300  1
  C  C15  1  0.792800  0.894300  0.112100  1
  C  C16  1  0.707200  0.319300  0.601500  1
  C  C17  1  0.083800  0.344700  0.428500  1.0
  C  C18  1  0.416200  0.344700  0.760900  1.0
  C  C19  1  0.916200  0.760900  0.344700  1.0
  C  C20  1  0.583800  0.428500  0.344700  1.0
  C  C21  1  0.583800  0.655300  0.239100  1.0
  C  C22  1  0.916200  0.655300  0.571500  1.0
  C  C23  1  0.083800  0.239100  0.655300  1.0
  C  C24  1  0.416200  0.571500  0.655300  1.0
  C  C25  1  0.078100  0.275600  0.353700  1.0
  C  C26  1  0.421900  0.275600  0.697500  1.0
  C  C27  1  0.921900  0.697500  0.275600  1.0
  C  C28  1  0.578100  0.353700  0.275600  1.0
  C  C29  1  0.578100  0.724400  0.302500  1.0
  C  C30  1  0.921900  0.724400  0.646300  1.0
  C  C31  1  0.078100  0.302500  0.724400  1.0
  C  C32  1  0.421900  0.646300  0.724400  1.0
  C  C33  1  0.126300  0.477200  0.530100  1.0
  C  C34  1  0.373700  0.403800  0.850900  1.0
  C  C35  1  0.947100  0.850900  0.477200  1.0
  C  C36  1  0.552900  0.530100  0.403800  1.0
  C  C37  1  0.552900  0.522800  0.149100  1.0
  C  C38  1  0.947100  0.596200  0.469900  1.0
  C  C39  1  0.126300  0.149100  0.596200  1.0
  C  C40  1  0.373700  0.469900  0.522800  1.0
  C  C41  1  0.873700  0.522800  0.469900  1.0
  C  C42  1  0.626300  0.596200  0.149100  1.0
  C  C43  1  0.052900  0.149100  0.522800  1.0
  C  C44  1  0.447100  0.469900  0.596200  1.0
  C  C45  1  0.447100  0.477200  0.850900  1.0
  C  C46  1  0.052900  0.403800  0.530100  1.0
  C  C47  1  0.873700  0.850900  0.403800  1.0
  C  C48  1  0.626300  0.530100  0.477200  1.0
  C  C49  1  0.184000  0.582600  0.576400  1.0
  C  C50  1  0.316000  0.392400  0.898600  1.0
  C  C51  1  0.006200  0.898600  0.582600  1.0
  C  C52  1  0.493800  0.576400  0.392400  1.0
  C  C53  1  0.493800  0.417400  0.101400  1.0
  C  C54  1  0.006200  0.607600  0.423600  1.0
  C  C55  1  0.184000  0.101400  0.607600  1.0
  C  C56  1  0.316000  0.423600  0.417400  1.0
  C  C57  1  0.816000  0.417400  0.423600  1.0
  C  C58  1  0.684000  0.607600  0.101400  1.0
  C  C59  1  0.993800  0.101400  0.417400  1.0
  C  C60  1  0.506200  0.423600  0.607600  1.0
  C  C61  1  0.506200  0.582600  0.898600  1.0
  C  C62  1  0.993800  0.392400  0.576400  1.0
  C  C63  1  0.816000  0.898600  0.392400  1.0
  C  C64  1  0.684000  0.576400  0.582600  1.0
  C  C65  1  0.195500  0.629100  0.344800  1.0
  C  C66  1  0.304500  0.149300  0.933600  1.0
  C  C67  1  0.284300  0.933600  0.629100  1.0
  C  C68  1  0.215700  0.344800  0.149300  1.0
  C  C69  1  0.215700  0.370900  0.066400  1.0
  C  C70  1  0.284300  0.850700  0.655200  1.0
  C  C71  1  0.195500  0.066400  0.850700  1.0
  C  C72  1  0.304500  0.655200  0.370900  1.0
  C  C73  1  0.804500  0.370900  0.655200  1.0
  C  C74  1  0.695500  0.850700  0.066400  1.0
  C  C75  1  0.715700  0.066400  0.370900  1.0
  C  C76  1  0.784300  0.655200  0.850700  1.0
  C  C77  1  0.784300  0.629100  0.933600  1.0
  C  C78  1  0.715700  0.149300  0.344800  1.0
  C  C79  1  0.804500  0.933600  0.149300  1.0
  C  C80  1  0.695500  0.344800  0.629100  1.0
  C  C81  1  0.133900  0.618700  0.250400  1.0
  C  C82  1  0.366100  0.116500  0.984800  1.0
  C  C83  1  0.368300  0.984800  0.618700  1.0
  C  C84  1  0.131700  0.250400  0.116500  1.0
  C  C85  1  0.131700  0.381300  0.015200  1.0
  C  C86  1  0.368300  0.883500  0.749600  1.0
  C  C87  1  0.133900  0.015200  0.883500  1.0
  C  C88  1  0.366100  0.749600  0.381300  1.0
  C  C89  1  0.866100  0.381300  0.749600  1.0
  C  C90  1  0.633900  0.883500  0.015200  1.0
  C  C91  1  0.631700  0.015200  0.381300  1.0
  C  C92  1  0.868300  0.749600  0.883500  1.0
  C  C93  1  0.868300  0.618700  0.984800  1.0
  C  C94  1  0.631700  0.116500  0.250400  1.0
  C  C95  1  0.866100  0.984800  0.116500  1.0
  C  C96  1  0.633900  0.250400  0.618700  1.0
  Co  Co97  1  0.250000  0.537800  0.462200  1.0
  Co  Co98  1  0.250000  0.212200  0.787800  1.0
  Co  Co99  1  0.075600  0.787800  0.537800  1.0
  Co  Co100  1  0.424400  0.462200  0.212200  1.0
  Co  Co101  1  0.750000  0.462200  0.537800  1.0
  Co  Co102  1  0.750000  0.787800  0.212200  1.0
  Co  Co103  1  0.924400  0.212200  0.462200  1.0
  Co  Co104  1  0.575600  0.537800  0.787800  1.0
  H  H105  1  0.028900  0.212200  0.338300  1
  H  H106  1  0.471100  0.309400  0.683300  1
  H  H107  1  0.873900  0.683300  0.212200  1
  H  H108  1  0.626100  0.338300  0.309400  1
  H  H109  1  0.626100  0.787800  0.316700  1
  H  H110  1  0.873900  0.690600  0.661700  1
  H  H111  1  0.028900  0.316700  0.690600  1
  H  H112  1  0.471100  0.661700  0.787800  1
  H  H113  1  0.971100  0.787800  0.661700  1
  H  H114  1  0.528900  0.690600  0.316700  1
  H  H115  1  0.126100  0.316700  0.787800  1
  H  H116  1  0.373900  0.661700  0.690600  1
  H  H117  1  0.373900  0.212200  0.683300  1
  H  H118  1  0.126100  0.309400  0.338300  1
  H  H119  1  0.971100  0.683300  0.309400  1
  H  H120  1  0.528900  0.338300  0.212200  1
  H  H121  1  0.143400  0.283100  0.376900  1
  H  H122  1  0.356600  0.233500  0.639700  1
  H  H123  1  0.906200  0.639700  0.283100  1
  H  H124  1  0.593800  0.376900  0.233500  1
  H  H125  1  0.593800  0.716900  0.360300  1
  H  H126  1  0.906200  0.766500  0.623100  1
  H  H127  1  0.143400  0.360300  0.766500  1
  H  H128  1  0.356600  0.623100  0.716900  1
  H  H129  1  0.856600  0.716900  0.623100  1
  H  H130  1  0.643400  0.766500  0.360300  1
  H  H131  1  0.093800  0.360300  0.716900  1
  H  H132  1  0.406200  0.623100  0.766500  1
  H  H133  1  0.406200  0.283100  0.639700  1
  H  H134  1  0.093800  0.233500  0.376900  1
  H  H135  1  0.856600  0.639700  0.233500  1
  H  H136  1  0.643400  0.376900  0.283100  1
  H  H137  1  0.058400  0.287300  0.298100  1
  H  H138  1  0.441600  0.239700  0.728900  1
  H  H139  1  0.989200  0.728900  0.287300  1
  H  H140  1  0.510800  0.298100  0.239700  1
  H  H141  1  0.510800  0.712700  0.271100  1
  H  H142  1  0.989200  0.760300  0.701900  1
  H  H143  1  0.058400  0.271100  0.760300  1
  H  H144  1  0.441600  0.701900  0.712700  1
  H  H145  1  0.941600  0.712700  0.701900  1
  H  H146  1  0.558400  0.760300  0.271100  1
  H  H147  1  0.010800  0.271100  0.712700  1
  H  H148  1  0.489200  0.701900  0.760300  1
  H  H149  1  0.489200  0.287300  0.728900  1
  H  H150  1  0.010800  0.239700  0.298100  1
  H  H151  1  0.941600  0.728900  0.239700  1
  H  H152  1  0.558400  0.298100  0.287300  1
  N  N153  1  0.144900  0.438940  0.465440  1.0
  N  N154  1  0.355100  0.320540  0.794040  1.0
  N  N155  1  0.973500  0.794040  0.438940  1.0
  N  N156  1  0.526500  0.465440  0.320540  1.0
  N  N157  1  0.526500  0.561060  0.205960  1.0
  N  N158  1  0.973500  0.679460  0.534560  1.0
  N  N159  1  0.144900  0.205960  0.679460  1.0
  N  N160  1  0.355100  0.534560  0.561060  1.0
  N  N161  1  0.855100  0.561060  0.534560  1.0
  N  N162  1  0.644900  0.679460  0.205960  1.0
  N  N163  1  0.026500  0.205960  0.561060  1.0
  N  N164  1  0.473500  0.534560  0.679460  1.0
  N  N165  1  0.473500  0.438940  0.794040  1.0
  N  N166  1  0.026500  0.320540  0.465440  1.0
  N  N167  1  0.855100  0.794040  0.320540  1.0
  N  N168  1  0.644900  0.465440  0.438940  1.0
  N  N169  1  0.149367  0.535567  0.351600  1.0
  N  N170  1  0.350633  0.202233  0.886200  1.0
  N  N171  1  0.183967  0.886200  0.535567  1.0
  N  N172  1  0.316033  0.351600  0.202233  1.0
  N  N173  1  0.316033  0.464433  0.113800  1.0
  N  N174  1  0.183967  0.797767  0.648400  1.0
  N  N175  1  0.149367  0.113800  0.797767  1.0
  N  N176  1  0.350633  0.648400  0.464433  1.0
  N  N177  1  0.850633  0.464433  0.648400  1.0
  N  N178  1  0.649367  0.797767  0.113800  1.0
  N  N179  1  0.816033  0.113800  0.464433  1.0
  N  N180  1  0.683967  0.648400  0.797767  1.0
  N  N181  1  0.683967  0.535567  0.886200  1.0
  N  N182  1  0.816033  0.202233  0.351600  1.0
  N  N183  1  0.850633  0.886200  0.202233  1.0
  N  N184  1  0.649367  0.351600  0.535567  1.0
  O  O185  1  0.981200  0.364100  0.143700  1
  O  O186  1  0.518800  0.162500  0.882900  1
  O  O187  1  0.220400  0.882900  0.364100  1
  O  O188  1  0.279600  0.143700  0.162500  1
  O  O189  1  0.279600  0.635900  0.117100  1
  O  O190  1  0.220400  0.837500  0.856300  1
  O  O191  1  0.981200  0.117100  0.837500  1
  O  O192  1  0.518800  0.856300  0.635900  1
  O  O193  1  0.018800  0.635900  0.856300  1
  O  O194  1  0.481200  0.837500  0.117100  1
  O  O195  1  0.779600  0.117100  0.635900  1
  O  O196  1  0.720400  0.856300  0.837500  1
  O  O197  1  0.720400  0.364100  0.882900  1
  O  O198  1  0.779600  0.162500  0.143700  1
  O  O199  1  0.018800  0.882900  0.162500  1
  O  O200  1  0.481200  0.143700  0.364100  1
  O  O201  1  0.195000  0.617000  0.812000  1
  O  O202  1  0.305000  0.617000  0.922000  1
  O  O203  1  0.805000  0.922000  0.617000  1
  O  O204  1  0.695000  0.812000  0.617000  1
  O  O205  1  0.695000  0.383000  0.078000  1
  O  O206  1  0.805000  0.383000  0.188000  1
  O  O207  1  0.195000  0.078000  0.383000  1
  O  O208  1  0.305000  0.188000  0.383000  1
  O  O209  1  0.163000  0.639200  0.802200  1
  O  O210  1  0.337000  0.639200  0.976200  1
  O  O211  1  0.837000  0.976200  0.639200  1
  O  O212  1  0.663000  0.802200  0.639200  1
  O  O213  1  0.663000  0.360800  0.023800  1
  O  O214  1  0.837000  0.360800  0.197800  1
  O  O215  1  0.163000  0.023800  0.360800  1
  O  O216  1  0.337000  0.197800  0.360800  1
  O  O217  1  0.106000  0.654000  0.760000  1
  O  O218  1  0.394000  0.654000  0.048000  1
  O  O219  1  0.894000  0.048000  0.654000  1
  O  O220  1  0.606000  0.760000  0.654000  1
  O  O221  1  0.606000  0.346000  0.952000  1
  O  O222  1  0.894000  0.346000  0.240000  1
  O  O223  1  0.106000  0.952000  0.346000  1
  O  O224  1  0.394000  0.240000  0.346000  1
  O  O225  1  0.136000  0.587000  0.807000  1
  O  O226  1  0.364000  0.671000  0.951000  1
  O  O227  1  0.780000  0.951000  0.587000  1
  O  O228  1  0.720000  0.807000  0.671000  1
  O  O229  1  0.720000  0.413000  0.049000  1
  O  O230  1  0.780000  0.329000  0.193000  1
  O  O231  1  0.136000  0.049000  0.329000  1
  O  O232  1  0.364000  0.193000  0.413000  1
  O  O233  1  0.864000  0.413000  0.193000  1
  O  O234  1  0.636000  0.329000  0.049000  1
  O  O235  1  0.220000  0.049000  0.413000  1
  O  O236  1  0.280000  0.193000  0.329000  1
  O  O237  1  0.280000  0.587000  0.951000  1
  O  O238  1  0.220000  0.671000  0.807000  1
  O  O239  1  0.864000  0.951000  0.671000  1
  O  O240  1  0.636000  0.807000  0.587000  1
  O  O241  1  0.956000  0.538800  0.180800  1
  O  O242  1  0.544000  0.224800  0.082800  1
  O  O243  1  0.358000  0.082800  0.538800  1
  O  O244  1  0.142000  0.180800  0.224800  1
  O  O245  1  0.142000  0.461200  0.917200  1
  O  O246  1  0.358000  0.775200  0.819200  1
  O  O247  1  0.956000  0.917200  0.775200  1
  O  O248  1  0.544000  0.819200  0.461200  1
  O  O249  1  0.044000  0.461200  0.819200  1
  O  O250  1  0.456000  0.775200  0.917200  1
  O  O251  1  0.642000  0.917200  0.461200  1
  O  O252  1  0.858000  0.819200  0.775200  1
  O  O253  1  0.858000  0.538800  0.082800  1
  O  O254  1  0.642000  0.224800  0.180800  1
  O  O255  1  0.044000  0.082800  0.224800  1
  O  O256  1  0.456000  0.180800  0.538800  1
  O  O257  1  0.916000  0.382000  0.966000  1
  O  O258  1  0.584000  0.050000  0.966000  1
  O  O259  1  0.416000  0.966000  0.382000  1
  O  O260  1  0.084000  0.966000  0.050000  1
  O  O261  1  0.084000  0.618000  0.034000  1
  O  O262  1  0.416000  0.950000  0.034000  1
  O  O263  1  0.916000  0.034000  0.950000  1
  O  O264  1  0.584000  0.034000  0.618000  1
  O  O265  1  0.929000  0.438000  0.009000  1
  O  O266  1  0.571000  0.080000  0.009000  1
  O  O267  1  0.429000  0.009000  0.438000  1
  O  O268  1  0.071000  0.009000  0.080000  1
  O  O269  1  0.071000  0.562000  0.991000  1
  O  O270  1  0.429000  0.920000  0.991000  1
  O  O271  1  0.929000  0.991000  0.920000  1
  O  O272  1  0.571000  0.991000  0.562000  1
  O  O273  1  0.933000  0.171000  0.104000  1
  O  O274  1  0.567000  0.171000  0.738000  1
  O  O275  1  0.067000  0.738000  0.171000  1
  O  O276  1  0.433000  0.104000  0.171000  1
  O  O277  1  0.433000  0.829000  0.262000  1
  O  O278  1  0.067000  0.829000  0.896000  1
  O  O279  1  0.933000  0.262000  0.829000  1
  O  O280  1  0.567000  0.896000  0.829000  1
  O  O281  1  0.877000  0.162000  0.039000  1
  O  O282  1  0.623000  0.162000  0.785000  1
  O  O283  1  0.123000  0.785000  0.162000  1
  O  O284  1  0.377000  0.039000  0.162000  1
  O  O285  1  0.377000  0.838000  0.215000  1
  O  O286  1  0.123000  0.838000  0.961000  1
  O  O287  1  0.877000  0.215000  0.838000  1
  O  O288  1  0.623000  0.961000  0.838000  1
  O  O289  1  0.768000  0.104000  0.872000  1
  O  O290  1  0.732000  0.104000  0.836000  1
  O  O291  1  0.232000  0.836000  0.104000  1
  O  O292  1  0.268000  0.872000  0.104000  1
  O  O293  1  0.268000  0.896000  0.164000  1
  O  O294  1  0.232000  0.896000  0.128000  1
  O  O295  1  0.768000  0.164000  0.896000  1
  O  O296  1  0.732000  0.128000  0.896000  1
  O  O297  1  0.240980  0.621620  0.545900  1.0
  O  O298  1  0.259020  0.304920  0.880640  1.0
  O  O299  1  0.075720  0.880640  0.621620  1.0
  O  O300  1  0.424280  0.545900  0.304920  1.0
  O  O301  1  0.424280  0.378380  0.119360  1.0
  O  O302  1  0.075720  0.695080  0.454100  1.0
  O  O303  1  0.240980  0.119360  0.695080  1.0
  O  O304  1  0.259020  0.454100  0.378380  1.0
  O  O305  1  0.759020  0.378380  0.454100  1.0
  O  O306  1  0.740980  0.695080  0.119360  1.0
  O  O307  1  0.924280  0.119360  0.378380  1.0
  O  O308  1  0.575720  0.454100  0.695080  1.0
  O  O309  1  0.575720  0.621620  0.880640  1.0
  O  O310  1  0.924280  0.304920  0.545900  1.0
  O  O311  1  0.759020  0.880640  0.304920  1.0
  O  O312  1  0.740980  0.545900  0.621620  1.0
  O  O313  1  0.178100  0.627210  0.636710  1.0
  O  O314  1  0.321900  0.458610  0.949110  1.0
  O  O315  1  0.990500  0.949110  0.627210  1.0
  O  O316  1  0.509500  0.636710  0.458610  1.0
  O  O317  1  0.509500  0.372790  0.050890  1.0
  O  O318  1  0.990500  0.541390  0.363290  1.0
  O  O319  1  0.178100  0.050890  0.541390  1.0
  O  O320  1  0.321900  0.363290  0.372790  1.0
  O  O321  1  0.821900  0.372790  0.363290  1.0
  O  O322  1  0.678100  0.541390  0.050890  1.0
  O  O323  1  0.009500  0.050890  0.372790  1.0
  O  O324  1  0.490500  0.363290  0.541390  1.0
  O  O325  1  0.490500  0.627210  0.949110  1.0
  O  O326  1  0.009500  0.458610  0.636710  1.0
  O  O327  1  0.821900  0.949110  0.458610  1.0
  O  O328  1  0.678100  0.636710  0.627210  1.0
