# generated using pymatgen
data_Co2H28C20N8O37
_symmetry_space_group_name_H-M   'P 1'
_cell_length_a   17.41558085
_cell_length_b   17.41558085
_cell_length_c   17.41558085
_cell_angle_alpha   108.26509264
_cell_angle_beta   110.07763009
_cell_angle_gamma   110.07763009
_symmetry_Int_Tables_number   1
_chemical_formula_structural   Co2H28C20N8O37
_chemical_formula_sum   'Co8 H112 C80 N32 O148'
_cell_volume   4064.88259292
_cell_formula_units_Z   4
loop_
 _symmetry_equiv_pos_site_id
 _symmetry_equiv_pos_as_xyz
  1  'x, y, z'
loop_
 _atom_site_type_symbol
 _atom_site_label
 _atom_site_symmetry_multiplicity
 _atom_site_fract_x
 _atom_site_fract_y
 _atom_site_fract_z
 _atom_site_occupancy
  C  C1  1  0.180700  0.926900  0.246200  1
  C  C2  1  0.319300  0.065500  0.246200  1
  C  C3  1  0.680700  0.246200  0.926900  1
  C  C4  1  0.819300  0.246200  0.065500  1
  C  C5  1  0.819300  0.073100  0.753800  1
  C  C6  1  0.680700  0.934500  0.753800  1
  C  C7  1  0.180700  0.753800  0.934500  1
  C  C8  1  0.319300  0.753800  0.073100  1
  C  C9  1  0.098600  0.757200  0.158600  1.0
  C  C10  1  0.401400  0.060000  0.158600  1.0
  C  C11  1  0.598600  0.158600  0.757200  1.0
  C  C12  1  0.901400  0.158600  0.060000  1.0
  C  C13  1  0.901400  0.242800  0.841400  1.0
  C  C14  1  0.598600  0.940000  0.841400  1.0
  C  C15  1  0.098600  0.841400  0.940000  1.0
  C  C16  1  0.401400  0.841400  0.242800  1.0
  C  C17  1  0.107900  0.840400  0.232500  1.0
  C  C18  1  0.392100  0.124600  0.232500  1.0
  C  C19  1  0.607900  0.232500  0.840400  1.0
  C  C20  1  0.892100  0.232500  0.124600  1.0
  C  C21  1  0.892100  0.159600  0.767500  1.0
  C  C22  1  0.607900  0.875400  0.767500  1.0
  C  C23  1  0.107900  0.767500  0.875400  1.0
  C  C24  1  0.392100  0.767500  0.159600  1.0
  C  C25  1  0.040500  0.801800  0.261300  1.0
  C  C26  1  0.459500  0.220800  0.261300  1.0
  C  C27  1  0.540500  0.261300  0.801800  1.0
  C  C28  1  0.959500  0.261300  0.220800  1.0
  C  C29  1  0.959500  0.198200  0.738700  1.0
  C  C30  1  0.540500  0.779200  0.738700  1.0
  C  C31  1  0.040500  0.738700  0.779200  1.0
  C  C32  1  0.459500  0.738700  0.198200  1.0
  C  C33  1  0.122680  0.645230  0.091730  1.0
  C  C34  1  0.377320  0.969050  0.022550  1.0
  C  C35  1  0.553500  0.022550  0.645230  1.0
  C  C36  1  0.946500  0.091730  0.969050  1.0
  C  C37  1  0.946500  0.354770  0.977450  1.0
  C  C38  1  0.553500  0.030950  0.908270  1.0
  C  C39  1  0.122680  0.977450  0.030950  1.0
  C  C40  1  0.377320  0.908270  0.354770  1.0
  C  C41  1  0.877320  0.354770  0.908270  1.0
  C  C42  1  0.622680  0.030950  0.977450  1.0
  C  C43  1  0.446500  0.977450  0.354770  1.0
  C  C44  1  0.053500  0.908270  0.030950  1.0
  C  C45  1  0.053500  0.645230  0.022550  1.0
  C  C46  1  0.446500  0.969050  0.091730  1.0
  C  C47  1  0.877320  0.022550  0.969050  1.0
  C  C48  1  0.622680  0.091730  0.645230  1.0
  C  C49  1  0.173110  0.592840  0.095210  1.0
  C  C50  1  0.326890  0.922100  0.919730  1.0
  C  C51  1  0.497630  0.919730  0.592840  1.0
  C  C52  1  0.002370  0.095210  0.922100  1.0
  C  C53  1  0.002370  0.407160  0.080270  1.0
  C  C54  1  0.497630  0.077900  0.904790  1.0
  C  C55  1  0.173110  0.080270  0.077900  1.0
  C  C56  1  0.326890  0.904790  0.407160  1.0
  C  C57  1  0.826890  0.407160  0.904790  1.0
  C  C58  1  0.673110  0.077900  0.080270  1.0
  C  C59  1  0.502370  0.080270  0.407160  1.0
  C  C60  1  0.997630  0.904790  0.077900  1.0
  C  C61  1  0.997630  0.592840  0.919730  1.0
  C  C62  1  0.502370  0.922100  0.095210  1.0
  C  C63  1  0.826890  0.919730  0.922100  1.0
  C  C64  1  0.673110  0.095210  0.592840  1.0
  C  C65  1  0.199900  0.589700  0.338400  1.0
  C  C66  1  0.300100  0.138500  0.889800  1.0
  C  C67  1  0.251300  0.889800  0.589700  1.0
  C  C68  1  0.248700  0.338400  0.138500  1.0
  C  C69  1  0.248700  0.410300  0.110200  1.0
  C  C70  1  0.251300  0.861500  0.661600  1.0
  C  C71  1  0.199900  0.110200  0.861500  1.0
  C  C72  1  0.300100  0.661600  0.410300  1.0
  C  C73  1  0.800100  0.410300  0.661600  1.0
  C  C74  1  0.699900  0.861500  0.110200  1.0
  C  C75  1  0.748700  0.110200  0.410300  1.0
  C  C76  1  0.751300  0.661600  0.861500  1.0
  C  C77  1  0.751300  0.589700  0.889800  1.0
  C  C78  1  0.748700  0.138500  0.338400  1.0
  C  C79  1  0.800100  0.889800  0.138500  1.0
  C  C80  1  0.699900  0.338400  0.589700  1.0
  Co  Co81  1  0.250000  0.721890  0.278110  1.0
  Co  Co82  1  0.250000  0.028110  0.971890  1.0
  Co  Co83  1  0.443780  0.971890  0.721890  1.0
  Co  Co84  1  0.056220  0.278110  0.028110  1.0
  Co  Co85  1  0.750000  0.278110  0.721890  1.0
  Co  Co86  1  0.750000  0.971890  0.028110  1.0
  Co  Co87  1  0.556220  0.028110  0.278110  1.0
  Co  Co88  1  0.943780  0.721890  0.971890  1.0
  H  H89  1  0.205000  0.910600  0.205600  1
  H  H90  1  0.295000  0.000600  0.205600  1
  H  H91  1  0.705000  0.205600  0.910600  1
  H  H92  1  0.795000  0.205600  0.000600  1
  H  H93  1  0.795000  0.089400  0.794400  1
  H  H94  1  0.705000  0.999400  0.794400  1
  H  H95  1  0.205000  0.794400  0.999400  1
  H  H96  1  0.295000  0.794400  0.089400  1
  H  H97  1  0.231500  0.963100  0.310200  1.0
  H  H98  1  0.268500  0.078700  0.231600  1.0
  H  H99  1  0.652900  0.231600  0.963100  1.0
  H  H100  1  0.847100  0.310200  0.078700  1.0
  H  H101  1  0.847100  0.036900  0.768400  1.0
  H  H102  1  0.652900  0.921300  0.689800  1.0
  H  H103  1  0.231500  0.768400  0.921300  1.0
  H  H104  1  0.268500  0.689800  0.036900  1.0
  H  H105  1  0.768500  0.036900  0.689800  1.0
  H  H106  1  0.731500  0.921300  0.768400  1.0
  H  H107  1  0.347100  0.768400  0.036900  1.0
  H  H108  1  0.152900  0.689800  0.921300  1.0
  H  H109  1  0.152900  0.963100  0.231600  1.0
  H  H110  1  0.347100  0.078700  0.310200  1.0
  H  H111  1  0.768500  0.231600  0.078700  1.0
  H  H112  1  0.731500  0.310200  0.963100  1.0
  H  H113  1  0.007600  0.734600  0.227000  1.0
  H  H114  1  0.492400  0.219400  0.227000  1.0
  H  H115  1  0.507600  0.227000  0.734600  1.0
  H  H116  1  0.992400  0.227000  0.219400  1.0
  H  H117  1  0.992400  0.265400  0.773000  1.0
  H  H118  1  0.507600  0.780600  0.773000  1.0
  H  H119  1  0.007600  0.773000  0.780600  1.0
  H  H120  1  0.492400  0.773000  0.265400  1.0
  H  H121  1  0.138300  0.665400  0.325700  1.0
  H  H122  1  0.361700  0.187400  0.027100  1.0
  H  H123  1  0.339700  0.027100  0.665400  1.0
  H  H124  1  0.160300  0.325700  0.187400  1.0
  H  H125  1  0.160300  0.334600  0.972900  1.0
  H  H126  1  0.339700  0.812600  0.674300  1.0
  H  H127  1  0.138300  0.972900  0.812600  1.0
  H  H128  1  0.361700  0.674300  0.334600  1.0
  H  H129  1  0.861700  0.334600  0.674300  1.0
  H  H130  1  0.638300  0.812600  0.972900  1.0
  H  H131  1  0.660300  0.972900  0.334600  1.0
  H  H132  1  0.839700  0.674300  0.812600  1.0
  H  H133  1  0.839700  0.665400  0.027100  1.0
  H  H134  1  0.660300  0.187400  0.325700  1.0
  H  H135  1  0.861700  0.027100  0.187400  1.0
  H  H136  1  0.638300  0.325700  0.665400  1.0
  H  H137  1  0.106500  0.590500  0.234600  1.0
  H  H138  1  0.393500  0.128100  0.984000  1.0
  H  H139  1  0.355900  0.984000  0.590500  1.0
  H  H140  1  0.144100  0.234600  0.128100  1.0
  H  H141  1  0.144100  0.409500  0.016000  1.0
  H  H142  1  0.355900  0.871900  0.765400  1.0
  H  H143  1  0.106500  0.016000  0.871900  1.0
  H  H144  1  0.393500  0.765400  0.409500  1.0
  H  H145  1  0.893500  0.409500  0.765400  1.0
  H  H146  1  0.606500  0.871900  0.016000  1.0
  H  H147  1  0.644100  0.016000  0.409500  1.0
  H  H148  1  0.855900  0.765400  0.871900  1.0
  H  H149  1  0.855900  0.590500  0.984000  1.0
  H  H150  1  0.644100  0.128100  0.234600  1.0
  H  H151  1  0.893500  0.984000  0.128100  1.0
  H  H152  1  0.606500  0.234600  0.590500  1.0
  H  H153  1  0.165800  0.566700  0.367500  1.0
  H  H154  1  0.334200  0.201700  0.900900  1.0
  H  H155  1  0.199200  0.900900  0.566700  1.0
  H  H156  1  0.300800  0.367500  0.201700  1.0
  H  H157  1  0.300800  0.433300  0.099100  1.0
  H  H158  1  0.199200  0.798300  0.632500  1.0
  H  H159  1  0.165800  0.099100  0.798300  1.0
  H  H160  1  0.334200  0.632500  0.433300  1.0
  H  H161  1  0.834200  0.433300  0.632500  1.0
  H  H162  1  0.665800  0.798300  0.099100  1.0
  H  H163  1  0.800800  0.099100  0.433300  1.0
  H  H164  1  0.699200  0.632500  0.798300  1.0
  H  H165  1  0.699200  0.566700  0.900900  1.0
  H  H166  1  0.800800  0.201700  0.367500  1.0
  H  H167  1  0.834200  0.900900  0.201700  1.0
  H  H168  1  0.665800  0.367500  0.566700  1.0
  H  H169  1  0.196400  0.537200  0.293000  1.0
  H  H170  1  0.303600  0.096600  0.840800  1.0
  H  H171  1  0.244200  0.840800  0.537200  1.0
  H  H172  1  0.255800  0.293000  0.096600  1.0
  H  H173  1  0.255800  0.462800  0.159200  1.0
  H  H174  1  0.244200  0.903400  0.707000  1.0
  H  H175  1  0.196400  0.159200  0.903400  1.0
  H  H176  1  0.303600  0.707000  0.462800  1.0
  H  H177  1  0.803600  0.462800  0.707000  1.0
  H  H178  1  0.696400  0.903400  0.159200  1.0
  H  H179  1  0.755800  0.159200  0.462800  1.0
  H  H180  1  0.744200  0.707000  0.903400  1.0
  H  H181  1  0.744200  0.537200  0.840800  1.0
  H  H182  1  0.755800  0.096600  0.293000  1.0
  H  H183  1  0.803600  0.840800  0.096600  1.0
  H  H184  1  0.696400  0.293000  0.537200  1.0
  H  H185  1  0.995600  0.822800  0.248600  1.0
  H  H186  1  0.504400  0.253000  0.327200  1.0
  H  H187  1  0.574200  0.327200  0.822800  1.0
  H  H188  1  0.925800  0.248600  0.253000  1.0
  H  H189  1  0.925800  0.177200  0.672800  1.0
  H  H190  1  0.574200  0.747000  0.751400  1.0
  H  H191  1  0.995600  0.672800  0.747000  1.0
  H  H192  1  0.504400  0.751400  0.177200  1.0
  H  H193  1  0.004400  0.177200  0.751400  1.0
  H  H194  1  0.495600  0.747000  0.672800  1.0
  H  H195  1  0.425800  0.672800  0.177200  1.0
  H  H196  1  0.074200  0.751400  0.747000  1.0
  H  H197  1  0.074200  0.822800  0.327200  1.0
  H  H198  1  0.425800  0.253000  0.248600  1.0
  H  H199  1  0.004400  0.327200  0.253000  1.0
  H  H200  1  0.495600  0.248600  0.822800  1.0
  N  N201  1  0.150280  0.716120  0.177040  1.0
  N  N202  1  0.349720  0.026760  0.065840  1.0
  N  N203  1  0.539080  0.065840  0.716120  1.0
  N  N204  1  0.960920  0.177040  0.026760  1.0
  N  N205  1  0.960920  0.283880  0.934160  1.0
  N  N206  1  0.539080  0.973240  0.822960  1.0
  N  N207  1  0.150280  0.934160  0.973240  1.0
  N  N208  1  0.349720  0.822960  0.283880  1.0
  N  N209  1  0.849720  0.283880  0.822960  1.0
  N  N210  1  0.650280  0.973240  0.934160  1.0
  N  N211  1  0.460920  0.934160  0.283880  1.0
  N  N212  1  0.039080  0.822960  0.973240  1.0
  N  N213  1  0.039080  0.716120  0.065840  1.0
  N  N214  1  0.460920  0.026760  0.177040  1.0
  N  N215  1  0.849720  0.065840  0.026760  1.0
  N  N216  1  0.650280  0.177040  0.716120  1.0
  N  N217  1  0.157450  0.634680  0.291490  1.0
  N  N218  1  0.342550  0.134040  0.977230  1.0
  N  N219  1  0.343190  0.977230  0.634680  1.0
  N  N220  1  0.156810  0.291490  0.134040  1.0
  N  N221  1  0.156810  0.365320  0.022770  1.0
  N  N222  1  0.343190  0.865960  0.708510  1.0
  N  N223  1  0.157450  0.022770  0.865960  1.0
  N  N224  1  0.342550  0.708510  0.365320  1.0
  N  N225  1  0.842550  0.365320  0.708510  1.0
  N  N226  1  0.657450  0.865960  0.022770  1.0
  N  N227  1  0.656810  0.022770  0.365320  1.0
  N  N228  1  0.843190  0.708510  0.865960  1.0
  N  N229  1  0.843190  0.634680  0.977230  1.0
  N  N230  1  0.656810  0.134040  0.291490  1.0
  N  N231  1  0.842550  0.977230  0.134040  1.0
  N  N232  1  0.657450  0.291490  0.634680  1.0
  O  O233  1  0.217000  0.478000  0.483000  1
  O  O234  1  0.283000  0.266000  0.761000  1
  O  O235  1  0.995000  0.761000  0.478000  1
  O  O236  1  0.505000  0.483000  0.266000  1
  O  O237  1  0.505000  0.522000  0.239000  1
  O  O238  1  0.995000  0.734000  0.517000  1
  O  O239  1  0.217000  0.239000  0.734000  1
  O  O240  1  0.283000  0.517000  0.522000  1
  O  O241  1  0.783000  0.522000  0.517000  1
  O  O242  1  0.717000  0.734000  0.239000  1
  O  O243  1  0.005000  0.239000  0.522000  1
  O  O244  1  0.495000  0.517000  0.734000  1
  O  O245  1  0.495000  0.478000  0.761000  1
  O  O246  1  0.005000  0.266000  0.483000  1
  O  O247  1  0.783000  0.761000  0.266000  1
  O  O248  1  0.717000  0.483000  0.478000  1
  O  O249  1  0.250000  0.200000  0.450000  1
  O  O250  1  0.750000  0.450000  0.200000  1
  O  O251  1  0.750000  0.800000  0.550000  1
  O  O252  1  0.250000  0.550000  0.800000  1
  O  O253  1  0.292300  0.528800  0.961900  1
  O  O254  1  0.207700  0.669600  0.736500  1
  O  O255  1  0.566900  0.736500  0.528800  1
  O  O256  1  0.933100  0.961900  0.669600  1
  O  O257  1  0.933100  0.471200  0.263500  1
  O  O258  1  0.566900  0.330400  0.038100  1
  O  O259  1  0.292300  0.263500  0.330400  1
  O  O260  1  0.207700  0.038100  0.471200  1
  O  O261  1  0.707700  0.471200  0.038100  1
  O  O262  1  0.792300  0.330400  0.263500  1
  O  O263  1  0.433100  0.263500  0.471200  1
  O  O264  1  0.066900  0.038100  0.330400  1
  O  O265  1  0.066900  0.528800  0.736500  1
  O  O266  1  0.433100  0.669600  0.961900  1
  O  O267  1  0.707700  0.736500  0.669600  1
  O  O268  1  0.792300  0.961900  0.528800  1
  O  O269  1  0.328800  0.541600  0.012200  1
  O  O270  1  0.171200  0.683400  0.712800  1
  O  O271  1  0.529400  0.712800  0.541600  1
  O  O272  1  0.970600  0.012200  0.683400  1
  O  O273  1  0.970600  0.458400  0.287200  1
  O  O274  1  0.529400  0.316600  0.987800  1
  O  O275  1  0.328800  0.287200  0.316600  1
  O  O276  1  0.171200  0.987800  0.458400  1
  O  O277  1  0.671200  0.458400  0.987800  1
  O  O278  1  0.828800  0.316600  0.287200  1
  O  O279  1  0.470600  0.287200  0.458400  1
  O  O280  1  0.029400  0.987800  0.316600  1
  O  O281  1  0.029400  0.541600  0.712800  1
  O  O282  1  0.470600  0.683400  0.012200  1
  O  O283  1  0.671200  0.712800  0.683400  1
  O  O284  1  0.828800  0.012200  0.541600  1
  O  O285  1  0.037200  0.654600  0.386600  1
  O  O286  1  0.462800  0.349400  0.117400  1
  O  O287  1  0.268000  0.117400  0.654600  1
  O  O288  1  0.232000  0.386600  0.349400  1
  O  O289  1  0.232000  0.345400  0.882600  1
  O  O290  1  0.268000  0.650600  0.613400  1
  O  O291  1  0.037200  0.882600  0.650600  1
  O  O292  1  0.462800  0.613400  0.345400  1
  O  O293  1  0.962800  0.345400  0.613400  1
  O  O294  1  0.537200  0.650600  0.882600  1
  O  O295  1  0.732000  0.882600  0.345400  1
  O  O296  1  0.768000  0.613400  0.650600  1
  O  O297  1  0.768000  0.654600  0.117400  1
  O  O298  1  0.732000  0.349400  0.386600  1
  O  O299  1  0.962800  0.117400  0.349400  1
  O  O300  1  0.537200  0.386600  0.654600  1
  O  O301  1  0.074200  0.644000  0.429200  1
  O  O302  1  0.425800  0.355000  0.069800  1
  O  O303  1  0.214800  0.069800  0.644000  1
  O  O304  1  0.285200  0.429200  0.355000  1
  O  O305  1  0.285200  0.356000  0.930200  1
  O  O306  1  0.214800  0.645000  0.570800  1
  O  O307  1  0.074200  0.930200  0.645000  1
  O  O308  1  0.425800  0.570800  0.356000  1
  O  O309  1  0.925800  0.356000  0.570800  1
  O  O310  1  0.574200  0.645000  0.930200  1
  O  O311  1  0.785200  0.930200  0.356000  1
  O  O312  1  0.714800  0.570800  0.645000  1
  O  O313  1  0.714800  0.644000  0.069800  1
  O  O314  1  0.785200  0.355000  0.429200  1
  O  O315  1  0.925800  0.069800  0.355000  1
  O  O316  1  0.574200  0.429200  0.644000  1
  O  O317  1  0.033600  0.701300  0.358500  1
  O  O318  1  0.466400  0.324900  0.167700  1
  O  O319  1  0.342800  0.167700  0.701300  1
  O  O320  1  0.157200  0.358500  0.324900  1
  O  O321  1  0.157200  0.298700  0.832300  1
  O  O322  1  0.342800  0.675100  0.641500  1
  O  O323  1  0.033600  0.832300  0.675100  1
  O  O324  1  0.466400  0.641500  0.298700  1
  O  O325  1  0.966400  0.298700  0.641500  1
  O  O326  1  0.533600  0.675100  0.832300  1
  O  O327  1  0.657200  0.832300  0.298700  1
  O  O328  1  0.842800  0.641500  0.675100  1
  O  O329  1  0.842800  0.701300  0.167700  1
  O  O330  1  0.657200  0.324900  0.358500  1
  O  O331  1  0.966400  0.167700  0.324900  1
  O  O332  1  0.533600  0.358500  0.701300  1
  O  O333  1  0.118300  0.450400  0.832100  1
  O  O334  1  0.381700  0.713800  0.832100  1
  O  O335  1  0.618300  0.832100  0.450400  1
  O  O336  1  0.881700  0.832100  0.713800  1
  O  O337  1  0.881700  0.549600  0.167900  1
  O  O338  1  0.618300  0.286200  0.167900  1
  O  O339  1  0.118300  0.167900  0.286200  1
  O  O340  1  0.381700  0.167900  0.549600  1
  O  O341  1  0.075300  0.397700  0.822400  1
  O  O342  1  0.424700  0.747100  0.822400  1
  O  O343  1  0.575300  0.822400  0.397700  1
  O  O344  1  0.924700  0.822400  0.747100  1
  O  O345  1  0.924700  0.602300  0.177600  1
  O  O346  1  0.575300  0.252900  0.177600  1
  O  O347  1  0.075300  0.177600  0.252900  1
  O  O348  1  0.424700  0.177600  0.602300  1
  O  O349  1  0.234690  0.619750  0.179500  1.0
  O  O350  1  0.265310  0.944810  0.885060  1.0
  O  O351  1  0.440250  0.885060  0.619750  1.0
  O  O352  1  0.059750  0.179500  0.944810  1.0
  O  O353  1  0.059750  0.380250  0.114940  1.0
  O  O354  1  0.440250  0.055190  0.820500  1.0
  O  O355  1  0.234690  0.114940  0.055190  1.0
  O  O356  1  0.265310  0.820500  0.380250  1.0
  O  O357  1  0.765310  0.380250  0.820500  1.0
  O  O358  1  0.734690  0.055190  0.114940  1.0
  O  O359  1  0.559750  0.114940  0.380250  1.0
  O  O360  1  0.940250  0.820500  0.055190  1.0
  O  O361  1  0.940250  0.619750  0.885060  1.0
  O  O362  1  0.559750  0.944810  0.179500  1.0
  O  O363  1  0.765310  0.885060  0.944810  1.0
  O  O364  1  0.734690  0.179500  0.619750  1.0
  O  O365  1  0.158630  0.530170  0.025200  1.0
  O  O366  1  0.341370  0.866570  0.871540  1.0
  O  O367  1  0.504970  0.871540  0.530170  1.0
  O  O368  1  0.995030  0.025200  0.866570  1.0
  O  O369  1  0.995030  0.469830  0.128460  1.0
  O  O370  1  0.504970  0.133430  0.974800  1.0
  O  O371  1  0.158630  0.128460  0.133430  1.0
  O  O372  1  0.341370  0.974800  0.469830  1.0
  O  O373  1  0.841370  0.469830  0.974800  1.0
  O  O374  1  0.658630  0.133430  0.128460  1.0
  O  O375  1  0.495030  0.128460  0.469830  1.0
  O  O376  1  0.004970  0.974800  0.133430  1.0
  O  O377  1  0.004970  0.530170  0.871540  1.0
  O  O378  1  0.495030  0.866570  0.025200  1.0
  O  O379  1  0.841370  0.871540  0.866570  1.0
  O  O380  1  0.658630  0.025200  0.530170  1.0
