# generated using pymatgen
data_CoC14(N2O9)2
_symmetry_space_group_name_H-M   'P 1'
_cell_length_a   17.41093639
_cell_length_b   17.41093639
_cell_length_c   17.41093639
_cell_angle_alpha   107.06893743
_cell_angle_beta   110.68555210
_cell_angle_gamma   110.68555210
_symmetry_Int_Tables_number   1
_chemical_formula_structural   CoC14(N2O9)2
_chemical_formula_sum   'Co8 C112 N32 O144'
_cell_volume   4057.64952299
_cell_formula_units_Z   8
loop_
 _symmetry_equiv_pos_site_id
 _symmetry_equiv_pos_as_xyz
  1  'x, y, z'
loop_
 _atom_site_type_symbol
 _atom_site_label
 _atom_site_symmetry_multiplicity
 _atom_site_fract_x
 _atom_site_fract_y
 _atom_site_fract_z
 _atom_site_occupancy
  C  C1  1  0.969300  0.763500  0.732800  1
  C  C2  1  0.530700  0.763500  0.294200  1
  C  C3  1  0.030700  0.294200  0.763500  1
  C  C4  1  0.469300  0.732800  0.763500  1
  C  C5  1  0.469300  0.236500  0.705800  1
  C  C6  1  0.030700  0.236500  0.267200  1
  C  C7  1  0.969300  0.705800  0.236500  1
  C  C8  1  0.530700  0.267200  0.236500  1
  C  C9  1  0.251200  0.865500  0.580100  1
  C  C10  1  0.248800  0.328900  0.114300  1
  C  C11  1  0.285400  0.114300  0.865500  1
  C  C12  1  0.214600  0.580100  0.328900  1
  C  C13  1  0.214600  0.134500  0.885700  1
  C  C14  1  0.285400  0.671100  0.419900  1
  C  C15  1  0.251200  0.885700  0.671100  1
  C  C16  1  0.248800  0.419900  0.134500  1
  C  C17  1  0.748800  0.134500  0.419900  1
  C  C18  1  0.751200  0.671100  0.885700  1
  C  C19  1  0.714600  0.885700  0.134500  1
  C  C20  1  0.785400  0.419900  0.671100  1
  C  C21  1  0.785400  0.865500  0.114300  1
  C  C22  1  0.714600  0.328900  0.580100  1
  C  C23  1  0.748800  0.114300  0.328900  1
  C  C24  1  0.751200  0.580100  0.865500  1
  C  C25  1  0.902000  0.658100  0.560100  1.0
  C  C26  1  0.598000  0.658100  0.256100  1.0
  C  C27  1  0.098000  0.256100  0.658100  1.0
  C  C28  1  0.402000  0.560100  0.658100  1.0
  C  C29  1  0.402000  0.341900  0.743900  1.0
  C  C30  1  0.098000  0.341900  0.439900  1.0
  C  C31  1  0.902000  0.743900  0.341900  1.0
  C  C32  1  0.598000  0.439900  0.341900  1.0
  C  C33  1  0.891800  0.729600  0.621400  1.0
  C  C34  1  0.608200  0.729600  0.337800  1.0
  C  C35  1  0.108200  0.337800  0.729600  1.0
  C  C36  1  0.391800  0.621400  0.729600  1.0
  C  C37  1  0.391800  0.270400  0.662200  1.0
  C  C38  1  0.108200  0.270400  0.378600  1.0
  C  C39  1  0.891800  0.662200  0.270400  1.0
  C  C40  1  0.608200  0.378600  0.270400  1.0
  C  C41  1  0.812400  0.746400  0.558800  1.0
  C  C42  1  0.687600  0.746400  0.434000  1.0
  C  C43  1  0.187600  0.434000  0.746400  1.0
  C  C44  1  0.312400  0.558800  0.746400  1.0
  C  C45  1  0.312400  0.253600  0.566000  1.0
  C  C46  1  0.187600  0.253600  0.441200  1.0
  C  C47  1  0.812400  0.566000  0.253600  1.0
  C  C48  1  0.687600  0.441200  0.253600  1.0
  C  C49  1  0.947310  0.592720  0.470950  1.0
  C  C50  1  0.552690  0.523640  0.145410  1.0
  C  C51  1  0.121770  0.145410  0.592720  1.0
  C  C52  1  0.378230  0.470950  0.523640  1.0
  C  C53  1  0.378230  0.407280  0.854590  1.0
  C  C54  1  0.121770  0.476360  0.529050  1.0
  C  C55  1  0.947310  0.854590  0.476360  1.0
  C  C56  1  0.552690  0.529050  0.407280  1.0
  C  C57  1  0.052690  0.407280  0.529050  1.0
  C  C58  1  0.447310  0.476360  0.854590  1.0
  C  C59  1  0.878230  0.854590  0.407280  1.0
  C  C60  1  0.621770  0.529050  0.476360  1.0
  C  C61  1  0.621770  0.592720  0.145410  1.0
  C  C62  1  0.878230  0.523640  0.470950  1.0
  C  C63  1  0.052690  0.145410  0.523640  1.0
  C  C64  1  0.447310  0.470950  0.592720  1.0
  C  C65  1  0.004410  0.597590  0.425640  1.0
  C  C66  1  0.495590  0.421230  0.093180  1.0
  C  C67  1  0.171950  0.093180  0.597590  1.0
  C  C68  1  0.328050  0.425640  0.421230  1.0
  C  C69  1  0.328050  0.402410  0.906820  1.0
  C  C70  1  0.171950  0.578770  0.574360  1.0
  C  C71  1  0.004410  0.906820  0.578770  1.0
  C  C72  1  0.495590  0.574360  0.402410  1.0
  C  C73  1  0.995590  0.402410  0.574360  1.0
  C  C74  1  0.504410  0.578770  0.906820  1.0
  C  C75  1  0.828050  0.906820  0.402410  1.0
  C  C76  1  0.671950  0.574360  0.578770  1.0
  C  C77  1  0.671950  0.597590  0.093180  1.0
  C  C78  1  0.828050  0.421230  0.425640  1.0
  C  C79  1  0.995590  0.093180  0.421230  1.0
  C  C80  1  0.504410  0.425640  0.597590  1.0
  C  C81  1  0.252500  0.911100  0.610400  1.0
  C  C82  1  0.247500  0.357900  0.158600  1.0
  C  C83  1  0.300700  0.158600  0.911100  1.0
  C  C84  1  0.199300  0.610400  0.357900  1.0
  C  C85  1  0.199300  0.088900  0.841400  1.0
  C  C86  1  0.300700  0.642100  0.389600  1.0
  C  C87  1  0.252500  0.841400  0.642100  1.0
  C  C88  1  0.247500  0.389600  0.088900  1.0
  C  C89  1  0.747500  0.088900  0.389600  1.0
  C  C90  1  0.752500  0.642100  0.841400  1.0
  C  C91  1  0.699300  0.841400  0.088900  1.0
  C  C92  1  0.800700  0.389600  0.642100  1.0
  C  C93  1  0.800700  0.911100  0.158600  1.0
  C  C94  1  0.699300  0.357900  0.610400  1.0
  C  C95  1  0.747500  0.158600  0.357900  1.0
  C  C96  1  0.752500  0.610400  0.911100  1.0
  C  C97  1  0.335100  0.958600  0.599100  1.0
  C  C98  1  0.164900  0.264000  0.123500  1.0
  C  C99  1  0.359500  0.123500  0.958600  1.0
  C  C100  1  0.140500  0.599100  0.264000  1.0
  C  C101  1  0.140500  0.041400  0.876500  1.0
  C  C102  1  0.359500  0.736000  0.400900  1.0
  C  C103  1  0.335100  0.876500  0.736000  1.0
  C  C104  1  0.164900  0.400900  0.041400  1.0
  C  C105  1  0.664900  0.041400  0.400900  1.0
  C  C106  1  0.835100  0.736000  0.876500  1.0
  C  C107  1  0.640500  0.876500  0.041400  1.0
  C  C108  1  0.859500  0.400900  0.736000  1.0
  C  C109  1  0.859500  0.958600  0.123500  1.0
  C  C110  1  0.640500  0.264000  0.599100  1.0
  C  C111  1  0.664900  0.123500  0.264000  1.0
  C  C112  1  0.835100  0.599100  0.958600  1.0
  Co  Co113  1  0.058060  0.779030  0.529030  1.0
  Co  Co114  1  0.441940  0.470970  0.220970  1.0
  Co  Co115  1  0.250000  0.220970  0.779030  1.0
  Co  Co116  1  0.250000  0.529030  0.470970  1.0
  Co  Co117  1  0.941940  0.220970  0.470970  1.0
  Co  Co118  1  0.558060  0.529030  0.779030  1.0
  Co  Co119  1  0.750000  0.779030  0.220970  1.0
  Co  Co120  1  0.750000  0.470970  0.529030  1.0
  N  N121  1  0.961650  0.676740  0.527050  1.0
  N  N122  1  0.538350  0.565400  0.215090  1.0
  N  N123  1  0.149690  0.215090  0.676740  1.0
  N  N124  1  0.350310  0.527050  0.565400  1.0
  N  N125  1  0.350310  0.323260  0.784910  1.0
  N  N126  1  0.149690  0.434600  0.472950  1.0
  N  N127  1  0.961650  0.784910  0.434600  1.0
  N  N128  1  0.538350  0.472950  0.323260  1.0
  N  N129  1  0.038350  0.323260  0.472950  1.0
  N  N130  1  0.461650  0.434600  0.784910  1.0
  N  N131  1  0.850310  0.784910  0.323260  1.0
  N  N132  1  0.649690  0.472950  0.434600  1.0
  N  N133  1  0.649690  0.676740  0.215090  1.0
  N  N134  1  0.850310  0.565400  0.527050  1.0
  N  N135  1  0.038350  0.215090  0.565400  1.0
  N  N136  1  0.461650  0.527050  0.676740  1.0
  N  N137  1  0.159490  0.866660  0.523610  1.0
  N  N138  1  0.340510  0.364120  0.207170  1.0
  N  N139  1  0.343050  0.207170  0.866660  1.0
  N  N140  1  0.156950  0.523610  0.364120  1.0
  N  N141  1  0.156950  0.133340  0.792830  1.0
  N  N142  1  0.343050  0.635880  0.476390  1.0
  N  N143  1  0.159490  0.792830  0.635880  1.0
  N  N144  1  0.340510  0.476390  0.133340  1.0
  N  N145  1  0.840510  0.133340  0.476390  1.0
  N  N146  1  0.659490  0.635880  0.792830  1.0
  N  N147  1  0.656950  0.792830  0.133340  1.0
  N  N148  1  0.843050  0.476390  0.635880  1.0
  N  N149  1  0.843050  0.866660  0.207170  1.0
  N  N150  1  0.656950  0.364120  0.523610  1.0
  N  N151  1  0.840510  0.207170  0.364120  1.0
  N  N152  1  0.659490  0.523610  0.866660  1.0
  O  O153  1  0.197400  0.838500  0.353700  1
  O  O154  1  0.302600  0.156300  0.141100  1
  O  O155  1  0.484800  0.141100  0.838500  1
  O  O156  1  0.015200  0.353700  0.156300  1
  O  O157  1  0.015200  0.161500  0.858900  1
  O  O158  1  0.484800  0.843700  0.646300  1
  O  O159  1  0.197400  0.858900  0.843700  1
  O  O160  1  0.302600  0.646300  0.161500  1
  O  O161  1  0.802600  0.161500  0.646300  1
  O  O162  1  0.697400  0.843700  0.858900  1
  O  O163  1  0.515200  0.858900  0.161500  1
  O  O164  1  0.984800  0.646300  0.843700  1
  O  O165  1  0.984800  0.838500  0.141100  1
  O  O166  1  0.515200  0.156300  0.353700  1
  O  O167  1  0.802600  0.141100  0.156300  1
  O  O168  1  0.697400  0.353700  0.838500  1
  O  O169  1  0.238000  0.863300  0.377300  1
  O  O170  1  0.262000  0.139300  0.125300  1
  O  O171  1  0.486000  0.125300  0.863300  1
  O  O172  1  0.014000  0.377300  0.139300  1
  O  O173  1  0.014000  0.136700  0.874700  1
  O  O174  1  0.486000  0.860700  0.622700  1
  O  O175  1  0.238000  0.874700  0.860700  1
  O  O176  1  0.262000  0.622700  0.136700  1
  O  O177  1  0.762000  0.136700  0.622700  1
  O  O178  1  0.738000  0.860700  0.874700  1
  O  O179  1  0.514000  0.874700  0.136700  1
  O  O180  1  0.986000  0.622700  0.860700  1
  O  O181  1  0.986000  0.863300  0.125300  1
  O  O182  1  0.514000  0.139300  0.377300  1
  O  O183  1  0.762000  0.125300  0.139300  1
  O  O184  1  0.738000  0.377300  0.863300  1
  O  O185  1  0.920200  0.330400  0.250600  1
  O  O186  1  0.579800  0.330400  0.910200  1
  O  O187  1  0.079800  0.910200  0.330400  1
  O  O188  1  0.420200  0.250600  0.330400  1
  O  O189  1  0.420200  0.669600  0.089800  1
  O  O190  1  0.079800  0.669600  0.749400  1
  O  O191  1  0.920200  0.089800  0.669600  1
  O  O192  1  0.579800  0.749400  0.669600  1
  O  O193  1  0.674400  0.222900  0.177700  1
  O  O194  1  0.825600  0.503300  0.048500  1
  O  O195  1  0.045200  0.048500  0.222900  1
  O  O196  1  0.454800  0.177700  0.503300  1
  O  O197  1  0.454800  0.777100  0.951500  1
  O  O198  1  0.045200  0.496700  0.822300  1
  O  O199  1  0.674400  0.951500  0.496700  1
  O  O200  1  0.825600  0.822300  0.777100  1
  O  O201  1  0.325600  0.777100  0.822300  1
  O  O202  1  0.174400  0.496700  0.951500  1
  O  O203  1  0.954800  0.951500  0.777100  1
  O  O204  1  0.545200  0.822300  0.496700  1
  O  O205  1  0.545200  0.222900  0.048500  1
  O  O206  1  0.954800  0.503300  0.177700  1
  O  O207  1  0.325600  0.048500  0.503300  1
  O  O208  1  0.174400  0.177700  0.222900  1
  O  O209  1  0.823500  0.335400  0.199900  1
  O  O210  1  0.676500  0.376400  0.011900  1
  O  O211  1  0.135500  0.011900  0.335400  1
  O  O212  1  0.364500  0.199900  0.376400  1
  O  O213  1  0.364500  0.664600  0.988100  1
  O  O214  1  0.135500  0.623600  0.800100  1
  O  O215  1  0.823500  0.988100  0.623600  1
  O  O216  1  0.676500  0.800100  0.664600  1
  O  O217  1  0.176500  0.664600  0.800100  1
  O  O218  1  0.323500  0.623600  0.988100  1
  O  O219  1  0.864500  0.988100  0.664600  1
  O  O220  1  0.635500  0.800100  0.623600  1
  O  O221  1  0.635500  0.335400  0.011900  1
  O  O222  1  0.864500  0.376400  0.199900  1
  O  O223  1  0.176500  0.011900  0.376400  1
  O  O224  1  0.323500  0.199900  0.335400  1
  O  O225  1  0.738600  0.272100  0.171900  1
  O  O226  1  0.761400  0.433300  0.033500  1
  O  O227  1  0.100200  0.033500  0.272100  1
  O  O228  1  0.399800  0.171900  0.433300  1
  O  O229  1  0.399800  0.727900  0.966500  1
  O  O230  1  0.100200  0.566700  0.828100  1
  O  O231  1  0.738600  0.966500  0.566700  1
  O  O232  1  0.761400  0.828100  0.727900  1
  O  O233  1  0.261400  0.727900  0.828100  1
  O  O234  1  0.238600  0.566700  0.966500  1
  O  O235  1  0.899800  0.966500  0.727900  1
  O  O236  1  0.600200  0.828100  0.566700  1
  O  O237  1  0.600200  0.272100  0.033500  1
  O  O238  1  0.899800  0.433300  0.171900  1
  O  O239  1  0.261400  0.033500  0.433300  1
  O  O240  1  0.238600  0.171900  0.272100  1
  O  O241  1  0.864100  0.325400  0.219500  1
  O  O242  1  0.635900  0.355400  0.961300  1
  O  O243  1  0.105900  0.961300  0.325400  1
  O  O244  1  0.394100  0.219500  0.355400  1
  O  O245  1  0.394100  0.674600  0.038700  1
  O  O246  1  0.105900  0.644600  0.780500  1
  O  O247  1  0.864100  0.038700  0.644600  1
  O  O248  1  0.635900  0.780500  0.674600  1
  O  O249  1  0.135900  0.674600  0.780500  1
  O  O250  1  0.364100  0.644600  0.038700  1
  O  O251  1  0.894100  0.038700  0.674600  1
  O  O252  1  0.605900  0.780500  0.644600  1
  O  O253  1  0.605900  0.325400  0.961300  1
  O  O254  1  0.894100  0.355400  0.219500  1
  O  O255  1  0.135900  0.961300  0.355400  1
  O  O256  1  0.364100  0.219500  0.325400  1
  O  O257  1  0.120000  0.777000  0.157000  1
  O  O258  1  0.380000  0.037000  0.157000  1
  O  O259  1  0.620000  0.157000  0.777000  1
  O  O260  1  0.880000  0.157000  0.037000  1
  O  O261  1  0.880000  0.223000  0.843000  1
  O  O262  1  0.620000  0.963000  0.843000  1
  O  O263  1  0.120000  0.843000  0.963000  1
  O  O264  1  0.380000  0.843000  0.223000  1
  O  O265  1  0.062000  0.682340  0.447360  1.0
  O  O266  1  0.438000  0.385360  0.120340  1.0
  O  O267  1  0.234980  0.120340  0.682340  1.0
  O  O268  1  0.265020  0.447360  0.385360  1.0
  O  O269  1  0.265020  0.317660  0.879660  1.0
  O  O270  1  0.234980  0.614640  0.552640  1.0
  O  O271  1  0.062000  0.879660  0.614640  1.0
  O  O272  1  0.438000  0.552640  0.317660  1.0
  O  O273  1  0.938000  0.317660  0.552640  1.0
  O  O274  1  0.562000  0.614640  0.879660  1.0
  O  O275  1  0.765020  0.879660  0.317660  1.0
  O  O276  1  0.734980  0.552640  0.614640  1.0
  O  O277  1  0.734980  0.682340  0.120340  1.0
  O  O278  1  0.765020  0.385360  0.447360  1.0
  O  O279  1  0.938000  0.120340  0.385360  1.0
  O  O280  1  0.562000  0.447360  0.682340  1.0
  O  O281  1  0.997380  0.528500  0.371140  1.0
  O  O282  1  0.502620  0.373760  0.031120  1.0
  O  O283  1  0.157360  0.031120  0.528500  1.0
  O  O284  1  0.342640  0.371140  0.373760  1.0
  O  O285  1  0.342640  0.471500  0.968880  1.0
  O  O286  1  0.157360  0.626240  0.628860  1.0
  O  O287  1  0.997380  0.968880  0.626240  1.0
  O  O288  1  0.502620  0.628860  0.471500  1.0
  O  O289  1  0.002620  0.471500  0.628860  1.0
  O  O290  1  0.497380  0.626240  0.968880  1.0
  O  O291  1  0.842640  0.968880  0.471500  1.0
  O  O292  1  0.657360  0.628860  0.626240  1.0
  O  O293  1  0.657360  0.528500  0.031120  1.0
  O  O294  1  0.842640  0.373760  0.371140  1.0
  O  O295  1  0.002620  0.031120  0.373760  1.0
  O  O296  1  0.497380  0.371140  0.528500  1.0
