# generated using pymatgen
data_Cd2CoH94C129S7N15O21F25
_symmetry_space_group_name_H-M   'P 1'
_cell_length_a   11.86270000
_cell_length_b   21.31980000
_cell_length_c   22.34700000
_cell_angle_alpha   111.38300000
_cell_angle_beta   102.12600000
_cell_angle_gamma   100.70900000
_symmetry_Int_Tables_number   1
_chemical_formula_structural   Cd2CoH94C129S7N15O21F25
_chemical_formula_sum   'Cd4 Co2 H188 C258 S14 N30 O42 F50'
_cell_volume   4926.94408797
_cell_formula_units_Z   2
loop_
 _symmetry_equiv_pos_site_id
 _symmetry_equiv_pos_as_xyz
  1  'x, y, z'
loop_
 _atom_site_type_symbol
 _atom_site_label
 _atom_site_symmetry_multiplicity
 _atom_site_fract_x
 _atom_site_fract_y
 _atom_site_fract_z
 _atom_site_occupancy
  Cd  Cd1  1  0.415820  0.199860  0.277490  1.0
  Cd  Cd2  1  0.584180  0.800140  0.722510  1.0
  Cd  Cd3  1  0.218900  0.809470  0.115690  1.0
  Cd  Cd4  1  0.781100  0.190530  0.884310  1.0
  Co  Co5  1  0.177290  0.002880  0.378520  1.0
  Co  Co6  1  0.822710  0.997120  0.621480  1.0
  H  H7  1  0.355500  0.431700  0.286000  1
  H  H8  1  0.644500  0.568300  0.714000  1
  H  H9  1  0.459700  0.439400  0.390900  1
  H  H10  1  0.540300  0.560600  0.609100  1
  H  H11  1  0.363400  0.449900  0.473900  1
  H  H12  1  0.636600  0.550100  0.526100  1
  H  H13  1  0.163100  0.452600  0.452000  1
  H  H14  1  0.836900  0.547400  0.548000  1
  H  H15  1  0.058900  0.444900  0.347100  1
  H  H16  1  0.941100  0.555100  0.652900  1
  H  H17  1  0.155200  0.434500  0.264100  1
  H  H18  1  0.844800  0.565500  0.735900  1
  H  H19  1  0.692700  0.538600  0.112100  1
  H  H20  1  0.307300  0.461400  0.887900  1
  H  H21  1  0.641700  0.546500  0.043800  1
  H  H22  1  0.358300  0.453500  0.956200  1
  H  H23  1  0.724900  0.495700  0.045700  1
  H  H24  1  0.275100  0.504300  0.954300  1
  H  H25  1  0.826500  0.019900  0.023200  1
  H  H26  1  0.173500  0.980100  0.976800  1
  H  H27  1  0.724800  0.972600  0.952300  1
  H  H28  1  0.275200  0.027400  0.047700  1
  H  H29  1  0.844900  0.024200  0.955700  1
  H  H30  1  0.155100  0.975800  0.044300  1
  H  H31  1  0.707500  0.869700  0.205600  1
  H  H32  1  0.292500  0.130300  0.794400  1
  H  H33  1  0.886300  0.950800  0.281900  1
  H  H34  1  0.113700  0.049200  0.718100  1
  H  H35  1  0.756200  0.742000  0.304200  1
  H  H36  1  0.243800  0.258000  0.695800  1
  H  H37  1  0.939700  0.830000  0.375800  1
  H  H38  1  0.060300  0.170000  0.624200  1
  H  H39  1  0.839700  0.033500  0.388400  1
  H  H40  1  0.160300  0.966500  0.611600  1
  H  H41  1  0.765800  0.124200  0.375600  1
  H  H42  1  0.234200  0.875800  0.624400  1
  H  H43  1  0.094000  0.258500  0.457700  1
  H  H44  1  0.906000  0.741500  0.542300  1
  H  H45  1  0.177700  0.165200  0.445500  1
  H  H46  1  0.822300  0.834800  0.554500  1
  H  H47  1  0.574700  0.385400  0.193300  1
  H  H48  1  0.425300  0.614600  0.806700  1
  H  H49  1  0.423000  0.341000  0.088100  1
  H  H50  1  0.577000  0.659000  0.911900  1
  H  H51  1  0.232300  0.276500  0.084300  1
  H  H52  1  0.767700  0.723500  0.915700  1
  H  H53  1  0.242100  0.198300  0.136400  1
  H  H54  1  0.757900  0.801700  0.863600  1
  H  H55  1  0.467500  0.129700  0.681900  1
  H  H56  1  0.532500  0.870300  0.318100  1
  H  H57  1  0.316100  0.041600  0.586900  1
  H  H58  1  0.683900  0.958400  0.413100  1
  H  H59  1  0.300000  0.173400  0.500500  1
  H  H60  1  0.700000  0.826600  0.499500  1
  H  H61  1  0.467600  0.258400  0.584300  1
  H  H62  1  0.532400  0.741600  0.415700  1
  H  H63  1  0.019800  0.839900  0.431100  1
  H  H64  1  0.980200  0.160100  0.568900  1
  H  H65  1  0.107300  0.755800  0.449300  1
  H  H66  1  0.892700  0.244200  0.550700  1
  H  H67  1  0.439100  0.880500  0.505900  1
  H  H68  1  0.560900  0.119500  0.494100  1
  H  H69  1  0.365700  0.969900  0.490200  1
  H  H70  1  0.634300  0.030100  0.509800  1
  H  H71  1  0.336300  0.116100  0.378900  1
  H  H72  1  0.663700  0.883900  0.621100  1
  H  H73  1  0.135200  0.061200  0.286900  1
  H  H74  1  0.864800  0.938800  0.713100  1
  H  H75  1  0.088700  0.928600  0.243400  1
  H  H76  1  0.911300  0.071400  0.756600  1
  H  H77  1  0.261000  0.901500  0.308600  1
  H  H78  1  0.739000  0.098500  0.691400  1
  H  H79  1  0.414000  0.017400  0.392300  1
  H  H80  1  0.586000  0.982600  0.607700  1
  H  H81  1  0.052000  0.814000  0.977300  1.0
  H  H82  1  0.948000  0.186000  0.022700  1.0
  H  H83  1  0.995400  0.758100  0.860700  1.0
  H  H84  1  0.004600  0.241900  0.139300  1.0
  H  H85  1  0.063800  0.661200  0.810500  1.0
  H  H86  1  0.936200  0.338800  0.189500  1.0
  H  H87  1  0.216400  0.638600  0.878200  1.0
  H  H88  1  0.783600  0.361400  0.121800  1.0
  H  H89  1  0.322700  0.651800  0.996200  1.0
  H  H90  1  0.677300  0.348200  0.003800  1.0
  H  H91  1  0.331000  0.604800  0.078000  1.0
  H  H92  1  0.669000  0.395200  0.922000  1.0
  H  H93  1  0.479200  0.575600  0.141100  1.0
  H  H94  1  0.520800  0.424400  0.858900  1.0
  H  H95  1  0.654200  0.663000  0.218400  1.0
  H  H96  1  0.345800  0.337000  0.781600  1.0
  H  H97  1  0.532800  0.808900  0.169600  1.0
  H  H98  1  0.467200  0.191100  0.830400  1.0
  H  H99  1  0.638300  0.879900  0.275800  1.0
  H  H100  1  0.361700  0.120100  0.724200  1.0
  H  H101  1  0.808600  0.968900  0.356200  1.0
  H  H102  1  0.191400  0.031100  0.643800  1.0
  H  H103  1  0.008100  0.831900  0.322200  1.0
  H  H104  1  0.991900  0.168100  0.677800  1.0
  H  H105  1  0.837800  0.742800  0.241800  1.0
  H  H106  1  0.162200  0.257200  0.758200  1.0
  H  H107  1  0.911200  0.045100  0.328100  1.0
  H  H108  1  0.088800  0.954900  0.671900  1.0
  H  H109  1  0.831200  0.136000  0.322600  1.0
  H  H110  1  0.168800  0.864000  0.677400  1.0
  H  H111  1  0.022300  0.259000  0.518500  1.0
  H  H112  1  0.977700  0.741000  0.481500  1.0
  H  H113  1  0.102300  0.168200  0.523900  1.0
  H  H114  1  0.897700  0.831800  0.476100  1.0
  H  H115  1  0.999500  0.343200  0.494500  1.0
  H  H116  1  0.000500  0.656800  0.505500  1.0
  H  H117  1  0.922000  0.434800  0.489000  1.0
  H  H118  1  0.078000  0.565200  0.511000  1.0
  H  H119  1  0.742300  0.410300  0.405900  1.0
  H  H120  1  0.257700  0.589700  0.594100  1.0
  H  H121  1  0.717800  0.202500  0.334000  1.0
  H  H122  1  0.282200  0.797500  0.666000  1.0
  H  H123  1  0.669700  0.359900  0.284000  1.0
  H  H124  1  0.330300  0.640100  0.716000  1.0
  H  H125  1  0.556300  0.397400  0.202500  1.0
  H  H126  1  0.443700  0.602600  0.797500  1.0
  H  H127  1  0.378900  0.374700  0.118400  1.0
  H  H128  1  0.621100  0.625300  0.881600  1.0
  H  H129  1  0.210800  0.282900  0.096400  1.0
  H  H130  1  0.789200  0.717100  0.903600  1.0
  H  H131  1  0.222200  0.217300  0.160200  1.0
  H  H132  1  0.777800  0.782700  0.839800  1.0
  H  H133  1  0.013600  0.131700  0.935200  1.0
  H  H134  1  0.986400  0.868300  0.064800  1.0
  H  H135  1  0.220600  0.156300  0.954400  1.0
  H  H136  1  0.779400  0.843700  0.045600  1.0
  H  H137  1  0.318900  0.251000  0.936800  1.0
  H  H138  1  0.681100  0.749000  0.063200  1.0
  H  H139  1  0.204100  0.301900  0.879700  1.0
  H  H140  1  0.795900  0.698100  0.120300  1.0
  H  H141  1  0.998700  0.301800  0.818500  1.0
  H  H142  1  0.001300  0.698200  0.181500  1.0
  H  H143  1  0.873900  0.379600  0.823000  1.0
  H  H144  1  0.126100  0.620400  0.177000  1.0
  H  H145  1  0.748500  0.415300  0.754100  1.0
  H  H146  1  0.251500  0.584700  0.245900  1.0
  H  H147  1  0.572300  0.334100  0.671500  1.0
  H  H148  1  0.427700  0.665900  0.328500  1.0
  H  H149  1  0.646800  0.181600  0.726800  1.0
  H  H150  1  0.353200  0.818400  0.273200  1.0
  H  H151  1  0.572100  0.120900  0.600800  1.0
  H  H152  1  0.427900  0.879100  0.399200  1.0
  H  H153  1  0.404700  0.036200  0.513700  1.0
  H  H154  1  0.595300  0.963800  0.486300  1.0
  H  H155  1  0.200600  0.168600  0.562900  1.0
  H  H156  1  0.799400  0.831400  0.437100  1.0
  H  H157  1  0.368000  0.253200  0.650000  1.0
  H  H158  1  0.632000  0.746800  0.350000  1.0
  H  H159  1  0.133200  0.836100  0.355000  1.0
  H  H160  1  0.866800  0.163900  0.645000  1.0
  H  H161  1  0.212200  0.748900  0.371400  1.0
  H  H162  1  0.787800  0.251100  0.628600  1.0
  H  H163  1  0.341500  0.871300  0.572500  1.0
  H  H164  1  0.658500  0.128700  0.427500  1.0
  H  H165  1  0.262400  0.958600  0.556100  1.0
  H  H166  1  0.737600  0.041400  0.443900  1.0
  H  H167  1  0.223600  0.663200  0.399600  1.0
  H  H168  1  0.776400  0.336800  0.600400  1.0
  H  H169  1  0.313900  0.579000  0.414100  1.0
  H  H170  1  0.686100  0.421000  0.585900  1.0
  H  H171  1  0.481000  0.612200  0.508000  1.0
  H  H172  1  0.519000  0.387800  0.492000  1.0
  H  H173  1  0.467300  0.813800  0.572700  1.0
  H  H174  1  0.532700  0.186200  0.427300  1.0
  H  H175  1  0.683000  0.686600  0.562800  1.0
  H  H176  1  0.317000  0.313400  0.437200  1.0
  H  H177  1  0.890800  0.692800  0.617900  1.0
  H  H178  1  0.109200  0.307200  0.382100  1.0
  H  H179  1  0.066400  0.752600  0.709900  1.0
  H  H180  1  0.933600  0.247400  0.290100  1.0
  H  H181  1  0.057500  0.836500  0.810200  1.0
  H  H182  1  0.942500  0.163500  0.189800  1.0
  H  H183  1  0.878500  0.866500  0.813300  1.0
  H  H184  1  0.121500  0.133500  0.186700  1.0
  H  H185  1  0.149900  0.896600  0.251800  1.0
  H  H186  1  0.850100  0.103400  0.748200  1.0
  H  H187  1  0.090800  0.005000  0.251800  1.0
  H  H188  1  0.909200  0.995000  0.748200  1.0
  H  H189  1  0.250400  0.112300  0.345600  1.0
  H  H190  1  0.749600  0.887700  0.654400  1.0
  H  H191  1  0.408100  0.070200  0.403500  1.0
  H  H192  1  0.591900  0.929800  0.596500  1.0
  H  H193  1  0.346000  0.936900  0.345500  1.0
  H  H194  1  0.654000  0.063100  0.654500  1.0
  C  C195  1  0.945900  0.556300  0.256400  1
  C  C196  1  0.054100  0.443700  0.743600  1
  C  C197  1  0.682000  0.623900  0.373300  1
  C  C198  1  0.318000  0.376100  0.626700  1
  C  C199  1  0.316500  0.436000  0.319700  1
  C  C200  1  0.683500  0.564000  0.680300  1
  C  C201  1  0.378300  0.440500  0.382000  1
  C  C202  1  0.621700  0.559500  0.618000  1
  C  C203  1  0.321100  0.446700  0.431300  1
  C  C204  1  0.678900  0.553300  0.568700  1
  C  C205  1  0.202100  0.448400  0.418300  1
  C  C206  1  0.797900  0.551600  0.581700  1
  C  C207  1  0.140300  0.443800  0.356000  1
  C  C208  1  0.859700  0.556200  0.644000  1
  C  C209  1  0.197400  0.437600  0.306700  1
  C  C210  1  0.802600  0.562400  0.693300  1
  C  C211  1  0.554000  0.456000  0.045000  1
  C  C212  1  0.446000  0.544000  0.955000  1
  C  C213  1  0.663000  0.514000  0.063000  1
  C  C214  1  0.337000  0.486000  0.937000  1
  C  C215  1  0.869000  0.935000  0.963000  1
  C  C216  1  0.131000  0.065000  0.037000  1
  C  C217  1  0.812000  0.993000  0.975000  1
  C  C218  1  0.188000  0.007000  0.025000  1
  C  C219  1  0.753000  0.862300  0.241600  1
  C  C220  1  0.247000  0.137700  0.758400  1
  C  C221  1  0.857000  0.910700  0.289400  1
  C  C222  1  0.143000  0.089300  0.710600  1
  C  C223  1  0.782000  0.785000  0.300600  1
  C  C224  1  0.218000  0.215000  0.699400  1
  C  C225  1  0.887000  0.839900  0.344300  1
  C  C226  1  0.113000  0.160100  0.655700  1
  C  C227  1  0.890800  0.079100  0.401200  1
  C  C228  1  0.109200  0.920900  0.598800  1
  C  C229  1  0.850000  0.134900  0.396600  1
  C  C230  1  0.150000  0.865100  0.603400  1
  C  C231  1  0.040700  0.212500  0.440500  1
  C  C232  1  0.959300  0.787500  0.559500  1
  C  C233  1  0.094000  0.159300  0.438800  1
  C  C234  1  0.906000  0.840700  0.561200  1
  C  C235  1  0.501000  0.306000  0.217000  1
  C  C236  1  0.499000  0.694000  0.783000  1
  C  C237  1  0.508000  0.345000  0.179000  1
  C  C238  1  0.492000  0.655000  0.821000  1
  C  C239  1  0.414000  0.325000  0.122000  1
  C  C240  1  0.586000  0.675000  0.878000  1
  C  C241  1  0.306000  0.279000  0.114000  1
  C  C242  1  0.694000  0.721000  0.886000  1
  C  C243  1  0.309000  0.238000  0.150000  1
  C  C244  1  0.691000  0.762000  0.850000  1
  C  C245  1  0.439000  0.135900  0.642000  1
  C  C246  1  0.561000  0.864100  0.358000  1
  C  C247  1  0.344000  0.086000  0.586300  1
  C  C248  1  0.656000  0.914000  0.413700  1
  C  C249  1  0.338000  0.162200  0.535400  1
  C  C250  1  0.662000  0.837800  0.464600  1
  C  C251  1  0.437000  0.214100  0.584600  1
  C  C252  1  0.563000  0.785900  0.415400  1
  C  C253  1  0.104000  0.846600  0.443800  1
  C  C254  1  0.896000  0.153400  0.556200  1
  C  C255  1  0.160700  0.798200  0.455000  1
  C  C256  1  0.839300  0.201800  0.545000  1
  C  C257  1  0.355000  0.870600  0.488200  1
  C  C258  1  0.645000  0.129400  0.511800  1
  C  C259  1  0.314300  0.925000  0.479700  1
  C  C260  1  0.685700  0.075000  0.520300  1
  C  C261  1  0.297000  0.067200  0.354000  1
  C  C262  1  0.703000  0.932800  0.646000  1
  C  C263  1  0.184000  0.036000  0.302000  1
  C  C264  1  0.816000  0.964000  0.698000  1
  C  C265  1  0.158000  0.962000  0.278000  1
  C  C266  1  0.842000  0.038000  0.722000  1
  C  C267  1  0.255000  0.947000  0.314000  1
  C  C268  1  0.745000  0.053000  0.686000  1
  C  C269  1  0.340500  0.012000  0.361400  1
  C  C270  1  0.659500  0.988000  0.638600  1
  C  C271  1  0.668000  0.605300  0.422900  1
  C  C272  1  0.332000  0.394700  0.577100  1
  C  C273  1  0.945000  0.561900  0.257800  1
  C  C274  1  0.055000  0.438100  0.742200  1
  C  C275  1  0.718000  0.998000  0.172700  1
  C  C276  1  0.282000  0.002000  0.827300  1
  C  C277  1  0.606000  0.163000  0.059000  1
  C  C278  1  0.394000  0.837000  0.941000  1
  C  C279  1  0.886900  0.556900  0.936400  1
  C  C280  1  0.113100  0.443100  0.063600  1
  C  C281  1  0.083800  0.776700  0.956900  1.0
  C  C282  1  0.916200  0.223300  0.043100  1.0
  C  C283  1  0.048400  0.743400  0.887400  1.0
  C  C284  1  0.951600  0.256600  0.112600  1.0
  C  C285  1  0.092000  0.688300  0.857900  1.0
  C  C286  1  0.908000  0.311700  0.142100  1.0
  C  C287  1  0.178200  0.672700  0.898000  1.0
  C  C288  1  0.821800  0.327300  0.102000  1.0
  C  C289  1  0.207800  0.707800  0.967800  1.0
  C  C290  1  0.792200  0.292200  0.032200  1.0
  C  C291  1  0.294600  0.691300  0.014900  1.0
  C  C292  1  0.705400  0.308700  0.985100  1.0
  C  C293  1  0.417900  0.709600  0.117900  1.0
  C  C294  1  0.582100  0.290400  0.882100  1.0
  C  C295  1  0.402000  0.640300  0.109400  1.0
  C  C296  1  0.598000  0.359700  0.890600  1.0
  C  C297  1  0.490100  0.622900  0.146900  1.0
  C  C298  1  0.509900  0.377100  0.853100  1.0
  C  C299  1  0.594100  0.674800  0.192800  1.0
  C  C300  1  0.405900  0.325200  0.807200  1.0
  C  C301  1  0.610000  0.744100  0.201300  1.0
  C  C302  1  0.390000  0.255900  0.798700  1.0
  C  C303  1  0.521900  0.761500  0.163800  1.0
  C  C304  1  0.478100  0.238500  0.836200  1.0
  C  C305  1  0.722000  0.803000  0.251200  1.0
  C  C306  1  0.278000  0.197000  0.748800  1.0
  C  C307  1  0.713400  0.870100  0.285200  1.0
  C  C308  1  0.286600  0.129900  0.714800  1.0
  C  C309  1  0.814500  0.923000  0.332900  1.0
  C  C310  1  0.185500  0.077000  0.667100  1.0
  C  C311  1  0.924400  0.908800  0.346700  1.0
  C  C312  1  0.075600  0.091200  0.653300  1.0
  C  C313  1  0.933100  0.841600  0.312700  1.0
  C  C314  1  0.066900  0.158400  0.687300  1.0
  C  C315  1  0.831900  0.788700  0.265000  1.0
  C  C316  1  0.168100  0.211300  0.735000  1.0
  C  C317  1  0.027000  0.965500  0.401300  1.0
  C  C318  1  0.973000  0.034500  0.598700  1.0
  C  C319  1  0.076300  0.044500  0.430100  1.0
  C  C320  1  0.923700  0.955500  0.569900  1.0
  C  C321  1  0.014300  0.098100  0.426500  1.0
  C  C322  1  0.985700  0.901900  0.573500  1.0
  C  C323  1  0.934000  0.088500  0.366700  1.0
  C  C324  1  0.066000  0.911500  0.633300  1.0
  C  C325  1  0.886000  0.142500  0.363500  1.0
  C  C326  1  0.114000  0.857500  0.636500  1.0
  C  C327  1  0.919200  0.206100  0.420000  1.0
  C  C328  1  0.080800  0.793900  0.580000  1.0
  C  C329  1  0.000000  0.215600  0.479800  1.0
  C  C330  1  0.000000  0.784400  0.520200  1.0
  C  C331  1  0.047000  0.161600  0.483100  1.0
  C  C332  1  0.953000  0.838400  0.516900  1.0
  C  C333  1  0.865900  0.264200  0.414800  1.0
  C  C334  1  0.134100  0.735800  0.585200  1.0
  C  C335  1  0.926600  0.333200  0.460800  1.0
  C  C336  1  0.073400  0.666800  0.539200  1.0
  C  C337  1  0.880500  0.387700  0.457500  1.0
  C  C338  1  0.119500  0.612300  0.542500  1.0
  C  C339  1  0.773800  0.373100  0.408200  1.0
  C  C340  1  0.226200  0.626900  0.591800  1.0
  C  C341  1  0.713100  0.304100  0.362200  1.0
  C  C342  1  0.286900  0.695900  0.637800  1.0
  C  C343  1  0.759200  0.249700  0.365500  1.0
  C  C344  1  0.240800  0.750300  0.634500  1.0
  C  C345  1  0.599000  0.324200  0.275200  1.0
  C  C346  1  0.401000  0.675800  0.724800  1.0
  C  C347  1  0.490000  0.317000  0.225800  1.0
  C  C348  1  0.510000  0.683000  0.774200  1.0
  C  C349  1  0.487000  0.359900  0.192200  1.0
  C  C350  1  0.513000  0.640100  0.807800  1.0
  C  C351  1  0.383000  0.346900  0.143300  1.0
  C  C352  1  0.617000  0.653100  0.856700  1.0
  C  C353  1  0.283000  0.293100  0.130700  1.0
  C  C354  1  0.717000  0.706900  0.869300  1.0
  C  C355  1  0.291000  0.254300  0.169000  1.0
  C  C356  1  0.709000  0.745700  0.831000  1.0
  C  C357  1  0.052500  0.165200  0.922000  1.0
  C  C358  1  0.947500  0.834800  0.078000  1.0
  C  C359  1  0.176400  0.181500  0.936300  1.0
  C  C360  1  0.823600  0.818500  0.063700  1.0
  C  C361  1  0.233500  0.235300  0.923500  1.0
  C  C362  1  0.766500  0.764700  0.076500  1.0
  C  C363  1  0.166000  0.266500  0.891200  1.0
  C  C364  1  0.834000  0.733500  0.108800  1.0
  C  C365  1  0.041300  0.245200  0.875700  1.0
  C  C366  1  0.958700  0.754800  0.124300  1.0
  C  C367  1  0.963000  0.270700  0.835300  1.0
  C  C368  1  0.037000  0.729300  0.164700  1.0
  C  C369  1  0.772100  0.277200  0.781300  1.0
  C  C370  1  0.227900  0.722800  0.218700  1.0
  C  C371  1  0.802300  0.346600  0.789400  1.0
  C  C372  1  0.197700  0.653400  0.210600  1.0
  C  C373  1  0.727900  0.367800  0.748500  1.0
  C  C374  1  0.272100  0.632200  0.251500  1.0
  C  C375  1  0.623200  0.319600  0.699500  1.0
  C  C376  1  0.376800  0.680400  0.300500  1.0
  C  C377  1  0.592900  0.250200  0.691400  1.0
  C  C378  1  0.407100  0.749800  0.308600  1.0
  C  C379  1  0.667400  0.229000  0.732300  1.0
  C  C380  1  0.332600  0.771000  0.267700  1.0
  C  C381  1  0.485800  0.195000  0.633600  1.0
  C  C382  1  0.514200  0.805000  0.366400  1.0
  C  C383  1  0.496700  0.130600  0.593100  1.0
  C  C384  1  0.503300  0.869400  0.406900  1.0
  C  C385  1  0.397300  0.080300  0.541300  1.0
  C  C386  1  0.602700  0.919700  0.458700  1.0
  C  C387  1  0.286900  0.094400  0.530100  1.0
  C  C388  1  0.713100  0.905600  0.469900  1.0
  C  C389  1  0.276000  0.158900  0.570600  1.0
  C  C390  1  0.724000  0.841100  0.429400  1.0
  C  C391  1  0.375400  0.209200  0.622300  1.0
  C  C392  1  0.624600  0.790800  0.377700  1.0
  C  C393  1  0.181100  0.041200  0.472500  1.0
  C  C394  1  0.818900  0.958800  0.527500  1.0
  C  C395  1  0.142600  0.963800  0.446100  1.0
  C  C396  1  0.857400  0.036200  0.553900  1.0
  C  C397  1  0.190400  0.905600  0.454000  1.0
  C  C398  1  0.809600  0.094400  0.546000  1.0
  C  C399  1  0.175500  0.843300  0.399100  1.0
  C  C400  1  0.824500  0.156700  0.600900  1.0
  C  C401  1  0.222400  0.791400  0.408900  1.0
  C  C402  1  0.777600  0.208600  0.591100  1.0
  C  C403  1  0.284300  0.801900  0.473500  1.0
  C  C404  1  0.715700  0.198100  0.526500  1.0
  C  C405  1  0.299200  0.864200  0.528300  1.0
  C  C406  1  0.700800  0.135800  0.471700  1.0
  C  C407  1  0.252200  0.916000  0.518600  1.0
  C  C408  1  0.747800  0.084000  0.481400  1.0
  C  C409  1  0.337000  0.746400  0.484700  1.0
  C  C410  1  0.663000  0.253600  0.515300  1.0
  C  C411  1  0.291400  0.676700  0.437700  1.0
  C  C412  1  0.708600  0.323300  0.562300  1.0
  C  C413  1  0.345100  0.626700  0.446300  1.0
  C  C414  1  0.654900  0.373300  0.553700  1.0
  C  C415  1  0.444300  0.646400  0.502100  1.0
  C  C416  1  0.555700  0.353600  0.497900  1.0
  C  C417  1  0.489900  0.716100  0.549100  1.0
  C  C418  1  0.510100  0.283900  0.450900  1.0
  C  C419  1  0.436200  0.766200  0.540500  1.0
  C  C420  1  0.563800  0.233800  0.459500  1.0
  C  C421  1  0.682000  0.720800  0.604200  1.0
  C  C422  1  0.318000  0.279200  0.395800  1.0
  C  C423  1  0.789100  0.751200  0.662700  1.0
  C  C424  1  0.210900  0.248800  0.337300  1.0
  C  C425  1  0.891100  0.729800  0.657900  1.0
  C  C426  1  0.108900  0.270200  0.342100  1.0
  C  C427  1  0.993200  0.763700  0.712600  1.0
  C  C428  1  0.006800  0.236300  0.287400  1.0
  C  C429  1  0.988500  0.813900  0.771500  1.0
  C  C430  1  0.011500  0.186100  0.228500  1.0
  C  C431  1  0.881100  0.830800  0.773300  1.0
  C  C432  1  0.118900  0.169200  0.226700  1.0
  C  C433  1  0.463200  0.065500  0.261300  1.0
  C  C434  1  0.536800  0.934500  0.738700  1.0
  C  C435  1  0.363000  0.044800  0.206600  1.0
  C  C436  1  0.637000  0.955200  0.793400  1.0
  C  C437  1  0.322600  0.967400  0.173800  1.0
  C  C438  1  0.677400  0.032600  0.826200  1.0
  C  C439  1  0.409900  0.945300  0.213700  1.0
  C  C440  1  0.590100  0.054700  0.786300  1.0
  C  C441  1  0.503100  0.004200  0.266400  1.0
  C  C442  1  0.496900  0.995800  0.733600  1.0
  C  C443  1  0.194000  0.944000  0.281600  1.0
  C  C444  1  0.806000  0.056000  0.718400  1.0
  C  C445  1  0.160000  0.005000  0.281700  1.0
  C  C446  1  0.840000  0.995000  0.718300  1.0
  C  C447  1  0.250000  0.064700  0.334000  1.0
  C  C448  1  0.750000  0.935300  0.666000  1.0
  C  C449  1  0.338000  0.041000  0.366600  1.0
  C  C450  1  0.662000  0.959000  0.633400  1.0
  C  C451  1  0.303000  0.967000  0.334000  1.0
  C  C452  1  0.697000  0.033000  0.666000  1.0
  S  S453  1  0.824000  0.501300  0.269500  1
  S  S454  1  0.176000  0.498700  0.730500  1
  S  S455  1  0.733600  0.550500  0.379900  1
  S  S456  1  0.266400  0.449500  0.620100  1
  S  S457  1  0.810000  0.502100  0.255800  1
  S  S458  1  0.190000  0.497900  0.744200  1
  S  S459  1  0.738000  0.546200  0.371400  1
  S  S460  1  0.262000  0.453800  0.628600  1
  S  S461  1  0.637100  0.005000  0.097000  1
  S  S462  1  0.362900  0.995000  0.903000  1
  S  S463  1  0.645000  0.150500  0.128000  1
  S  S464  1  0.355000  0.849500  0.872000  1
  S  S465  1  0.987300  0.567100  0.015300  1
  S  S466  1  0.012700  0.432900  0.984700  1
  N  N467  1  0.846500  0.544700  0.350000  1
  N  N468  1  0.153500  0.455300  0.650000  1
  N  N469  1  0.472000  0.413200  0.036000  1
  N  N470  1  0.528000  0.586800  0.964000  1
  N  N471  1  0.918000  0.892100  0.951200  1
  N  N472  1  0.082000  0.107900  0.048800  1
  N  N473  1  0.404000  0.254000  0.204000  1
  N  N474  1  0.596000  0.746000  0.796000  1
  N  N475  1  0.737000  0.550000  0.299700  1
  N  N476  1  0.263000  0.450000  0.700300  1
  N  N477  1  0.699000  0.083100  0.101000  1
  N  N478  1  0.301000  0.916900  0.899000  1
  N  N479  1  0.067000  0.511500  0.999000  1
  N  N480  1  0.933000  0.488500  0.001000  1
  N  N481  1  0.160700  0.759500  0.997400  1.0
  N  N482  1  0.839300  0.240500  0.002600  1.0
  N  N483  1  0.332800  0.727100  0.078500  1.0
  N  N484  1  0.667200  0.272900  0.921500  1.0
  N  N485  1  0.605900  0.286100  0.307100  1.0
  N  N486  1  0.394100  0.713900  0.692900  1.0
  N  N487  1  0.984400  0.194400  0.890300  1.0
  N  N488  1  0.015600  0.805600  0.109700  1.0
  N  N489  1  0.846900  0.252200  0.821800  1.0
  N  N490  1  0.153100  0.747800  0.178200  1.0
  N  N491  1  0.585300  0.740700  0.608600  1.0
  N  N492  1  0.414700  0.259300  0.391400  1.0
  N  N493  1  0.780800  0.798200  0.720000  1.0
  N  N494  1  0.219200  0.201800  0.280000  1.0
  N  N495  1  0.392000  0.267500  0.217900  1.0
  N  N496  1  0.608000  0.732500  0.782100  1.0
  O  O497  1  0.717100  0.503100  0.227200  1
  O  O498  1  0.282900  0.496900  0.772800  1
  O  O499  1  0.850000  0.436200  0.259000  1
  O  O500  1  0.150000  0.563800  0.741000  1
  O  O501  1  0.631000  0.490300  0.344700  1
  O  O502  1  0.369000  0.509700  0.655300  1
  O  O503  1  0.783000  0.575100  0.451800  1
  O  O504  1  0.217000  0.424900  0.548200  1
  O  O505  1  0.855000  0.557000  0.413000  1
  O  O506  1  0.145000  0.443000  0.587000  1
  O  O507  1  0.738000  0.470000  0.186700  1
  O  O508  1  0.262000  0.530000  0.813300  1
  O  O509  1  0.853000  0.461000  0.288000  1
  O  O510  1  0.147000  0.539000  0.712000  1
  O  O511  1  0.648000  0.481100  0.354000  1
  O  O512  1  0.352000  0.518900  0.646000  1
  O  O513  1  0.096000  0.583000  0.017000  1
  O  O514  1  0.904000  0.417000  0.983000  1
  O  O515  1  0.738000  0.207000  0.182000  1
  O  O516  1  0.262000  0.793000  0.818000  1
  O  O517  1  0.520000  0.006000  0.102000  1
  O  O518  1  0.480000  0.994000  0.898000  1
  O  O519  1  0.661000  0.952000  0.044100  1
  O  O520  1  0.339000  0.048000  0.955900  1
  O  O521  1  0.519000  0.127000  0.115000  1
  O  O522  1  0.481000  0.873000  0.885000  1
  O  O523  1  0.401000  0.863000  0.049000  1
  O  O524  1  0.599000  0.137000  0.951000  1
  O  O525  1  0.917000  0.564400  0.059100  1
  O  O526  1  0.083000  0.435600  0.940900  1
  O  O527  1  0.071000  0.635800  0.036100  1
  O  O528  1  0.929000  0.364200  0.963900  1
  O  O529  1  0.517900  0.130000  0.299700  1.0
  O  O530  1  0.482100  0.870000  0.700300  1.0
  O  O531  1  0.588400  0.003800  0.308000  1.0
  O  O532  1  0.411600  0.996200  0.692000  1.0
  O  O533  1  0.393700  0.879500  0.198700  1.0
  O  O534  1  0.606300  0.120500  0.801300  1.0
  O  O535  1  0.228700  0.924500  0.124600  1.0
  O  O536  1  0.771300  0.075500  0.875400  1.0
  O  O537  1  0.314400  0.087400  0.191100  1.0
  O  O538  1  0.685600  0.912600  0.808900  1.0
  F  F539  1  0.049700  0.564200  0.298700  1
  F  F540  1  0.950300  0.435800  0.701300  1
  F  F541  1  0.931000  0.620500  0.270100  1
  F  F542  1  0.069000  0.379500  0.729900  1
  F  F543  1  0.944000  0.531500  0.193800  1
  F  F544  1  0.056000  0.468500  0.806200  1
  F  F545  1  0.606000  0.639100  0.407900  1
  F  F546  1  0.394000  0.360900  0.592100  1
  F  F547  1  0.780000  0.676600  0.392400  1
  F  F548  1  0.220000  0.323400  0.607600  1
  F  F549  1  0.623000  0.610100  0.311500  1
  F  F550  1  0.377000  0.389900  0.688500  1
  F  F551  1  0.634000  0.583000  0.467000  1
  F  F552  1  0.366000  0.417000  0.533000  1
  F  F553  1  0.565000  0.603000  0.383000  1
  F  F554  1  0.435000  0.397000  0.617000  1
  F  F555  1  0.739000  0.669600  0.457000  1
  F  F556  1  0.261000  0.330400  0.543000  1
  F  F557  1  0.002000  0.525000  0.221000  1
  F  F558  1  0.998000  0.475000  0.779000  1
  F  F559  1  0.909000  0.605000  0.233000  1
  F  F560  1  0.091000  0.395000  0.767000  1
  F  F561  1  0.018000  0.600000  0.320200  1
  F  F562  1  0.982000  0.400000  0.679800  1
  F  F563  1  0.923000  0.591000  0.893000  1
  F  F564  1  0.077000  0.409000  0.107000  1
  F  F565  1  0.827000  0.998000  0.168000  1
  F  F566  1  0.173000  0.002000  0.832000  1
  F  F567  1  0.731000  0.059000  0.222900  1
  F  F568  1  0.269000  0.941000  0.777100  1
  F  F569  1  0.505000  0.185000  0.043000  1
  F  F570  1  0.495000  0.815000  0.957000  1
  F  F571  1  0.505000  0.867300  0.027000  1
  F  F572  1  0.495000  0.132700  0.973000  1
  F  F573  1  0.905000  0.998000  0.137000  1
  F  F574  1  0.095000  0.002000  0.863000  1
  F  F575  1  0.503000  0.239000  0.027000  1
  F  F576  1  0.497000  0.761000  0.973000  1
  F  F577  1  0.499000  0.054000  0.967000  1
  F  F578  1  0.501000  0.946000  0.033000  1
  F  F579  1  0.563000  0.054000  0.049000  1
  F  F580  1  0.437000  0.946000  0.951000  1
  F  F581  1  0.709000  0.970000  0.155000  1
  F  F582  1  0.291000  0.030000  0.845000  1
  F  F583  1  0.872000  0.619100  0.946000  1
  F  F584  1  0.128000  0.380900  0.054000  1
  F  F585  1  0.781700  0.511900  0.918900  1
  F  F586  1  0.218300  0.488100  0.081100  1
  F  F587  1  0.926000  0.530000  0.884700  1
  F  F588  1  0.074000  0.470000  0.115300  1
