# generated using pymatgen
data_ZnB3H66C60N9(ClF2)6
_symmetry_space_group_name_H-M   'P 1'
_cell_length_a   19.80444738
_cell_length_b   19.80674440
_cell_length_c   19.80674440
_cell_angle_alpha   70.52502955
_cell_angle_beta   70.51555603
_cell_angle_gamma   109.45894714
_symmetry_Int_Tables_number   1
_chemical_formula_structural   ZnB3H66C60N9(ClF2)6
_chemical_formula_sum   'Zn4 B12 H264 C240 N36 Cl24 F48'
_cell_volume   5980.55961726
_cell_formula_units_Z   4
loop_
 _symmetry_equiv_pos_site_id
 _symmetry_equiv_pos_as_xyz
  1  'x, y, z'
loop_
 _atom_site_type_symbol
 _atom_site_label
 _atom_site_symmetry_multiplicity
 _atom_site_fract_x
 _atom_site_fract_y
 _atom_site_fract_z
 _atom_site_occupancy
  B  B1  1  0.000000  0.000500  0.999500  1
  B  B2  1  0.500000  0.500000  0.000000  1
  B  B3  1  0.000000  0.501300  0.498700  1
  B  B4  1  0.500000  0.998500  0.501500  1
  B  B5  1  0.979600  0.482900  0.101100  1
  B  B6  1  0.020400  0.919300  0.496700  1
  B  B7  1  0.579900  0.095500  0.913000  1
  B  B8  1  0.420100  0.507100  0.484400  1
  B  B9  1  0.015700  0.498000  0.082300  1
  B  B10  1  0.984300  0.902000  0.517700  1
  B  B11  1  0.600600  0.080900  0.924300  1
  B  B12  1  0.399400  0.475100  0.519700  1
  C  C13  1  0.472100  0.668500  0.534600  1
  C  C14  1  0.527900  0.993300  0.803600  1
  C  C15  1  0.504200  0.210900  0.966100  1
  C  C16  1  0.495800  0.529700  0.293300  1
  C  C17  1  0.173400  0.466600  0.029400  1
  C  C18  1  0.826600  0.797200  0.706800  1
  C  C19  1  0.303700  0.303700  0.664000  1
  C  C20  1  0.696300  0.032300  0.000000  1
  C  C21  1  0.964100  0.968000  0.333100  1
  C  C22  1  0.035900  0.702800  0.996100  1
  C  C23  1  0.205300  0.002700  0.467000  1
  C  C24  1  0.794700  0.327700  0.202600  1
  C  C25  1  0.399000  0.434900  0.748500  1.0
  C  C26  1  0.601000  0.852500  0.964100  1.0
  C  C27  1  0.372600  0.398000  0.842000  1.0
  C  C28  1  0.627400  0.785400  0.974600  1.0
  C  C29  1  0.418800  0.359700  0.872500  1.0
  C  C30  1  0.581200  0.708700  0.059100  1.0
  C  C31  1  0.279100  0.335800  0.895100  1.0
  C  C32  1  0.720900  0.825800  0.943300  1.0
  C  C33  1  0.371900  0.497200  0.757900  1.0
  C  C34  1  0.628100  0.870200  0.874700  1.0
  C  C35  1  0.390800  0.483400  0.830200  1.0
  C  C36  1  0.609200  0.779000  0.907400  1.0
  C  C37  1  0.485300  0.541300  0.794000  1.0
  C  C38  1  0.514700  0.720700  0.944000  1.0
  C  C39  1  0.660800  0.576500  0.606300  1.0
  C  C40  1  0.339200  0.732900  0.084300  1.0
  C  C41  1  0.619300  0.583600  0.671300  1.0
  C  C42  1  0.380700  0.709400  0.035700  1.0
  C  C43  1  0.536200  0.539000  0.717200  1.0
  C  C44  1  0.463800  0.746600  0.997200  1.0
  C  C45  1  0.492100  0.483500  0.696200  1.0
  C  C46  1  0.507900  0.811700  0.008600  1.0
  C  C47  1  0.536900  0.475500  0.634200  1.0
  C  C48  1  0.463100  0.828900  0.061400  1.0
  C  C49  1  0.750600  0.623700  0.553300  1.0
  C  C50  1  0.249400  0.696100  0.126900  1.0
  C  C51  1  0.808700  0.695000  0.546500  1.0
  C  C52  1  0.191300  0.644800  0.113700  1.0
  C  C53  1  0.882900  0.715800  0.486100  1.0
  C  C54  1  0.117100  0.631000  0.167100  1.0
  C  C55  1  0.931500  0.654800  0.400500  1.0
  C  C56  1  0.068500  0.668000  0.276700  1.0
  C  C57  1  0.965300  0.716200  0.311300  1.0
  C  C58  1  0.034700  0.723400  0.249100  1.0
  C  C59  1  0.934100  0.768300  0.288400  1.0
  C  C60  1  0.065900  0.777500  0.165800  1.0
  C  C61  1  0.968900  0.823300  0.206400  1.0
  C  C62  1  0.031100  0.824700  0.145600  1.0
  C  C63  1  0.463500  0.316800  0.434900  1.0
  C  C64  1  0.536500  0.101600  0.146700  1.0
  C  C65  1  0.474300  0.258800  0.399300  1.0
  C  C66  1  0.525700  0.126400  0.215500  1.0
  C  C67  1  0.558600  0.268300  0.359500  1.0
  C  C68  1  0.441400  0.081900  0.290300  1.0
  C  C69  1  0.442600  0.267100  0.337100  1.0
  C  C70  1  0.557400  0.220300  0.175500  1.0
  C  C71  1  0.372600  0.242900  0.498500  1.0
  C  C72  1  0.627400  0.128900  0.129700  1.0
  C  C73  1  0.407800  0.187400  0.483600  1.0
  C  C74  1  0.592200  0.108600  0.220400  1.0
  C  C75  1  0.443400  0.165200  0.541400  1.0
  C  C76  1  0.556600  0.015200  0.278200  1.0
  C  C77  1  0.585800  0.319300  0.576300  1.0
  C  C78  1  0.414200  0.837900  0.266500  1.0
  C  C79  1  0.536500  0.243500  0.585200  1.0
  C  C80  1  0.463500  0.878300  0.293000  1.0
  C  C81  1  0.496700  0.243900  0.538000  1.0
  C  C82  1  0.503300  0.965300  0.252800  1.0
  C  C83  1  0.508100  0.319400  0.484300  1.0
  C  C84  1  0.491900  0.007600  0.188700  1.0
  C  C85  1  0.562200  0.390400  0.475000  1.0
  C  C86  1  0.437800  0.962800  0.171800  1.0
  C  C87  1  0.626800  0.322300  0.624900  1.0
  C  C88  1  0.373200  0.748300  0.304500  1.0
  C  C89  1  0.613900  0.259300  0.695200  1.0
  C  C90  1  0.386100  0.690900  0.354600  1.0
  C  C91  1  0.667000  0.297200  0.716000  1.0
  C  C92  1  0.333000  0.617000  0.369800  1.0
  C  C93  1  0.777100  0.445500  0.655400  1.0
  C  C94  1  0.222900  0.567500  0.331600  1.0
  C  C95  1  0.749500  0.472300  0.717200  1.0
  C  C96  1  0.250500  0.533300  0.277200  1.0
  C  C97  1  0.666400  0.443900  0.768900  1.0
  C  C98  1  0.333600  0.564700  0.222500  1.0
  C  C99  1  0.645800  0.472200  0.822000  1.0
  C  C100  1  0.354200  0.532200  0.173600  1.0
  C  C101  1  0.646200  0.747100  0.317100  1.0
  C  C102  1  0.353800  0.036700  0.899100  1.0
  C  C103  1  0.715000  0.841000  0.259000  1.0
  C  C104  1  0.285000  0.026000  0.874000  1.0
  C  C105  1  0.674200  0.894000  0.269400  1.0
  C  C106  1  0.325800  0.056400  0.780200  1.0
  C  C107  1  0.789700  0.871700  0.269000  1.0
  C  C108  1  0.210300  0.941300  0.918000  1.0
  C  C109  1  0.629500  0.757300  0.244000  1.0
  C  C110  1  0.370500  0.126500  0.872200  1.0
  C  C111  1  0.721300  0.829900  0.186400  1.0
  C  C112  1  0.278700  0.092300  0.891400  1.0
  C  C113  1  0.778000  0.793000  0.164200  1.0
  C  C114  1  0.222000  0.057800  0.985000  1.0
  C  C115  1  0.767300  0.604800  0.317700  1.0
  C  C116  1  0.232700  0.915000  0.162500  1.0
  C  C117  1  0.790700  0.671600  0.243900  1.0
  C  C118  1  0.209300  0.965400  0.119100  1.0
  C  C119  1  0.753500  0.717400  0.243500  1.0
  C  C120  1  0.246500  0.003000  0.036100  1.0
  C  C121  1  0.687800  0.695900  0.320300  1.0
  C  C122  1  0.312200  0.991900  0.991900  1.0
  C  C123  1  0.670400  0.633700  0.391700  1.0
  C  C124  1  0.329600  0.937900  0.036700  1.0
  C  C125  1  0.805500  0.553800  0.322900  1.0
  C  C126  1  0.194500  0.871600  0.251700  1.0
  C  C127  1  0.855400  0.545600  0.259000  1.0
  C  C128  1  0.144600  0.885600  0.309800  1.0
  C  C129  1  0.869400  0.486300  0.298100  1.0
  C  C130  1  0.130600  0.832500  0.383100  1.0
  C  C131  1  0.831400  0.399100  0.445500  1.0
  C  C132  1  0.168600  0.723100  0.432300  1.0
  C  C133  1  0.776800  0.310400  0.473400  1.0
  C  C134  1  0.223200  0.749800  0.466400  1.0
  C  C135  1  0.723900  0.289000  0.443100  1.0
  C  C136  1  0.276100  0.833000  0.434900  1.0
  C  C137  1  0.674400  0.206300  0.472300  1.0
  C  C138  1  0.325600  0.853300  0.468100  1.0
  C  C139  1  0.677200  0.146000  0.528200  1.0
  C  C140  1  0.322800  0.794600  0.531200  1.0
  C  C141  1  0.732500  0.166500  0.555800  1.0
  C  C142  1  0.267500  0.711700  0.566000  1.0
  C  C143  1  0.783400  0.250400  0.527000  1.0
  C  C144  1  0.216600  0.689600  0.533000  1.0
  C  C145  1  0.875700  0.126000  0.677900  1.0
  C  C146  1  0.124300  0.446400  0.749700  1.0
  C  C147  1  0.805600  0.113900  0.740500  1.0
  C  C148  1  0.194400  0.453900  0.691700  1.0
  C  C149  1  0.783900  0.166900  0.702600  1.0
  C  C150  1  0.216100  0.513500  0.617000  1.0
  C  C151  1  0.844900  0.276900  0.555000  1.0
  C  C152  1  0.155100  0.600100  0.568000  1.0
  C  C153  1  0.924400  0.084900  0.681300  1.0
  C  C154  1  0.075600  0.394300  0.839500  1.0
  C  C155  1  0.915300  0.034000  0.755700  1.0
  C  C156  1  0.084700  0.329000  0.881300  1.0
  C  C157  1  0.961700  0.997100  0.757200  1.0
  C  C158  1  0.038300  0.281100  0.964600  1.0
  C  C159  1  0.016300  0.007500  0.679800  1.0
  C  C160  1  0.983700  0.303900  0.008800  1.0
  C  C161  1  0.024300  0.062400  0.610100  1.0
  C  C162  1  0.975700  0.365600  0.961900  1.0
  C  C163  1  0.064600  0.963500  0.682500  1.0
  C  C164  1  0.935400  0.252900  0.101100  1.0
  C  C165  1  0.101100  0.973900  0.741600  1.0
  C  C166  1  0.898900  0.157300  0.127200  1.0
  C  C167  1  0.140600  0.058800  0.731800  1.0
  C  C168  1  0.859400  0.127600  0.081800  1.0
  C  C169  1  0.164800  0.942400  0.730800  1.0
  C  C170  1  0.835200  0.104400  0.222400  1.0
  C  C171  1  0.001900  0.873400  0.755300  1.0
  C  C172  1  0.998100  0.242800  0.128500  1.0
  C  C173  1  0.015000  0.906400  0.814200  1.0
  C  C174  1  0.985000  0.170800  0.108600  1.0
  C  C175  1  0.959100  0.944000  0.835100  1.0
  C  C176  1  0.040900  0.205800  0.015100  1.0
  C  C177  1  0.181700  0.145300  0.254000  1.0
  C  C178  1  0.818300  0.564300  0.036400  1.0
  C  C179  1  0.240900  0.215300  0.158800  1.0
  C  C180  1  0.759100  0.600300  0.025600  1.0
  C  C181  1  0.231800  0.290100  0.129300  1.0
  C  C182  1  0.768200  0.638900  0.941700  1.0
  C  C183  1  0.232000  0.173500  0.105900  1.0
  C  C184  1  0.768000  0.662100  0.058500  1.0
  C  C185  1  0.257800  0.128900  0.243500  1.0
  C  C186  1  0.742200  0.498700  0.128900  1.0
  C  C187  1  0.312100  0.222000  0.170100  1.0
  C  C188  1  0.687900  0.517800  0.090100  1.0
  C  C189  1  0.335000  0.278700  0.206700  1.0
  C  C190  1  0.665000  0.458300  0.056300  1.0
  C  C191  1  0.182000  0.267200  0.394800  1.0
  C  C192  1  0.818000  0.423200  0.914800  1.0
  C  C193  1  0.255500  0.291700  0.329000  1.0
  C  C194  1  0.744500  0.415500  0.963800  1.0
  C  C195  1  0.256600  0.253300  0.282100  1.0
  C  C196  1  0.743400  0.461300  0.003300  1.0
  C  C197  1  0.180100  0.187400  0.303300  1.0
  C  C198  1  0.819900  0.516600  0.992700  1.0
  C  C199  1  0.109100  0.171000  0.366300  1.0
  C  C200  1  0.890900  0.524600  0.938100  1.0
  C  C201  1  0.178100  0.303900  0.446800  1.0
  C  C202  1  0.821900  0.375100  0.874200  1.0
  C  C203  1  0.240800  0.355400  0.454600  1.0
  C  C204  1  0.759200  0.304600  0.885400  1.0
  C  C205  1  0.202100  0.367900  0.514800  1.0
  C  C206  1  0.797900  0.283100  0.834200  1.0
  C  C207  1  0.054500  0.331600  0.601500  1.0
  C  C208  1  0.945500  0.344000  0.722900  1.0
  C  C209  1  0.026700  0.276500  0.690200  1.0
  C  C210  1  0.973300  0.283100  0.750200  1.0
  C  C211  1  0.055800  0.222700  0.712300  1.0
  C  C212  1  0.944200  0.231900  0.833100  1.0
  C  C213  1  0.027900  0.175100  0.793800  1.0
  C  C214  1  0.972100  0.178300  0.852800  1.0
  C  C215  1  0.752300  0.899100  0.564200  1.0
  C  C216  1  0.247700  0.683500  0.853200  1.0
  C  C217  1  0.657600  0.872800  0.601400  1.0
  C  C218  1  0.342400  0.741000  0.784800  1.0
  C  C219  1  0.628700  0.918800  0.642100  1.0
  C  C220  1  0.371300  0.729200  0.709900  1.0
  C  C221  1  0.604800  0.777200  0.664400  1.0
  C  C222  1  0.395200  0.730800  0.827600  1.0
  C  C223  1  0.740200  0.869700  0.503100  1.0
  C  C224  1  0.259800  0.756700  0.870500  1.0
  C  C225  1  0.670000  0.890800  0.516400  1.0
  C  C226  1  0.330000  0.813600  0.779200  1.0
  C  C227  1  0.705800  0.983600  0.459600  1.0
  C  C228  1  0.294200  0.834600  0.722200  1.0
  C  C229  1  0.894200  0.160100  0.423700  1.0
  C  C230  1  0.105800  0.682100  0.734100  1.0
  C  C231  1  0.828400  0.119900  0.414500  1.0
  C  C232  1  0.171600  0.757100  0.708500  1.0
  C  C233  1  0.782000  0.034200  0.460600  1.0
  C  C234  1  0.218000  0.757400  0.747800  1.0
  C  C235  1  0.803800  0.990900  0.516900  1.0
  C  C236  1  0.196200  0.679300  0.812900  1.0
  C  C237  1  0.865900  0.036700  0.524800  1.0
  C  C238  1  0.134100  0.609300  0.829200  1.0
  C  C239  1  0.946900  0.250900  0.376000  1.0
  C  C240  1  0.053100  0.677100  0.696000  1.0
  C  C241  1  0.953300  0.309800  0.305900  1.0
  C  C242  1  0.046700  0.740800  0.643500  1.0
  C  C243  1  0.013500  0.383300  0.285200  1.0
  C  C244  1  0.986500  0.701300  0.630200  1.0
  C  C245  1  0.100000  0.431800  0.345400  1.0
  C  C246  1  0.900000  0.554600  0.668200  1.0
  C  C247  1  0.811900  0.527800  0.722500  1.0
  C  C248  1  0.188100  0.465600  0.284100  1.0
  C  C249  1  0.788600  0.555700  0.777700  1.0
  C  C250  1  0.211400  0.433700  0.232900  1.0
  C  C251  1  0.705700  0.528900  0.825400  1.0
  C  C252  1  0.294300  0.468900  0.176800  1.0
  Cl  Cl253  1  0.478600  0.760400  0.488200  1
  Cl  Cl254  1  0.521400  0.033200  0.718200  1
  Cl  Cl255  1  0.559200  0.681800  0.542000  1
  Cl  Cl256  1  0.440800  0.898800  0.877400  1
  Cl  Cl257  1  0.536000  0.283700  0.976700  1
  Cl  Cl258  1  0.464000  0.487300  0.252300  1
  Cl  Cl259  1  0.397680  0.122740  0.059460  1
  Cl  Cl260  1  0.602320  0.542860  0.274940  1
  Cl  Cl261  1  0.259900  0.512800  0.022500  1
  Cl  Cl262  1  0.740100  0.717600  0.747100  1
  Cl  Cl263  1  0.181660  0.457180  0.941720  1
  Cl  Cl264  1  0.818340  0.876620  0.724480  1
  Cl  Cl265  1  0.217800  0.252500  0.760700  1
  Cl  Cl266  1  0.782200  0.021500  0.965300  1
  Cl  Cl267  1  0.377340  0.275270  0.682330  1
  Cl  Cl268  1  0.622660  0.940330  0.102070  1
  Cl  Cl269  1  0.957240  0.058820  0.318780  1
  Cl  Cl270  1  0.042760  0.723980  0.898420  1
  Cl  Cl271  1  0.011000  0.976700  0.241100  1
  Cl  Cl272  1  0.989000  0.747900  0.034300  1
  Cl  Cl273  1  0.224920  0.101410  0.457490  1
  Cl  Cl274  1  0.775080  0.317590  0.123510  1
  Cl  Cl275  1  0.247900  0.966100  0.512600  1
  Cl  Cl276  1  0.752100  0.239500  0.281800  1
  F  F277  1  0.948500  0.398000  0.148900  1
  F  F278  1  0.051500  0.902600  0.550500  1
  F  F279  1  0.033500  0.521700  0.123200  1
  F  F280  1  0.966500  0.843300  0.511800  1
  F  F281  1  0.015700  0.503600  0.018900  1
  F  F282  1  0.984300  0.965400  0.512100  1
  F  F283  1  0.917400  0.503000  0.117200  1
  F  F284  1  0.082600  0.965400  0.414400  1
  F  F285  1  0.536400  0.015000  0.975400  1
  F  F286  1  0.463600  0.488200  0.521400  1
  F  F287  1  0.587700  0.144700  0.951200  1
  F  F288  1  0.412300  0.461100  0.443000  1
  F  F289  1  0.534700  0.105000  0.873100  1
  F  F290  1  0.465300  0.592200  0.429700  1
  F  F291  1  0.659700  0.122600  0.856100  1
  F  F292  1  0.340300  0.484200  0.537100  1
  F  F293  1  0.976800  0.496700  0.037300  1
  F  F294  1  0.023200  0.985900  0.480100  1
  F  F295  1  0.094900  0.566600  0.034700  1
  F  F296  1  0.905100  0.870400  0.528300  1
  F  F297  1  0.020000  0.424100  0.105900  1
  F  F298  1  0.980000  0.874100  0.595900  1
  F  F299  1  0.978600  0.498800  0.154000  1
  F  F300  1  0.021400  0.867400  0.479800  1
  F  F301  1  0.515900  0.032900  0.968800  1
  F  F302  1  0.484100  0.515300  0.483000  1
  F  F303  1  0.634300  0.034000  0.904900  1
  F  F304  1  0.365700  0.460800  0.600300  1
  F  F305  1  0.632100  0.149600  0.848700  1
  F  F306  1  0.367900  0.519200  0.482500  1
  F  F307  1  0.626200  0.108400  0.971400  1
  F  F308  1  0.373800  0.402400  0.517800  1
  F  F309  1  0.066200  0.069300  0.932700  1.0
  F  F310  1  0.933800  0.001100  0.996900  1.0
  F  F311  1  0.997200  0.929300  0.005300  1.0
  F  F312  1  0.002800  0.997500  0.067900  1.0
  F  F313  1  0.567900  0.563900  0.931400  1.0
  F  F314  1  0.432100  0.500700  0.004000  1.0
  F  F315  1  0.503300  0.434300  0.999400  1.0
  F  F316  1  0.496700  0.497300  0.069000  1.0
  F  F317  1  0.999980  0.569690  0.499510  1.0
  F  F318  1  0.000020  0.500510  0.430290  1.0
  F  F319  1  0.069940  0.500120  0.499980  1.0
  F  F320  1  0.930060  0.430080  0.569820  1.0
  F  F321  1  0.570100  0.067200  0.434900  1.0
  F  F322  1  0.429900  0.995000  0.502900  1.0
  F  F323  1  0.498100  0.932500  0.496800  1.0
  F  F324  1  0.501900  0.005100  0.565600  1.0
  H  H325  1  0.466200  0.640800  0.503000  1
  H  H326  1  0.533800  0.030800  0.825400  1
  H  H327  1  0.423700  0.634000  0.589500  1
  H  H328  1  0.576300  0.986800  0.789700  1
  H  H329  1  0.543700  0.191000  0.958700  1
  H  H330  1  0.456300  0.497600  0.352700  1
  H  H331  1  0.500400  0.227500  0.916100  1
  H  H332  1  0.499600  0.583500  0.272900  1
  H  H333  1  0.144200  0.496600  0.037200  1
  H  H334  1  0.855800  0.818600  0.647600  1
  H  H335  1  0.140700  0.411800  0.077900  1
  H  H336  1  0.859300  0.781400  0.728900  1
  H  H337  1  0.326000  0.362900  0.639300  1
  H  H338  1  0.674000  0.034700  0.963100  1
  H  H339  1  0.289900  0.286000  0.627900  1
  H  H340  1  0.710100  0.082200  0.003900  1
  H  H341  1  0.995200  0.961400  0.361200  1
  H  H342  1  0.004800  0.643600  0.033800  1
  H  H343  1  0.908900  0.919700  0.367000  1
  H  H344  1  0.091100  0.724100  0.989200  1
  H  H345  1  0.146100  0.964700  0.498200  1
  H  H346  1  0.853900  0.355700  0.181400  1
  H  H347  1  0.226500  0.008400  0.412500  1
  H  H348  1  0.773500  0.361000  0.218100  1
  H  H349  1  0.369000  0.398000  0.733000  1.0
  H  H350  1  0.631000  0.898000  0.971000  1.0
  H  H351  1  0.476000  0.390100  0.830500  1.0
  H  H352  1  0.524000  0.693500  0.085900  1.0
  H  H353  1  0.395200  0.303200  0.884800  1.0
  H  H354  1  0.604800  0.720000  0.092000  1.0
  H  H355  1  0.414100  0.361400  0.921700  1.0
  H  H356  1  0.585900  0.664200  0.052700  1.0
  H  H357  1  0.263100  0.312700  0.952600  1.0
  H  H358  1  0.736900  0.784300  0.950400  1.0
  H  H359  1  0.266500  0.292300  0.882000  1.0
  H  H360  1  0.733500  0.851500  0.974200  1.0
  H  H361  1  0.249300  0.363500  0.884000  1.0
  H  H362  1  0.750700  0.866700  0.885800  1.0
  H  H363  1  0.314000  0.478500  0.774900  1.0
  H  H364  1  0.686000  0.911100  0.835500  1.0
  H  H365  1  0.407200  0.552800  0.710800  1.0
  H  H366  1  0.592800  0.882000  0.854400  1.0
  H  H367  1  0.353000  0.484000  0.877000  1.0
  H  H368  1  0.647000  0.770000  0.869000  1.0
  H  H369  1  0.497000  0.597500  0.778700  1.0
  H  H370  1  0.503000  0.724300  0.899500  1.0
  H  H371  1  0.500700  0.523000  0.835500  1.0
  H  H372  1  0.499300  0.663800  0.977700  1.0
  H  H373  1  0.648700  0.619900  0.684200  1.0
  H  H374  1  0.351300  0.667100  0.028800  1.0
  H  H375  1  0.508800  0.436900  0.622700  1.0
  H  H376  1  0.491200  0.868500  0.071900  1.0
  H  H377  1  0.798500  0.721500  0.576400  1.0
  H  H378  1  0.201500  0.625100  0.077000  1.0
  H  H379  1  0.933800  0.761000  0.465800  1.0
  H  H380  1  0.066200  0.600400  0.172800  1.0
  H  H381  1  0.908000  0.599600  0.408200  1.0
  H  H382  1  0.092000  0.683800  0.308400  1.0
  H  H383  1  0.977200  0.663800  0.411200  1.0
  H  H384  1  0.022800  0.611600  0.313400  1.0
  H  H385  1  0.890300  0.765600  0.328300  1.0
  H  H386  1  0.109700  0.781400  0.124700  1.0
  H  H387  1  0.950800  0.860500  0.191100  1.0
  H  H388  1  0.049200  0.858100  0.090300  1.0
  H  H389  1  0.471000  0.369000  0.398000  1.0
  H  H390  1  0.529000  0.131000  0.102000  1.0
  H  H391  1  0.585900  0.279800  0.389500  1.0
  H  H392  1  0.414100  0.024600  0.306100  1.0
  H  H393  1  0.590600  0.313200  0.303400  1.0
  H  H394  1  0.409400  0.106000  0.277400  1.0
  H  H395  1  0.553400  0.218200  0.359800  1.0
  H  H396  1  0.446600  0.086800  0.335200  1.0
  H  H397  1  0.476300  0.322500  0.291000  1.0
  H  H398  1  0.523700  0.232700  0.153800  1.0
  H  H399  1  0.386400  0.255000  0.363800  1.0
  H  H400  1  0.613600  0.249800  0.131400  1.0
  H  H401  1  0.445200  0.228900  0.318100  1.0
  H  H402  1  0.554800  0.236700  0.216300  1.0
  H  H403  1  0.352100  0.234000  0.554300  1.0
  H  H404  1  0.647900  0.093600  0.118100  1.0
  H  H405  1  0.333100  0.243500  0.480000  1.0
  H  H406  1  0.666900  0.186900  0.089600  1.0
  H  H407  1  0.370000  0.140000  0.484000  1.0
  H  H408  1  0.630000  0.146000  0.230000  1.0
  H  H409  1  0.398300  0.124900  0.597800  1.0
  H  H410  1  0.601700  0.003900  0.273400  1.0
  H  H411  1  0.476400  0.141300  0.523700  1.0
  H  H412  1  0.523600  0.999900  0.335100  1.0
  H  H413  1  0.530400  0.194500  0.621100  1.0
  H  H414  1  0.469600  0.848500  0.335900  1.0
  H  H415  1  0.573600  0.440600  0.435600  1.0
  H  H416  1  0.426400  0.990800  0.133000  1.0
  H  H417  1  0.576600  0.203100  0.721900  1.0
  H  H418  1  0.423400  0.701500  0.373500  1.0
  H  H419  1  0.672700  0.271500  0.760800  1.0
  H  H420  1  0.327300  0.566500  0.401200  1.0
  H  H421  1  0.807800  0.493300  0.600300  1.0
  H  H422  1  0.192200  0.591900  0.314500  1.0
  H  H423  1  0.814700  0.426700  0.663200  1.0
  H  H424  1  0.185300  0.522100  0.388000  1.0
  H  H425  1  0.625500  0.406000  0.766700  1.0
  H  H426  1  0.374500  0.607800  0.219500  1.0
  H  H427  1  0.590400  0.452800  0.856600  1.0
  H  H428  1  0.409600  0.553000  0.137600  1.0
  H  H429  1  0.601000  0.732000  0.369000  1.0
  H  H430  1  0.399000  0.030000  0.869000  1.0
  H  H431  1  0.638000  0.888300  0.246700  1.0
  H  H432  1  0.362000  0.115300  0.749700  1.0
  H  H433  1  0.716500  0.951000  0.240700  1.0
  H  H434  1  0.283500  0.042800  0.765500  1.0
  H  H435  1  0.642900  0.875600  0.327100  1.0
  H  H436  1  0.357100  0.030000  0.767300  1.0
  H  H437  1  0.804100  0.829400  0.283100  1.0
  H  H438  1  0.195900  0.912800  0.974700  1.0
  H  H439  1  0.777100  0.885200  0.312300  1.0
  H  H440  1  0.222900  0.910600  0.891900  1.0
  H  H441  1  0.835200  0.920200  0.218000  1.0
  H  H442  1  0.164800  0.946800  0.915000  1.0
  H  H443  1  0.588700  0.774300  0.245200  1.0
  H  H444  1  0.411300  0.166100  0.814400  1.0
  H  H445  1  0.618300  0.710400  0.235100  1.0
  H  H446  1  0.381700  0.146600  0.907900  1.0
  H  H447  1  0.732000  0.877000  0.139000  1.0
  H  H448  1  0.268000  0.129000  0.855000  1.0
  H  H449  1  0.771900  0.776300  0.124800  1.0
  H  H450  1  0.228100  0.103300  0.995600  1.0
  H  H451  1  0.835300  0.834400  0.139100  1.0
  H  H452  1  0.164700  0.025600  0.000900  1.0
  H  H453  1  0.832600  0.684500  0.194300  1.0
  H  H454  1  0.167400  0.973100  0.148100  1.0
  H  H455  1  0.631500  0.622700  0.442000  1.0
  H  H456  1  0.368500  0.926500  0.008800  1.0
  H  H457  1  0.874100  0.574700  0.202800  1.0
  H  H458  1  0.125900  0.923100  0.299400  1.0
  H  H459  1  0.900400  0.466500  0.273100  1.0
  H  H460  1  0.099600  0.826500  0.433900  1.0
  H  H461  1  0.815100  0.406900  0.493000  1.0
  H  H462  1  0.184900  0.691900  0.408200  1.0
  H  H463  1  0.887800  0.410000  0.426200  1.0
  H  H464  1  0.112200  0.686000  0.477800  1.0
  H  H465  1  0.722000  0.329400  0.404200  1.0
  H  H466  1  0.278000  0.873800  0.392600  1.0
  H  H467  1  0.638000  0.191200  0.453200  1.0
  H  H468  1  0.362000  0.908800  0.446800  1.0
  H  H469  1  0.641800  0.090700  0.547900  1.0
  H  H470  1  0.358200  0.810300  0.551100  1.0
  H  H471  1  0.736000  0.125700  0.592500  1.0
  H  H472  1  0.264000  0.671500  0.610300  1.0
  H  H473  1  0.779400  0.077100  0.796700  1.0
  H  H474  1  0.220600  0.423900  0.702300  1.0
  H  H475  1  0.738800  0.172400  0.728200  1.0
  H  H476  1  0.261200  0.533000  0.566400  1.0
  H  H477  1  0.900200  0.308500  0.507300  1.0
  H  H478  1  0.099800  0.592500  0.591700  1.0
  H  H479  1  0.836500  0.313700  0.574800  1.0
  H  H480  1  0.163500  0.588700  0.522800  1.0
  H  H481  1  0.876900  0.025200  0.805100  1.0
  H  H482  1  0.123100  0.318000  0.851700  1.0
  H  H483  1  0.064000  0.074600  0.559400  1.0
  H  H484  1  0.936000  0.376600  0.989400  1.0
  H  H485  1  0.101000  0.971000  0.630000  1.0
  H  H486  1  0.899000  0.269000  0.130000  1.0
  H  H487  1  0.110900  0.086100  0.719000  1.0
  H  H488  1  0.889100  0.170100  0.024800  1.0
  H  H489  1  0.196900  0.090600  0.687900  1.0
  H  H490  1  0.803100  0.115200  0.106300  1.0
  H  H491  1  0.138800  0.053600  0.782400  1.0
  H  H492  1  0.861200  0.078800  0.085200  1.0
  H  H493  1  0.216700  0.984900  0.681600  1.0
  H  H494  1  0.783300  0.101700  0.231800  1.0
  H  H495  1  0.144200  0.893900  0.726100  1.0
  H  H496  1  0.855800  0.129700  0.250300  1.0
  H  H497  1  0.172600  0.929400  0.777800  1.0
  H  H498  1  0.827400  0.049600  0.243200  1.0
  H  H499  1  0.020600  0.834200  0.754000  1.0
  H  H500  1  0.979400  0.225400  0.186400  1.0
  H  H501  1  0.946200  0.852800  0.763800  1.0
  H  H502  1  0.053800  0.290000  0.093400  1.0
  H  H503  1  0.014000  0.868000  0.862000  1.0
  H  H504  1  0.986000  0.124000  0.146000  1.0
  H  H505  1  0.902800  0.900000  0.876000  1.0
  H  H506  1  0.097200  0.221200  0.002800  1.0
  H  H507  1  0.978100  0.977500  0.858200  1.0
  H  H508  1  0.021900  0.163700  0.000600  1.0
  H  H509  1  0.128000  0.099000  0.271000  1.0
  H  H510  1  0.872000  0.601000  0.029000  1.0
  H  H511  1  0.225700  0.308500  0.169000  1.0
  H  H512  1  0.774300  0.605300  0.917200  1.0
  H  H513  1  0.183800  0.276400  0.123000  1.0
  H  H514  1  0.816200  0.693200  0.907400  1.0
  H  H515  1  0.280000  0.333300  0.077100  1.0
  H  H516  1  0.720000  0.642900  0.946700  1.0
  H  H517  1  0.176400  0.151600  0.115600  1.0
  H  H518  1  0.823600  0.708000  0.024800  1.0
  H  H519  1  0.243900  0.129400  0.121300  1.0
  H  H520  1  0.756100  0.634800  0.114500  1.0
  H  H521  1  0.269800  0.213500  0.048500  1.0
  H  H522  1  0.730200  0.681700  0.056300  1.0
  H  H523  1  0.267600  0.118900  0.289900  1.0
  H  H524  1  0.732400  0.442500  0.148700  1.0
  H  H525  1  0.257700  0.088400  0.226300  1.0
  H  H526  1  0.742300  0.516000  0.169300  1.0
  H  H527  1  0.359000  0.232000  0.123000  1.0
  H  H528  1  0.641000  0.518000  0.127000  1.0
  H  H529  1  0.375100  0.273100  0.222600  1.0
  H  H530  1  0.624900  0.402300  0.102000  1.0
  H  H531  1  0.359400  0.336000  0.165600  1.0
  H  H532  1  0.640600  0.475000  0.023400  1.0
  H  H533  1  0.304600  0.334300  0.316100  1.0
  H  H534  1  0.695400  0.379300  0.970300  1.0
  H  H535  1  0.058800  0.132000  0.377600  1.0
  H  H536  1  0.941200  0.563600  0.926800  1.0
  H  H537  1  0.297200  0.376200  0.424200  1.0
  H  H538  1  0.702800  0.278600  0.921000  1.0
  H  H539  1  0.227100  0.397300  0.535800  1.0
  H  H540  1  0.772900  0.237100  0.829800  1.0
  H  H541  1  0.006900  0.315900  0.593800  1.0
  H  H542  1  0.993100  0.399300  0.691000  1.0
  H  H543  1  0.074100  0.388000  0.590900  1.0
  H  H544  1  0.925900  0.335000  0.686100  1.0
  H  H545  1  0.093400  0.219200  0.672400  1.0
  H  H546  1  0.906600  0.234200  0.874200  1.0
  H  H547  1  0.047400  0.139300  0.809500  1.0
  H  H548  1  0.952600  0.143100  0.908100  1.0
  H  H549  1  0.768000  0.869000  0.601000  1.0
  H  H550  1  0.232000  0.631000  0.899000  1.0
  H  H551  1  0.668600  0.976700  0.609100  1.0
  H  H552  1  0.331400  0.722300  0.691900  1.0
  H  H553  1  0.623100  0.898000  0.696100  1.0
  H  H554  1  0.376900  0.680800  0.725100  1.0
  H  H555  1  0.576400  0.910500  0.646900  1.0
  H  H556  1  0.423600  0.776700  0.665900  1.0
  H  H557  1  0.611700  0.766000  0.711900  1.0
  H  H558  1  0.388300  0.676400  0.845700  1.0
  H  H559  1  0.622800  0.748600  0.638400  1.0
  H  H560  1  0.377200  0.738800  0.874200  1.0
  H  H561  1  0.547400  0.758600  0.681400  1.0
  H  H562  1  0.452600  0.771200  0.788800  1.0
  H  H563  1  0.786900  0.903500  0.447200  1.0
  H  H564  1  0.213100  0.765900  0.883400  1.0
  H  H565  1  0.721800  0.811400  0.523200  1.0
  H  H566  1  0.278200  0.755000  0.910400  1.0
  H  H567  1  0.622000  0.853000  0.517000  1.0
  H  H568  1  0.378000  0.861000  0.769000  1.0
  H  H569  1  0.720300  0.994900  0.403600  1.0
  H  H570  1  0.279700  0.876100  0.725400  1.0
  H  H571  1  0.664500  0.999100  0.478200  1.0
  H  H572  1  0.335500  0.857300  0.665400  1.0
  H  H573  1  0.815800  0.149800  0.378200  1.0
  H  H574  1  0.184200  0.806000  0.666000  1.0
  H  H575  1  0.877500  0.009000  0.563500  1.0
  H  H576  1  0.122500  0.559000  0.868500  1.0
  H  H577  1  0.923000  0.300100  0.279700  1.0
  H  H578  1  0.077000  0.797300  0.622900  1.0
  H  H579  1  0.033100  0.434200  0.240700  1.0
  H  H580  1  0.966900  0.726200  0.598900  1.0
  H  H581  1  0.092600  0.408100  0.400500  1.0
  H  H582  1  0.907400  0.506900  0.684500  1.0
  H  H583  1  0.089000  0.477300  0.336700  1.0
  H  H584  1  0.911000  0.574300  0.611700  1.0
  H  H585  1  0.828400  0.591900  0.782500  1.0
  H  H586  1  0.171600  0.389100  0.236500  1.0
  H  H587  1  0.690300  0.549600  0.860100  1.0
  H  H588  1  0.309700  0.449600  0.140700  1.0
  N  N589  1  0.621500  0.520800  0.587100  1.0
  N  N590  1  0.378500  0.791400  0.100700  1.0
  N  N591  1  0.788100  0.602900  0.501600  1.0
  N  N592  1  0.211900  0.710300  0.185200  1.0
  N  N593  1  0.870200  0.658700  0.460100  1.0
  N  N594  1  0.129800  0.669700  0.211500  1.0
  N  N595  1  0.600600  0.391400  0.521000  1.0
  N  N596  1  0.399400  0.878400  0.209200  1.0
  N  N597  1  0.685300  0.396900  0.602800  1.0
  N  N598  1  0.314700  0.711900  0.288400  1.0
  N  N599  1  0.711500  0.380800  0.659500  1.0
  N  N600  1  0.288500  0.629000  0.330700  1.0
  N  N601  1  0.707800  0.587200  0.392200  1.0
  N  N602  1  0.292200  0.900000  0.120600  1.0
  N  N603  1  0.790200  0.500300  0.396300  1.0
  N  N604  1  0.209800  0.813500  0.289900  1.0
  N  N605  1  0.830100  0.459500  0.381000  1.0
  N  N606  1  0.169900  0.788900  0.370600  1.0
  N  N607  1  0.897500  0.186000  0.603100  1.0
  N  N608  1  0.102500  0.499400  0.711500  1.0
  N  N609  1  0.841100  0.210700  0.619200  1.0
  N  N610  1  0.158900  0.539700  0.630400  1.0
  N  N611  1  0.979000  0.100900  0.608700  1.0
  N  N612  1  0.021000  0.412300  0.878100  1.0
  N  N613  1  0.107600  0.208300  0.413300  1.0
  N  N614  1  0.892400  0.479100  0.899300  1.0
  N  N615  1  0.102900  0.289000  0.499100  1.0
  N  N616  1  0.897100  0.398000  0.813900  1.0
  N  N617  1  0.119000  0.330000  0.540600  1.0
  N  N618  1  0.881000  0.340400  0.789000  1.0
  N  N619  1  0.912800  0.121300  0.479300  1.0
  N  N620  1  0.087200  0.607900  0.791500  1.0
  N  N621  1  0.999500  0.288200  0.396900  1.0
  N  N622  1  0.000500  0.603600  0.711300  1.0
  N  N623  1  0.040500  0.370000  0.340900  1.0
  N  N624  1  0.959500  0.618600  0.670500  1.0
  Zn  Zn625  1  0.695480  0.499950  0.499970  1.0
  Zn  Zn626  1  0.304520  0.804550  0.195530  1.0
  Zn  Zn627  1  1.000000  0.195290  0.500170  1.0
  Zn  Zn628  1  1.000000  0.499830  0.804710  1.0
