# generated using pymatgen
data_VC16(NO3)2
_symmetry_space_group_name_H-M   'P 1'
_cell_length_a   8.21700000
_cell_length_b   15.79460000
_cell_length_c   16.21240000
_cell_angle_alpha   90.00000000
_cell_angle_beta   97.48000000
_cell_angle_gamma   90.00000000
_symmetry_Int_Tables_number   1
_chemical_formula_structural   VC16(NO3)2
_chemical_formula_sum   'V4 C64 N8 O24'
_cell_volume   2086.20857688
_cell_formula_units_Z   4
loop_
 _symmetry_equiv_pos_site_id
 _symmetry_equiv_pos_as_xyz
  1  'x, y, z'
loop_
 _atom_site_type_symbol
 _atom_site_label
 _atom_site_symmetry_multiplicity
 _atom_site_fract_x
 _atom_site_fract_y
 _atom_site_fract_z
 _atom_site_occupancy
  V  V1  1  0.002000  0.293170  0.811920  1.0
  V  V2  1  0.998000  0.793170  0.688080  1.0
  V  V3  1  0.998000  0.706830  0.188080  1.0
  V  V4  1  0.002000  0.206830  0.311920  1.0
  C  C5  1  0.268000  0.381200  0.067600  1.0
  C  C6  1  0.732000  0.881200  0.432400  1.0
  C  C7  1  0.732000  0.618800  0.932400  1.0
  C  C8  1  0.268000  0.118800  0.567600  1.0
  C  C9  1  0.231000  0.288600  0.052300  1.0
  C  C10  1  0.769000  0.788600  0.447700  1.0
  C  C11  1  0.769000  0.711400  0.947700  1.0
  C  C12  1  0.231000  0.211400  0.552300  1.0
  C  C13  1  0.372000  0.236500  0.027400  1.0
  C  C14  1  0.628000  0.736500  0.472600  1.0
  C  C15  1  0.628000  0.763500  0.972600  1.0
  C  C16  1  0.372000  0.263500  0.527400  1.0
  C  C17  1  0.978400  0.220400  0.970600  1.0
  C  C18  1  0.021600  0.720400  0.529400  1.0
  C  C19  1  0.021600  0.779600  0.029400  1.0
  C  C20  1  0.978400  0.279600  0.470600  1.0
  C  C21  1  0.945000  0.166300  0.045500  1.0
  C  C22  1  0.055000  0.666300  0.454500  1.0
  C  C23  1  0.055000  0.833700  0.954500  1.0
  C  C24  1  0.945000  0.333700  0.545500  1.0
  C  C25  1  0.790500  0.111800  0.021000  1.0
  C  C26  1  0.209500  0.611800  0.479000  1.0
  C  C27  1  0.209500  0.888200  0.979000  1.0
  C  C28  1  0.790500  0.388200  0.521000  1.0
  C  C29  1  0.737000  0.065400  0.095500  1.0
  C  C30  1  0.263000  0.565400  0.404500  1.0
  C  C31  1  0.263000  0.934600  0.904500  1.0
  C  C32  1  0.737000  0.434600  0.595500  1.0
  C  C33  1  0.845300  0.994400  0.123200  1.0
  C  C34  1  0.154700  0.494400  0.376800  1.0
  C  C35  1  0.154700  0.005600  0.876800  1.0
  C  C36  1  0.845300  0.505600  0.623200  1.0
  C  C37  1  0.796500  0.952100  0.202300  1.0
  C  C38  1  0.203500  0.452100  0.297700  1.0
  C  C39  1  0.203500  0.047900  0.797700  1.0
  C  C40  1  0.796500  0.547900  0.702300  1.0
  C  C41  1  0.106900  0.129000  0.780800  1.0
  C  C42  1  0.893100  0.629000  0.719200  1.0
  C  C43  1  0.893100  0.871000  0.219200  1.0
  C  C44  1  0.106900  0.371000  0.280800  1.0
  C  C45  1  0.854500  0.065000  0.703800  1.0
  C  C46  1  0.145500  0.565000  0.796200  1.0
  C  C47  1  0.145500  0.935000  0.296200  1.0
  C  C48  1  0.854500  0.435000  0.203800  1.0
  C  C49  1  0.792000  0.081600  0.611800  1.0
  C  C50  1  0.208000  0.581600  0.888200  1.0
  C  C51  1  0.208000  0.918400  0.388200  1.0
  C  C52  1  0.792000  0.418400  0.111800  1.0
  C  C53  1  0.714000  0.058000  0.754200  1.0
  C  C54  1  0.286000  0.558000  0.745800  1.0
  C  C55  1  0.286000  0.942000  0.245800  1.0
  C  C56  1  0.714000  0.442000  0.254200  1.0
  C  C57  1  0.653000  0.326400  0.828900  1.0
  C  C58  1  0.347000  0.826400  0.671100  1.0
  C  C59  1  0.347000  0.673600  0.171100  1.0
  C  C60  1  0.653000  0.173600  0.328900  1.0
  C  C61  1  0.527000  0.315600  0.751800  1.0
  C  C62  1  0.473000  0.815600  0.748200  1.0
  C  C63  1  0.473000  0.684400  0.248200  1.0
  C  C64  1  0.527000  0.184400  0.251800  1.0
  C  C65  1  0.595000  0.394900  0.883100  1.0
  C  C66  1  0.405000  0.894900  0.616900  1.0
  C  C67  1  0.405000  0.605100  0.116900  1.0
  C  C68  1  0.595000  0.105100  0.383100  1.0
  N  N69  1  0.095700  0.282500  0.984400  1.0
  N  N70  1  0.904300  0.782500  0.515600  1.0
  N  N71  1  0.904300  0.717500  0.015600  1.0
  N  N72  1  0.095700  0.217500  0.484400  1.0
  N  N73  1  0.962800  0.133900  0.737000  1.0
  N  N74  1  0.037200  0.633900  0.763000  1.0
  N  N75  1  0.037200  0.866100  0.263000  1.0
  N  N76  1  0.962800  0.366100  0.237000  1.0
  O  O77  1  0.095400  0.357100  0.758500  1.0
  O  O78  1  0.904600  0.857100  0.741500  1.0
  O  O79  1  0.904600  0.642900  0.241500  1.0
  O  O80  1  0.095400  0.142900  0.258500  1.0
  O  O81  1  0.122200  0.326200  0.913700  1.0
  O  O82  1  0.877800  0.826200  0.586300  1.0
  O  O83  1  0.877800  0.673800  0.086300  1.0
  O  O84  1  0.122200  0.173800  0.413700  1.0
  O  O85  1  0.904700  0.210300  0.901700  1.0
  O  O86  1  0.095300  0.710300  0.598300  1.0
  O  O87  1  0.095300  0.789700  0.098300  1.0
  O  O88  1  0.904700  0.289700  0.401700  1.0
  O  O89  1  0.167800  0.196800  0.814300  1.0
  O  O90  1  0.832200  0.696800  0.685700  1.0
  O  O91  1  0.832200  0.803200  0.185700  1.0
  O  O92  1  0.167800  0.303200  0.314300  1.0
  O  O93  1  0.892700  0.213000  0.732700  1.0
  O  O94  1  0.107300  0.713000  0.767300  1.0
  O  O95  1  0.107300  0.787000  0.267300  1.0
  O  O96  1  0.892700  0.287000  0.232700  1.0
  O  O97  1  0.810100  0.349600  0.805800  1.0
  O  O98  1  0.189900  0.849600  0.694200  1.0
  O  O99  1  0.189900  0.650400  0.194200  1.0
  O  O100  1  0.810100  0.150400  0.305800  1.0
