# generated using pymatgen
data_Co2Si4H178C116N4O13
_symmetry_space_group_name_H-M   'P 1'
_cell_length_a   17.87110000
_cell_length_b   19.05614634
_cell_length_c   22.02474298
_cell_angle_alpha   77.96858597
_cell_angle_beta   66.06468170
_cell_angle_gamma   62.03666454
_symmetry_Int_Tables_number   1
_chemical_formula_structural   Co2Si4H178C116N4O13
_chemical_formula_sum   'Co4 Si8 H356 C232 N8 O26'
_cell_volume   6053.65119719
_cell_formula_units_Z   2
loop_
 _symmetry_equiv_pos_site_id
 _symmetry_equiv_pos_as_xyz
  1  'x, y, z'
loop_
 _atom_site_type_symbol
 _atom_site_label
 _atom_site_symmetry_multiplicity
 _atom_site_fract_x
 _atom_site_fract_y
 _atom_site_fract_z
 _atom_site_occupancy
  C  C1  1  0.539300  0.489200  0.320200  1
  C  C2  1  0.348700  0.010800  0.179800  1
  C  C3  1  0.460700  0.510800  0.679800  1
  C  C4  1  0.651300  0.989200  0.820200  1
  C  C5  1  0.579600  0.530100  0.275300  1
  C  C6  1  0.385000  0.969900  0.224700  1
  C  C7  1  0.420400  0.469900  0.724700  1
  C  C8  1  0.615000  0.030100  0.775300  1
  C  C9  1  0.724200  0.541800  0.220400  1
  C  C10  1  0.486400  0.958200  0.279600  1
  C  C11  1  0.275800  0.458200  0.779600  1
  C  C12  1  0.513600  0.041800  0.720400  1
  C  C13  1  0.810400  0.515900  0.218500  1
  C  C14  1  0.544800  0.984100  0.281500  1
  C  C15  1  0.189600  0.484100  0.781500  1
  C  C16  1  0.455200  0.015900  0.718500  1
  C  C17  1  0.402600  0.798900  0.405100  1
  C  C18  1  0.606600  0.701100  0.094900  1
  C  C19  1  0.597400  0.201100  0.594900  1
  C  C20  1  0.393400  0.298900  0.905100  1
  C  C21  1  0.351600  0.839000  0.468400  1
  C  C22  1  0.659000  0.661000  0.031600  1
  C  C23  1  0.648400  0.161000  0.531600  1
  C  C24  1  0.341000  0.339000  0.968400  1
  C  C25  1  0.211500  0.873500  0.559100  1
  C  C26  1  0.644100  0.626500  0.940900  1
  C  C27  1  0.788500  0.126500  0.440900  1
  C  C28  1  0.355900  0.373500  0.059100  1
  C  C29  1  0.125500  0.867900  0.592700  1
  C  C30  1  0.586100  0.632100  0.907300  1
  C  C31  1  0.874500  0.132100  0.407300  1
  C  C32  1  0.413900  0.367900  0.092700  1
  C  C33  1  0.795400  0.648600  0.543000  1.0
  C  C34  1  0.987000  0.851400  0.957000  1.0
  C  C35  1  0.204600  0.351400  0.457000  1.0
  C  C36  1  0.013000  0.148600  0.043000  1.0
  C  C37  1  0.720700  0.724000  0.542400  1.0
  C  C38  1  0.987100  0.776000  0.957600  1.0
  C  C39  1  0.279300  0.276000  0.457600  1.0
  C  C40  1  0.012900  0.224000  0.042400  1.0
  C  C41  1  0.732100  0.781800  0.492400  1.0
  C  C42  1  0.006300  0.718200  0.007600  1.0
  C  C43  1  0.267900  0.218200  0.507600  1.0
  C  C44  1  0.993700  0.281800  0.992400  1.0
  C  C45  1  0.818100  0.760900  0.445100  1.0
  C  C46  1  0.024100  0.739100  0.054900  1.0
  C  C47  1  0.181900  0.239100  0.554900  1.0
  C  C48  1  0.975900  0.260900  0.945100  1.0
  C  C49  1  0.894100  0.687400  0.444400  1.0
  C  C50  1  0.025900  0.812600  0.055600  1.0
  C  C51  1  0.105900  0.312600  0.555600  1.0
  C  C52  1  0.974100  0.187400  0.944400  1.0
  C  C53  1  0.881400  0.632500  0.493700  1.0
  C  C54  1  0.007600  0.867500  0.006300  1.0
  C  C55  1  0.118600  0.367500  0.506300  1.0
  C  C56  1  0.992400  0.132500  0.993700  1.0
  C  C57  1  0.649700  0.861400  0.490200  1.0
  C  C58  1  0.001300  0.638600  0.009800  1.0
  C  C59  1  0.350300  0.138600  0.509800  1.0
  C  C60  1  0.998700  0.361400  0.990200  1.0
  C  C61  1  0.579600  0.844300  0.478300  1.0
  C  C62  1  0.902200  0.655700  0.021700  1.0
  C  C63  1  0.420400  0.155700  0.521700  1.0
  C  C64  1  0.097800  0.344300  0.978300  1.0
  C  C65  1  0.606500  0.905500  0.554300  1.0
  C  C66  1  0.066300  0.594500  0.945700  1.0
  C  C67  1  0.393500  0.094500  0.445700  1.0
  C  C68  1  0.933700  0.405500  0.054300  1.0
  C  C69  1  0.679000  0.915000  0.432800  1.0
  C  C70  1  0.026800  0.585000  0.067200  1.0
  C  C71  1  0.321000  0.085000  0.567200  1.0
  C  C72  1  0.973200  0.415000  0.932800  1.0
  C  C73  1  0.985600  0.673200  0.389400  1.0
  C  C74  1  0.048200  0.826800  0.110600  1.0
  C  C75  1  0.014400  0.326800  0.610600  1.0
  C  C76  1  0.951800  0.173200  0.889400  1.0
  C  C77  1  0.977200  0.678900  0.322500  1.0
  C  C78  1  0.978600  0.821100  0.177500  1.0
  C  C79  1  0.022800  0.321100  0.677500  1.0
  C  C80  1  0.021400  0.178900  0.822500  1.0
  C  C81  1  0.060200  0.590800  0.395600  1.0
  C  C82  1  0.046600  0.909200  0.104400  1.0
  C  C83  1  0.939800  0.409200  0.604400  1.0
  C  C84  1  0.953400  0.090800  0.895600  1.0
  C  C85  1  0.014600  0.735400  0.391800  1.0
  C  C86  1  0.141800  0.764600  0.108200  1.0
  C  C87  1  0.985400  0.264600  0.608200  1.0
  C  C88  1  0.858200  0.235400  0.891800  1.0
  C  C89  1  0.520400  0.635000  0.753400  1.0
  C  C90  1  0.908800  0.865000  0.746600  1.0
  C  C91  1  0.479600  0.365000  0.246600  1.0
  C  C92  1  0.091200  0.135000  0.253400  1.0
  C  C93  1  0.593900  0.560100  0.750300  1.0
  C  C94  1  0.904300  0.939900  0.749700  1.0
  C  C95  1  0.406100  0.439900  0.249700  1.0
  C  C96  1  0.095700  0.060100  0.250300  1.0
  C  C97  1  0.582400  0.502000  0.798600  1.0
  C  C98  1  0.883000  0.998000  0.701400  1.0
  C  C99  1  0.417600  0.498000  0.201400  1.0
  C  C100  1  0.117000  0.002000  0.298600  1.0
  C  C101  1  0.497900  0.523500  0.850700  1.0
  C  C102  1  0.872100  0.976500  0.649300  1.0
  C  C103  1  0.502100  0.476500  0.149300  1.0
  C  C104  1  0.127900  0.023500  0.350700  1.0
  C  C105  1  0.426500  0.598400  0.855400  1.0
  C  C106  1  0.880300  0.901600  0.644600  1.0
  C  C107  1  0.573500  0.401600  0.144600  1.0
  C  C108  1  0.119700  0.098400  0.355400  1.0
  C  C109  1  0.437500  0.653800  0.806000  1.0
  C  C110  1  0.897300  0.846200  0.694000  1.0
  C  C111  1  0.562500  0.346200  0.194000  1.0
  C  C112  1  0.102700  0.153800  0.306000  1.0
  C  C113  1  0.658200  0.418500  0.796100  1.0
  C  C114  1  0.872800  0.081500  0.703900  1.0
  C  C115  1  0.341800  0.581500  0.203900  1.0
  C  C116  1  0.127200  0.918500  0.296100  1.0
  C  C117  1  0.739000  0.425300  0.800900  1.0
  C  C118  1  0.965200  0.074700  0.699100  1.0
  C  C119  1  0.261000  0.574700  0.199100  1.0
  C  C120  1  0.034800  0.925300  0.300900  1.0
  C  C121  1  0.689900  0.381200  0.731200  1.0
  C  C122  1  0.802300  0.118800  0.768800  1.0
  C  C123  1  0.310100  0.618800  0.268800  1.0
  C  C124  1  0.197700  0.881200  0.231200  1.0
  C  C125  1  0.632800  0.362900  0.852700  1.0
  C  C126  1  0.848400  0.137100  0.647300  1.0
  C  C127  1  0.367200  0.637100  0.147300  1.0
  C  C128  1  0.151600  0.862900  0.352700  1.0
  C  C129  1  0.338300  0.620000  0.914800  1.0
  C  C130  1  0.873100  0.880000  0.585200  1.0
  C  C131  1  0.661700  0.380000  0.085200  1.0
  C  C132  1  0.126900  0.120000  0.414800  1.0
  C  C133  1  0.356500  0.613900  0.976900  1.0
  C  C134  1  0.947300  0.886100  0.523100  1.0
  C  C135  1  0.643500  0.386100  0.023100  1.0
  C  C136  1  0.052700  0.113900  0.476900  1.0
  C  C137  1  0.305300  0.555200  0.927000  1.0
  C  C138  1  0.787500  0.944800  0.573000  1.0
  C  C139  1  0.694700  0.444800  0.073000  1.0
  C  C140  1  0.212500  0.055200  0.427000  1.0
  C  C141  1  0.263200  0.695900  0.909300  1.0
  C  C142  1  0.868400  0.804100  0.590700  1.0
  C  C143  1  0.736800  0.304100  0.090700  1.0
  C  C144  1  0.131600  0.195900  0.409300  1.0
  C  C145  1  0.764600  0.638200  0.717000  1.0
  C  C146  1  0.119800  0.861800  0.783000  1.0
  C  C147  1  0.235400  0.361800  0.283000  1.0
  C  C148  1  0.880200  0.138200  0.217000  1.0
  C  C149  1  0.794700  0.665500  0.752700  1.0
  C  C150  1  0.212900  0.834500  0.747300  1.0
  C  C151  1  0.205300  0.334500  0.247300  1.0
  C  C152  1  0.787100  0.165500  0.252700  1.0
  C  C153  1  0.741100  0.744600  0.772600  1.0
  C  C154  1  0.258300  0.755400  0.727400  1.0
  C  C155  1  0.258900  0.255400  0.227400  1.0
  C  C156  1  0.741700  0.244600  0.272600  1.0
  C  C157  1  0.664700  0.790900  0.756500  1.0
  C  C158  1  0.212100  0.709100  0.743500  1.0
  C  C159  1  0.335300  0.209100  0.243500  1.0
  C  C160  1  0.787900  0.290900  0.256500  1.0
  C  C161  1  0.641100  0.757700  0.721100  1.0
  C  C162  1  0.119900  0.742300  0.778900  1.0
  C  C163  1  0.358900  0.242300  0.278900  1.0
  C  C164  1  0.880100  0.257700  0.221100  1.0
  C  C165  1  0.907800  0.495700  0.786700  1.0
  C  C166  1  0.190200  0.004300  0.713300  1.0
  C  C167  1  0.092200  0.504300  0.213300  1.0
  C  C168  1  0.809800  0.995700  0.286700  1.0
  C  C169  1  0.897000  0.633700  0.843700  1.0
  C  C170  1  0.374400  0.866300  0.656300  1.0
  C  C171  1  0.103000  0.366300  0.156300  1.0
  C  C172  1  0.625600  0.133700  0.343700  1.0
  C  C173  1  0.001000  0.598200  0.697200  1.0
  C  C174  1  0.296400  0.901800  0.802800  1.0
  C  C175  1  0.999000  0.401800  0.302800  1.0
  C  C176  1  0.703600  0.098200  0.197200  1.0
  C  C177  1  0.043600  0.642200  0.696000  1.0
  C  C178  1  0.381800  0.857800  0.804000  1.0
  C  C179  1  0.956400  0.357800  0.304000  1.0
  C  C180  1  0.618200  0.142200  0.196000  1.0
  C  C181  1  0.118800  0.642100  0.642700  1.0
  C  C182  1  0.403600  0.857900  0.857300  1.0
  C  C183  1  0.881200  0.357900  0.357300  1.0
  C  C184  1  0.596400  0.142100  0.142700  1.0
  C  C185  1  0.157700  0.598000  0.587400  1.0
  C  C186  1  0.343100  0.902000  0.912600  1.0
  C  C187  1  0.842300  0.402000  0.412600  1.0
  C  C188  1  0.656900  0.098000  0.087400  1.0
  C  C189  1  0.111800  0.555500  0.588300  1.0
  C  C190  1  0.255600  0.944500  0.911700  1.0
  C  C191  1  0.888200  0.444500  0.411700  1.0
  C  C192  1  0.744400  0.055500  0.088300  1.0
  C  C193  1  0.036900  0.556300  0.641700  1.0
  C  C194  1  0.234900  0.943700  0.858300  1.0
  C  C195  1  0.963100  0.443700  0.358300  1.0
  C  C196  1  0.765100  0.056300  0.141700  1.0
  C  C197  1  0.223800  0.669600  0.449200  1.0
  C  C198  1  0.342600  0.830400  0.050800  1.0
  C  C199  1  0.776200  0.330400  0.550800  1.0
  C  C200  1  0.657400  0.169600  0.949200  1.0
  C  C201  1  0.322400  0.630000  0.544800  1.0
  C  C202  1  0.497200  0.870000  0.955200  1.0
  C  C203  1  0.677600  0.370000  0.455200  1.0
  C  C204  1  0.502800  0.130000  0.044800  1.0
  C  C205  1  0.679000  0.530600  0.564600  1.0
  C  C206  1  0.774200  0.969400  0.935400  1.0
  C  C207  1  0.321000  0.469400  0.435400  1.0
  C  C208  1  0.225800  0.030600  0.064600  1.0
  C  C209  1  0.334000  0.498700  0.482300  1.0
  C  C210  1  0.315000  0.001300  0.017700  1.0
  C  C211  1  0.666000  0.501300  0.517700  1.0
  C  C212  1  0.685000  0.998700  0.982300  1.0
  C  C213  1  0.406500  0.446000  0.501800  1.0
  C  C214  1  0.354300  0.054000  0.998200  1.0
  C  C215  1  0.593500  0.554000  0.498200  1.0
  C  C216  1  0.645700  0.946000  0.001800  1.0
  C  C217  1  0.461100  0.373000  0.475400  1.0
  C  C218  1  0.309500  0.127000  0.024600  1.0
  C  C219  1  0.538900  0.627000  0.524600  1.0
  C  C220  1  0.690500  0.873000  0.975400  1.0
  C  C221  1  0.555400  0.651300  0.569900  1.0
  C  C222  1  0.776600  0.848700  0.930100  1.0
  C  C223  1  0.444600  0.348700  0.430100  1.0
  C  C224  1  0.223400  0.151300  0.069900  1.0
  C  C225  1  0.710800  0.657800  0.356600  1.0
  C  C226  1  0.725200  0.842200  0.143400  1.0
  C  C227  1  0.289200  0.342200  0.643400  1.0
  C  C228  1  0.274800  0.157800  0.856600  1.0
  C  C229  1  0.749400  0.704800  0.303200  1.0
  C  C230  1  0.757400  0.795200  0.196800  1.0
  C  C231  1  0.250600  0.295200  0.696800  1.0
  C  C232  1  0.242600  0.204800  0.803200  1.0
  Co  Co233  1  0.656980  0.642130  0.647010  1.0
  Co  Co234  1  0.946120  0.857870  0.852990  1.0
  Co  Co235  1  0.343020  0.357870  0.352990  1.0
  Co  Co236  1  0.053880  0.142130  0.147010  1.0
  H  H237  1  0.478100  0.507400  0.320400  1
  H  H238  1  0.305900  0.992600  0.179600  1
  H  H239  1  0.521900  0.492600  0.679600  1
  H  H240  1  0.694100  0.007400  0.820400  1
  H  H241  1  0.535800  0.496600  0.364200  1
  H  H242  1  0.396600  0.003400  0.135800  1
  H  H243  1  0.464200  0.503400  0.635800  1
  H  H244  1  0.603400  0.996600  0.864200  1
  H  H245  1  0.574300  0.432600  0.309600  1
  H  H246  1  0.316500  0.067400  0.190400  1
  H  H247  1  0.425700  0.567400  0.690400  1
  H  H248  1  0.683500  0.932600  0.809600  1
  H  H249  1  0.545600  0.586800  0.287200  1
  H  H250  1  0.419600  0.913200  0.212800  1
  H  H251  1  0.454400  0.413200  0.712800  1
  H  H252  1  0.580400  0.086800  0.787200  1
  H  H253  1  0.578600  0.525800  0.231600  1
  H  H254  1  0.336000  0.974200  0.268400  1
  H  H255  1  0.421400  0.474200  0.768400  1
  H  H256  1  0.664000  0.025800  0.731600  1
  H  H257  1  0.727500  0.534600  0.176000  1
  H  H258  1  0.438100  0.965400  0.324000  1
  H  H259  1  0.272500  0.465400  0.824000  1
  H  H260  1  0.561900  0.034600  0.676000  1
  H  H261  1  0.691600  0.599700  0.228700  1
  H  H262  1  0.520000  0.900300  0.271300  1
  H  H263  1  0.308400  0.400300  0.771300  1
  H  H264  1  0.480000  0.099700  0.728700  1
  H  H265  1  0.841600  0.543100  0.181900  1
  H  H266  1  0.566600  0.956900  0.318100  1
  H  H267  1  0.158400  0.456900  0.818100  1
  H  H268  1  0.433400  0.043100  0.681900  1
  H  H269  1  0.843200  0.458600  0.211600  1
  H  H270  1  0.513400  0.041400  0.288400  1
  H  H271  1  0.156800  0.541400  0.788400  1
  H  H272  1  0.486600  0.958600  0.711600  1
  H  H273  1  0.808300  0.527600  0.260600  1
  H  H274  1  0.596500  0.972400  0.239400  1
  H  H275  1  0.191700  0.472400  0.739400  1
  H  H276  1  0.403500  0.027600  0.760600  1
  H  H277  1  0.462700  0.798500  0.386500  1
  H  H278  1  0.647700  0.701500  0.113500  1
  H  H279  1  0.537300  0.201500  0.613500  1
  H  H280  1  0.352300  0.298500  0.886500  1
  H  H281  1  0.370100  0.827100  0.374300  1
  H  H282  1  0.571500  0.672900  0.125700  1
  H  H283  1  0.629900  0.172900  0.625700  1
  H  H284  1  0.428500  0.327100  0.874300  1
  H  H285  1  0.409100  0.744000  0.412000  1
  H  H286  1  0.565100  0.756000  0.088000  1
  H  H287  1  0.590900  0.256000  0.588000  1
  H  H288  1  0.434900  0.244000  0.912000  1
  H  H289  1  0.387500  0.811500  0.497700  1
  H  H290  1  0.696700  0.688500  0.002300  1
  H  H291  1  0.612500  0.188500  0.502300  1
  H  H292  1  0.303300  0.311500  0.997700  1
  H  H293  1  0.346800  0.893800  0.460400  1
  H  H294  1  0.701000  0.606200  0.039600  1
  H  H295  1  0.653200  0.106200  0.539600  1
  H  H296  1  0.299000  0.393800  0.960400  1
  H  H297  1  0.197100  0.930900  0.554700  1
  H  H298  1  0.682700  0.569100  0.945300  1
  H  H299  1  0.802900  0.069100  0.445300  1
  H  H300  1  0.317300  0.430900  0.054700  1
  H  H301  1  0.245500  0.849900  0.589700  1
  H  H302  1  0.685100  0.650100  0.910300  1
  H  H303  1  0.754500  0.150100  0.410300  1
  H  H304  1  0.314900  0.349900  0.089700  1
  H  H305  1  0.094800  0.893000  0.636000  1
  H  H306  1  0.623800  0.607000  0.864000  1
  H  H307  1  0.905200  0.107000  0.364000  1
  H  H308  1  0.376200  0.393000  0.136000  1
  H  H309  1  0.136700  0.811900  0.598900  1
  H  H310  1  0.547500  0.688100  0.901100  1
  H  H311  1  0.863300  0.188100  0.401100  1
  H  H312  1  0.452500  0.311900  0.098900  1
  H  H313  1  0.087200  0.895100  0.565700  1
  H  H314  1  0.548000  0.604900  0.934300  1
  H  H315  1  0.912800  0.104900  0.434300  1
  H  H316  1  0.452000  0.395100  0.065700  1
  H  H317  1  0.826900  0.798600  0.410400  1.0
  H  H318  1  0.035900  0.701400  0.089600  1.0
  H  H319  1  0.173100  0.201400  0.589600  1.0
  H  H320  1  0.964100  0.298600  0.910400  1.0
  H  H321  1  0.931300  0.583000  0.494600  1.0
  H  H322  1  0.008900  0.917000  0.005400  1.0
  H  H323  1  0.068700  0.417000  0.505400  1.0
  H  H324  1  0.991100  0.083000  0.994600  1.0
  H  H325  1  0.559300  0.810100  0.514500  1.0
  H  H326  1  0.883900  0.689900  0.985500  1.0
  H  H327  1  0.440700  0.189900  0.485500  1.0
  H  H328  1  0.116100  0.310100  0.014500  1.0
  H  H329  1  0.608000  0.817500  0.435900  1.0
  H  H330  1  0.861400  0.682500  0.064100  1.0
  H  H331  1  0.392000  0.182500  0.564100  1.0
  H  H332  1  0.138600  0.317500  0.935900  1.0
  H  H333  1  0.527500  0.894500  0.476900  1.0
  H  H334  1  0.898900  0.605500  0.023100  1.0
  H  H335  1  0.472500  0.105500  0.523100  1.0
  H  H336  1  0.101100  0.394500  0.976900  1.0
  H  H337  1  0.651600  0.915300  0.561300  1.0
  H  H338  1  0.128200  0.584700  0.938700  1.0
  H  H339  1  0.348400  0.084700  0.438700  1.0
  H  H340  1  0.871800  0.415300  0.061300  1.0
  H  H341  1  0.584000  0.873600  0.591600  1.0
  H  H342  1  0.049200  0.626400  0.908400  1.0
  H  H343  1  0.416000  0.126400  0.408400  1.0
  H  H344  1  0.950800  0.373600  0.091600  1.0
  H  H345  1  0.555900  0.956500  0.551500  1.0
  H  H346  1  0.063900  0.543500  0.948500  1.0
  H  H347  1  0.444100  0.043500  0.448500  1.0
  H  H348  1  0.936100  0.456500  0.051500  1.0
  H  H349  1  0.723800  0.926200  0.438600  1.0
  H  H350  1  0.088600  0.573800  0.061400  1.0
  H  H351  1  0.276200  0.073800  0.561400  1.0
  H  H352  1  0.911400  0.426200  0.938600  1.0
  H  H353  1  0.626000  0.964900  0.432300  1.0
  H  H354  1  0.023200  0.535100  0.067700  1.0
  H  H355  1  0.374000  0.035100  0.567700  1.0
  H  H356  1  0.976800  0.464900  0.932300  1.0
  H  H357  1  0.705800  0.888200  0.390600  1.0
  H  H358  1  0.984600  0.611800  0.109400  1.0
  H  H359  1  0.294200  0.111800  0.609400  1.0
  H  H360  1  0.015400  0.388200  0.890600  1.0
  H  H361  1  0.958700  0.638700  0.320700  1.0
  H  H362  1  0.918100  0.861300  0.179300  1.0
  H  H363  1  0.041300  0.361300  0.679300  1.0
  H  H364  1  0.081900  0.138700  0.820700  1.0
  H  H365  1  0.035800  0.669900  0.287100  1.0
  H  H366  1  0.992800  0.830100  0.212900  1.0
  H  H367  1  0.964200  0.330100  0.712900  1.0
  H  H368  1  0.007200  0.169900  0.787100  1.0
  H  H369  1  0.931600  0.731900  0.316500  1.0
  H  H370  1  0.980000  0.768100  0.183500  1.0
  H  H371  1  0.068400  0.268100  0.683500  1.0
  H  H372  1  0.020000  0.231900  0.816500  1.0
  H  H373  1  0.042300  0.549800  0.394800  1.0
  H  H374  1  0.986900  0.950200  0.105200  1.0
  H  H375  1  0.957700  0.450200  0.605200  1.0
  H  H376  1  0.013100  0.049800  0.894800  1.0
  H  H377  1  0.069000  0.586600  0.437600  1.0
  H  H378  1  0.093200  0.913400  0.062400  1.0
  H  H379  1  0.931000  0.413400  0.562400  1.0
  H  H380  1  0.906800  0.086600  0.937600  1.0
  H  H381  1  0.117000  0.583600  0.358400  1.0
  H  H382  1  0.059000  0.916400  0.141600  1.0
  H  H383  1  0.883000  0.416400  0.641600  1.0
  H  H384  1  0.941000  0.083600  0.858400  1.0
  H  H385  1  0.967900  0.788500  0.387500  1.0
  H  H386  1  0.143900  0.711500  0.112500  1.0
  H  H387  1  0.032100  0.211500  0.612500  1.0
  H  H388  1  0.856100  0.288500  0.887500  1.0
  H  H389  1  0.071900  0.727600  0.355200  1.0
  H  H390  1  0.154700  0.772400  0.144800  1.0
  H  H391  1  0.928100  0.272400  0.644800  1.0
  H  H392  1  0.845300  0.227600  0.855200  1.0
  H  H393  1  0.022400  0.730500  0.434300  1.0
  H  H394  1  0.187200  0.769500  0.065700  1.0
  H  H395  1  0.977600  0.269500  0.565700  1.0
  H  H396  1  0.812800  0.230500  0.934300  1.0
  H  H397  1  0.489200  0.484800  0.884400  1.0
  H  H398  1  0.858400  0.015200  0.615600  1.0
  H  H399  1  0.510800  0.515200  0.115600  1.0
  H  H400  1  0.141600  0.984800  0.384400  1.0
  H  H401  1  0.388700  0.705000  0.807600  1.0
  H  H402  1  0.901300  0.795000  0.692400  1.0
  H  H403  1  0.611300  0.295000  0.192400  1.0
  H  H404  1  0.098700  0.205000  0.307600  1.0
  H  H405  1  0.788800  0.372400  0.798800  1.0
  H  H406  1  0.960000  0.127600  0.701200  1.0
  H  H407  1  0.211200  0.627600  0.201200  1.0
  H  H408  1  0.040000  0.872400  0.298800  1.0
  H  H409  1  0.719400  0.449600  0.843000  1.0
  H  H410  1  0.012000  0.050400  0.657000  1.0
  H  H411  1  0.280600  0.550400  0.157000  1.0
  H  H412  1  0.988000  0.949600  0.343000  1.0
  H  H413  1  0.759600  0.458400  0.763800  1.0
  H  H414  1  0.981800  0.041600  0.736200  1.0
  H  H415  1  0.240400  0.541600  0.236200  1.0
  H  H416  1  0.018200  0.958400  0.263800  1.0
  H  H417  1  0.639600  0.376600  0.727400  1.0
  H  H418  1  0.743600  0.123400  0.772600  1.0
  H  H419  1  0.360400  0.623400  0.272600  1.0
  H  H420  1  0.256400  0.876600  0.227400  1.0
  H  H421  1  0.739800  0.328300  0.729500  1.0
  H  H422  1  0.797600  0.171700  0.770500  1.0
  H  H423  1  0.260200  0.671700  0.270500  1.0
  H  H424  1  0.202400  0.828300  0.229500  1.0
  H  H425  1  0.710800  0.414500  0.694500  1.0
  H  H426  1  0.819800  0.085500  0.805500  1.0
  H  H427  1  0.289200  0.585500  0.305500  1.0
  H  H428  1  0.180200  0.914500  0.194500  1.0
  H  H429  1  0.582700  0.356000  0.851000  1.0
  H  H430  1  0.789700  0.144000  0.649000  1.0
  H  H431  1  0.417300  0.644000  0.149000  1.0
  H  H432  1  0.210300  0.856000  0.351000  1.0
  H  H433  1  0.614100  0.385700  0.895300  1.0
  H  H434  1  0.895100  0.114300  0.604700  1.0
  H  H435  1  0.385900  0.614300  0.104700  1.0
  H  H436  1  0.104900  0.885700  0.395300  1.0
  H  H437  1  0.685400  0.311100  0.848300  1.0
  H  H438  1  0.844800  0.188900  0.651700  1.0
  H  H439  1  0.314600  0.688900  0.151700  1.0
  H  H440  1  0.155200  0.811100  0.348300  1.0
  H  H441  1  0.377800  0.653500  0.974900  1.0
  H  H442  1  0.006200  0.846500  0.525100  1.0
  H  H443  1  0.622200  0.346500  0.025100  1.0
  H  H444  1  0.993800  0.153500  0.474900  1.0
  H  H445  1  0.403000  0.560500  0.980900  1.0
  H  H446  1  0.944400  0.939500  0.519100  1.0
  H  H447  1  0.597000  0.439500  0.019100  1.0
  H  H448  1  0.055600  0.060500  0.480900  1.0
  H  H449  1  0.300600  0.623400  0.015600  1.0
  H  H450  1  0.939600  0.876600  0.484400  1.0
  H  H451  1  0.699400  0.376600  0.984400  1.0
  H  H452  1  0.060400  0.123400  0.515600  1.0
  H  H453  1  0.353600  0.503400  0.931400  1.0
  H  H454  1  0.788400  0.996600  0.568600  1.0
  H  H455  1  0.646400  0.496600  0.068600  1.0
  H  H456  1  0.211600  0.003400  0.431400  1.0
  H  H457  1  0.289600  0.554600  0.889400  1.0
  H  H458  1  0.733600  0.945400  0.610600  1.0
  H  H459  1  0.710400  0.445400  0.110600  1.0
  H  H460  1  0.266400  0.054600  0.389400  1.0
  H  H461  1  0.251800  0.566200  0.967800  1.0
  H  H462  1  0.785800  0.933800  0.532200  1.0
  H  H463  1  0.748200  0.433800  0.032200  1.0
  H  H464  1  0.214200  0.066200  0.467800  1.0
  H  H465  1  0.281800  0.738800  0.901000  1.0
  H  H466  1  0.921600  0.761200  0.599000  1.0
  H  H467  1  0.718200  0.261200  0.099000  1.0
  H  H468  1  0.078400  0.238800  0.401000  1.0
  H  H469  1  0.210800  0.705400  0.950800  1.0
  H  H470  1  0.867000  0.794600  0.549200  1.0
  H  H471  1  0.789200  0.294600  0.049200  1.0
  H  H472  1  0.133000  0.205400  0.450800  1.0
  H  H473  1  0.246700  0.694100  0.872500  1.0
  H  H474  1  0.813300  0.805900  0.627500  1.0
  H  H475  1  0.753300  0.305900  0.127500  1.0
  H  H476  1  0.186700  0.194100  0.372500  1.0
  H  H477  1  0.798700  0.584800  0.702800  1.0
  H  H478  1  0.086300  0.915200  0.797200  1.0
  H  H479  1  0.201300  0.415200  0.297200  1.0
  H  H480  1  0.913700  0.084800  0.202800  1.0
  H  H481  1  0.757600  0.766700  0.797300  1.0
  H  H482  1  0.321600  0.733300  0.702700  1.0
  H  H483  1  0.242400  0.233300  0.202700  1.0
  H  H484  1  0.678400  0.266700  0.297300  1.0
  H  H485  1  0.629000  0.844600  0.769600  1.0
  H  H486  1  0.243200  0.655400  0.730400  1.0
  H  H487  1  0.371000  0.155400  0.230400  1.0
  H  H488  1  0.756800  0.344600  0.269600  1.0
  H  H489  1  0.587800  0.789500  0.710700  1.0
  H  H490  1  0.088000  0.710500  0.789300  1.0
  H  H491  1  0.412200  0.210500  0.289300  1.0
  H  H492  1  0.912000  0.289500  0.210700  1.0
  H  H493  1  0.963000  0.459900  0.796300  1.0
  H  H494  1  0.219200  0.040100  0.703700  1.0
  H  H495  1  0.037000  0.540100  0.203700  1.0
  H  H496  1  0.780800  0.959900  0.296300  1.0
  H  H497  1  0.909700  0.477700  0.747300  1.0
  H  H498  1  0.134700  0.022300  0.752700  1.0
  H  H499  1  0.090300  0.522300  0.252700  1.0
  H  H500  1  0.865300  0.977700  0.247300  1.0
  H  H501  1  0.854700  0.495600  0.824800  1.0
  H  H502  1  0.175100  0.004400  0.675200  1.0
  H  H503  1  0.145300  0.504400  0.175200  1.0
  H  H504  1  0.824900  0.995600  0.324800  1.0
  H  H505  1  0.952200  0.598300  0.853500  1.0
  H  H506  1  0.404000  0.901700  0.646500  1.0
  H  H507  1  0.047800  0.401700  0.146500  1.0
  H  H508  1  0.596000  0.098300  0.353500  1.0
  H  H509  1  0.843800  0.634100  0.882100  1.0
  H  H510  1  0.360000  0.865900  0.617900  1.0
  H  H511  1  0.156200  0.365900  0.117900  1.0
  H  H512  1  0.640000  0.134100  0.382100  1.0
  H  H513  1  0.893100  0.687600  0.834400  1.0
  H  H514  1  0.415100  0.812400  0.665600  1.0
  H  H515  1  0.106900  0.312400  0.165600  1.0
  H  H516  1  0.584900  0.187600  0.334400  1.0
  H  H517  1  0.020600  0.674200  0.733000  1.0
  H  H518  1  0.427800  0.825800  0.767000  1.0
  H  H519  1  0.979400  0.325800  0.267000  1.0
  H  H520  1  0.572200  0.174200  0.233000  1.0
  H  H521  1  0.145100  0.674600  0.644600  1.0
  H  H522  1  0.464300  0.825400  0.855400  1.0
  H  H523  1  0.854900  0.325400  0.355400  1.0
  H  H524  1  0.535700  0.174600  0.144600  1.0
  H  H525  1  0.132900  0.525000  0.550800  1.0
  H  H526  1  0.208700  0.975000  0.949200  1.0
  H  H527  1  0.867100  0.475000  0.449200  1.0
  H  H528  1  0.791300  0.025000  0.050800  1.0
  H  H529  1  0.008500  0.525900  0.639500  1.0
  H  H530  1  0.173900  0.974100  0.860500  1.0
  H  H531  1  0.991500  0.474100  0.360500  1.0
  H  H532  1  0.826100  0.025900  0.139500  1.0
  H  H533  1  0.189800  0.653000  0.434400  1.0
  H  H534  1  0.277200  0.847000  0.065600  1.0
  H  H535  1  0.810200  0.347000  0.565600  1.0
  H  H536  1  0.722800  0.153000  0.934400  1.0
  H  H537  1  0.185400  0.723700  0.466300  1.0
  H  H538  1  0.375400  0.776300  0.033700  1.0
  H  H539  1  0.814600  0.276300  0.533700  1.0
  H  H540  1  0.624600  0.223700  0.966300  1.0
  H  H541  1  0.278000  0.668700  0.411700  1.0
  H  H542  1  0.358400  0.831300  0.088300  1.0
  H  H543  1  0.722000  0.331300  0.588300  1.0
  H  H544  1  0.641600  0.168700  0.911700  1.0
  H  H545  1  0.339100  0.593300  0.580500  1.0
  H  H546  1  0.512900  0.906700  0.919500  1.0
  H  H547  1  0.660900  0.406700  0.419500  1.0
  H  H548  1  0.487100  0.093300  0.080500  1.0
  H  H549  1  0.377400  0.628100  0.507900  1.0
  H  H550  1  0.513400  0.871900  0.992100  1.0
  H  H551  1  0.622600  0.371900  0.492100  1.0
  H  H552  1  0.486600  0.128100  0.007900  1.0
  H  H553  1  0.284900  0.684200  0.561600  1.0
  H  H554  1  0.530700  0.815800  0.938400  1.0
  H  H555  1  0.715100  0.315800  0.438400  1.0
  H  H556  1  0.469300  0.184200  0.061600  1.0
  H  H557  1  0.728100  0.496400  0.579200  1.0
  H  H558  1  0.803700  0.003600  0.920800  1.0
  H  H559  1  0.271900  0.503600  0.420800  1.0
  H  H560  1  0.196300  0.996400  0.079200  1.0
  H  H561  1  0.418000  0.461400  0.534200  1.0
  H  H562  1  0.413600  0.038600  0.965800  1.0
  H  H563  1  0.582000  0.538600  0.465800  1.0
  H  H564  1  0.586400  0.961400  0.034200  1.0
  H  H565  1  0.511400  0.338200  0.488600  1.0
  H  H566  1  0.338200  0.161800  0.011400  1.0
  H  H567  1  0.488600  0.661800  0.511400  1.0
  H  H568  1  0.661800  0.838200  0.988600  1.0
  H  H569  1  0.516300  0.702500  0.588100  1.0
  H  H570  1  0.806900  0.797500  0.911900  1.0
  H  H571  1  0.483700  0.297500  0.411900  1.0
  H  H572  1  0.193100  0.202500  0.088100  1.0
  H  H573  1  0.748900  0.632400  0.384200  1.0
  H  H574  1  0.765500  0.867600  0.115800  1.0
  H  H575  1  0.251100  0.367600  0.615800  1.0
  H  H576  1  0.234500  0.132400  0.884200  1.0
  H  H577  1  0.709300  0.616900  0.337500  1.0
  H  H578  1  0.663700  0.883100  0.162500  1.0
  H  H579  1  0.290700  0.383100  0.662500  1.0
  H  H580  1  0.336300  0.116900  0.837500  1.0
  H  H581  1  0.649500  0.692700  0.384100  1.0
  H  H582  1  0.726300  0.807300  0.115900  1.0
  H  H583  1  0.350500  0.307300  0.615900  1.0
  H  H584  1  0.273700  0.192700  0.884100  1.0
  H  H585  1  0.751500  0.741700  0.327500  1.0
  H  H586  1  0.820700  0.758300  0.172500  1.0
  H  H587  1  0.248500  0.258300  0.672500  1.0
  H  H588  1  0.179300  0.241700  0.827500  1.0
  H  H589  1  0.813300  0.666400  0.282800  1.0
  H  H590  1  0.762500  0.833600  0.217200  1.0
  H  H591  1  0.186700  0.333600  0.717200  1.0
  H  H592  1  0.237500  0.166400  0.782800  1.0
  N  N593  1  0.689400  0.683900  0.701500  1.0
  N  N594  1  0.074800  0.816100  0.798500  1.0
  N  N595  1  0.310600  0.316100  0.298500  1.0
  N  N596  1  0.925200  0.183900  0.201500  1.0
  N  N597  1  0.627400  0.602900  0.589900  1.0
  N  N598  1  0.820200  0.897100  0.910100  1.0
  N  N599  1  0.372600  0.397100  0.410100  1.0
  N  N600  1  0.179800  0.102900  0.089900  1.0
  O  O601  1  0.670000  0.503200  0.270000  1
  O  O602  1  0.443200  0.996800  0.230000  1
  O  O603  1  0.330000  0.496800  0.730000  1
  O  O604  1  0.556800  0.003200  0.770000  1
  O  O605  1  0.266100  0.843700  0.502300  1
  O  O606  1  0.612100  0.656300  0.997700  1
  O  O607  1  0.733900  0.156300  0.497700  1
  O  O608  1  0.387900  0.343700  0.002300  1
  O  O609  1  0.729000  0.750000  0.250000  1
  O  O610  1  0.271000  0.250000  0.750000  1
  O  O611  1  0.779800  0.597700  0.589700  1.0
  O  O612  1  0.967200  0.902300  0.910300  1.0
  O  O613  1  0.220200  0.402300  0.410300  1.0
  O  O614  1  0.032800  0.097700  0.089700  1.0
  O  O615  1  0.643400  0.734100  0.591700  1.0
  O  O616  1  0.969200  0.765900  0.908300  1.0
  O  O617  1  0.356600  0.265900  0.408300  1.0
  O  O618  1  0.030800  0.234100  0.091700  1.0
  O  O619  1  0.535500  0.686700  0.703500  1.0
  O  O620  1  0.925700  0.813300  0.796500  1.0
  O  O621  1  0.464500  0.313300  0.296500  1.0
  O  O622  1  0.074300  0.186700  0.203500  1.0
  O  O623  1  0.671800  0.549300  0.699700  1.0
  O  O624  1  0.920800  0.950700  0.800300  1.0
  O  O625  1  0.328200  0.450700  0.300300  1.0
  O  O626  1  0.079200  0.049300  0.199700  1.0
  Si  Si627  1  0.900490  0.597860  0.770860  1.0
  Si  Si628  1  0.269210  0.902140  0.729140  1.0
  Si  Si629  1  0.099510  0.402140  0.229140  1.0
  Si  Si630  1  0.730790  0.097860  0.270860  1.0
  Si  Si631  1  0.258020  0.601020  0.515720  1.0
  Si  Si632  1  0.374760  0.898980  0.984280  1.0
  Si  Si633  1  0.741980  0.398980  0.484280  1.0
  Si  Si634  1  0.625240  0.101020  0.015720  1.0
