# generated using pymatgen
data_H184Ir6C253S6N25Cl4O19F18
_symmetry_space_group_name_H-M   'P 1'
_cell_length_a   18.25080000
_cell_length_b   19.21600000
_cell_length_c   20.19010000
_cell_angle_alpha   84.80000000
_cell_angle_beta   63.27000000
_cell_angle_gamma   72.87200000
_symmetry_Int_Tables_number   1
_chemical_formula_structural   H184Ir6C253S6N25Cl4O19F18
_chemical_formula_sum   'H184 Ir6 C253 S6 N25 Cl4 O19 F18'
_cell_volume   6036.38891346
_cell_formula_units_Z   1
loop_
 _symmetry_equiv_pos_site_id
 _symmetry_equiv_pos_as_xyz
  1  'x, y, z'
loop_
 _atom_site_type_symbol
 _atom_site_label
 _atom_site_symmetry_multiplicity
 _atom_site_fract_x
 _atom_site_fract_y
 _atom_site_fract_z
 _atom_site_occupancy
  H  H1  1  0.298900  0.276500  0.991800  1
  H  H2  1  0.201700  0.378800  0.073000  1
  H  H3  1  0.112100  0.364100  0.191500  1
  H  H4  1  0.113200  0.245300  0.231700  1
  H  H5  1  0.137200  0.124000  0.264100  1
  H  H6  1  0.156900  0.002800  0.282000  1
  H  H7  1  0.257600  0.923200  0.192200  1
  H  H8  1  0.338600  0.952200  0.072300  1
  H  H9  1  0.160600  0.183700  0.010000  1
  H  H10  1  0.072500  0.147300  0.977500  1
  H  H11  1  0.119600  0.031200  0.915900  1
  H  H12  1  0.255800  0.956400  0.887200  1
  H  H13  1  0.391300  0.892200  0.860300  1
  H  H14  1  0.535500  0.840500  0.824800  1
  H  H15  1  0.602800  0.895700  0.878500  1
  H  H16  1  0.528700  0.002100  0.944000  1
  H  H17  1  0.824000  0.981200  0.668700  1
  H  H18  1  0.827000  0.868300  0.719900  1
  H  H19  1  0.956600  0.770500  0.672000  1
  H  H20  1  0.078900  0.795700  0.574400  1
  H  H21  1  0.190100  0.830700  0.489500  1
  H  H22  1  0.298500  0.880800  0.407900  1
  H  H23  1  0.259600  0.990400  0.354100  1
  H  H24  1  0.126600  0.068100  0.418600  1
  H  H25  1  0.025000  0.794900  0.940200  1
  H  H26  1  0.163600  0.722600  0.894500  1
  H  H27  1  0.259800  0.752000  0.928300  1
  H  H28  1  0.209900  0.850700  0.012200  1
  H  H29  1  0.157400  0.950800  0.084900  1
  H  H30  1  0.093400  0.057000  0.155200  1
  H  H31  1  0.950400  0.123100  0.180800  1
  H  H32  1  0.877100  0.071800  0.141200  1
  H  H33  1  0.910300  0.905200  0.212200  1
  H  H34  1  0.842400  0.841100  0.313700  1
  H  H35  1  0.771600  0.759800  0.303200  1
  H  H36  1  0.766400  0.748600  0.191200  1
  H  H37  1  0.782200  0.734100  0.076700  1
  H  H38  1  0.784800  0.737600  0.962300  1
  H  H39  1  0.824900  0.831900  0.885700  1
  H  H40  1  0.883800  0.907900  0.917400  1
  H  H41  1  0.644300  0.461700  0.217900  1
  H  H42  1  0.759200  0.420600  0.249500  1
  H  H43  1  0.734000  0.353700  0.359800  1
  H  H44  1  0.601300  0.333400  0.428400  1
  H  H45  1  0.478200  0.307000  0.482300  1
  H  H46  1  0.337500  0.296300  0.539000  1
  H  H47  1  0.244100  0.349300  0.482300  1
  H  H48  1  0.287300  0.420100  0.380600  1
  H  H49  1  0.960900  0.478900  0.747500  1
  H  H50  1  0.010700  0.502600  0.624300  1
  H  H51  1  0.156900  0.487400  0.550800  1
  H  H52  1  0.250700  0.440600  0.604800  1
  H  H53  1  0.329000  0.393200  0.664300  1
  H  H54  1  0.402100  0.353900  0.737800  1
  H  H55  1  0.327900  0.335200  0.862100  1
  H  H56  1  0.180100  0.353200  0.915900  1
  H  H57  1  0.020500  0.286900  0.963800  1
  H  H58  1  0.991800  0.265200  0.082700  1
  H  H59  1  0.982200  0.355200  0.159200  1
  H  H60  1  0.984800  0.473900  0.112100  1
  H  H61  1  0.998700  0.576200  0.055900  1
  H  H62  1  0.993300  0.685800  0.995500  1
  H  H63  1  0.007800  0.687000  0.874500  1
  H  H64  1  0.034900  0.580800  0.811400  1
  H  H65  1  0.393500  0.535300  0.890400  1
  H  H66  1  0.250300  0.524400  0.952700  1
  H  H67  1  0.171700  0.542700  0.883100  1
  H  H68  1  0.238300  0.553100  0.756500  1
  H  H69  1  0.319700  0.543400  0.634400  1
  H  H70  1  0.416000  0.530800  0.506800  1
  H  H71  1  0.551300  0.549500  0.468300  1
  H  H72  1  0.600200  0.553000  0.553900  1
  H  H73  1  0.711000  0.487800  0.644100  1
  H  H74  1  0.835700  0.523200  0.578300  1
  H  H75  1  0.830100  0.637400  0.580700  1
  H  H76  1  0.690000  0.732800  0.616400  1
  H  H77  1  0.558000  0.805700  0.662300  1
  H  H78  1  0.418500  0.874100  0.721400  1
  H  H79  1  0.310300  0.822400  0.782000  1
  H  H80  1  0.340700  0.692300  0.789100  1
  H  H81  1  0.737800  0.526300  0.829700  1
  H  H82  1  0.723800  0.478300  0.034100  1
  H  H83  1  0.505200  0.544700  0.005300  1
  H  H84  1  0.472000  0.317800  0.832500  1
  H  H85  1  0.614900  0.113900  0.755800  1
  H  H86  1  0.708100  0.282300  0.657700  1
  H  H87  1  0.621300  0.046800  0.060800  1
  H  H88  1  0.656700  0.184400  0.176800  1
  H  H89  1  0.451800  0.248700  0.129300  1
  H  H90  1  0.987600  0.164100  0.910800  1
  H  H91  1  0.011200  0.215500  0.704000  1
  H  H92  1  0.939400  0.034300  0.793100  1
  H  H93  1  0.512900  0.550300  0.366600  1
  H  H94  1  0.463200  0.672500  0.406300  1
  H  H95  1  0.352300  0.756000  0.383100  1
  H  H96  1  0.277700  0.711100  0.333400  1
  H  H97  1  0.227900  0.666200  0.276400  1
  H  H98  1  0.170400  0.606300  0.226700  1
  H  H99  1  0.238600  0.481200  0.183500  1
  H  H100  1  0.350400  0.419300  0.211500  1
  H  H101  1  0.982400  0.198100  0.538300  1
  H  H102  1  0.893900  0.930500  0.493200  1
  H  H103  1  0.974100  0.298800  0.359000  1
  H  H104  1  0.941400  0.206400  0.332800  1
  H  H105  1  0.004400  0.293800  0.462100  1
  H  H106  1  0.893000  0.110900  0.325300  1
  H  H107  1  0.866900  0.009400  0.308700  1
  H  H108  1  0.850300  0.921100  0.400900  1
  H  H109  1  0.450000  0.031500  0.250500  1
  H  H110  1  0.331800  0.091300  0.228700  1
  H  H111  1  0.259600  0.213800  0.267800  1
  H  H112  1  0.305700  0.276500  0.328800  1
  H  H113  1  0.424000  0.216700  0.350700  1
  H  H114  1  0.496100  0.094200  0.311500  1
  H  H115  1  0.598100  0.923200  0.058200  1
  H  H116  1  0.472500  0.889500  0.095300  1
  H  H117  1  0.406700  0.848800  0.214700  1
  H  H118  1  0.466400  0.841800  0.297000  1
  H  H119  1  0.592000  0.875500  0.259900  1
  H  H120  1  0.657800  0.916200  0.140500  1
  H  H121  1  0.606800  0.184200  0.545300  1
  H  H122  1  0.748900  0.193800  0.476800  1
  H  H123  1  0.778700  0.301300  0.484900  1
  H  H124  1  0.670000  0.405500  0.541500  1
  H  H125  1  0.525700  0.399900  0.604100  1
  H  H126  1  0.497800  0.288600  0.607900  1
  H  H127  1  0.079700  0.495900  0.179600  1
  H  H128  1  0.204100  0.514000  0.082100  1
  H  H129  1  0.205000  0.630200  0.036500  1
  H  H130  1  0.081300  0.728500  0.088400  1
  H  H131  1  0.956800  0.710400  0.186000  1
  H  H132  1  0.956000  0.594100  0.231600  1
  H  H133  1  0.684700  0.652200  0.030700  1
  H  H134  1  0.815200  0.575500  0.021900  1
  H  H135  1  0.833000  0.543800  0.129500  1
  H  H136  1  0.720300  0.588700  0.245900  1
  H  H137  1  0.589700  0.665400  0.254700  1
  H  H138  1  0.572000  0.697100  0.147100  1
  H  H139  1  0.145700  0.973400  0.608400  1
  H  H140  1  0.221200  0.025900  0.655500  1
  H  H141  1  0.209700  0.990900  0.773800  1
  H  H142  1  0.143600  0.916900  0.845400  1
  H  H143  1  0.061000  0.868500  0.802900  1
  H  H144  1  0.094100  0.885100  0.674800  1
  H  H145  1  0.003000  0.443500  0.393500  1
  H  H146  1  0.084200  0.532300  0.336000  1
  H  H147  1  0.056100  0.664700  0.716500  1
  H  H148  1  0.110200  0.631500  0.591000  1
  H  H149  1  0.237700  0.654100  0.503800  1
  H  H150  1  0.311100  0.710000  0.542200  1
  H  H151  1  0.257000  0.743200  0.667700  1
  H  H152  1  0.129500  0.720600  0.754900  1
  H  H153  1  0.474500  0.743100  0.097900  1
  H  H154  1  0.375900  0.676600  0.159500  1
  H  H155  1  0.316800  0.633500  0.095700  1
  H  H156  1  0.356400  0.657000  0.970300  1
  H  H157  1  0.455000  0.723500  0.908700  1
  H  H158  1  0.514100  0.766500  0.972500  1
  H  H159  1  0.336500  0.841900  0.600600  1
  H  H160  1  0.446600  0.732900  0.575200  1
  H  H161  1  0.571100  0.714400  0.462700  1
  H  H162  1  0.585500  0.804700  0.375600  1
  H  H163  1  0.475400  0.913700  0.401000  1
  H  H164  1  0.350900  0.932300  0.513500  1
  H  H165  1  0.145700  0.859700  0.219300  1
  H  H166  1  0.163900  0.858300  0.327000  1
  H  H167  1  0.101100  0.787400  0.425100  1
  H  H168  1  0.020100  0.717900  0.415300  1
  H  H169  1  0.002000  0.719300  0.307600  1
  H  H170  1  0.064800  0.790200  0.209600  1
  H  H171  1  0.737800  0.006000  0.257300  1
  H  H172  1  0.640900  0.956200  0.355600  1
  H  H173  1  0.529400  0.031400  0.457000  1
  H  H174  1  0.514700  0.156400  0.460100  1
  H  H175  1  0.611600  0.206200  0.361800  1
  H  H176  1  0.723100  0.131000  0.260400  1
  H  H177  1  0.506200  0.558000  0.354300  1
  H  H178  1  0.452700  0.684900  0.376800  1
  H  H179  1  0.301500  0.741200  0.419100  1
  H  H180  1  0.227700  0.687500  0.373600  1
  H  H181  1  0.195800  0.642100  0.297500  1
  H  H182  1  0.119100  0.558600  0.302600  1
  H  H183  1  0.208000  0.451200  0.220600  1
  H  H184  1  0.349300  0.410700  0.205400  1
  Ir  Ir185  1  0.347290  0.109870  0.000630  1
  Ir  Ir186  1  0.947080  0.051030  0.541110  1
  Ir  Ir187  1  0.910000  0.932520  0.054460  1
  Ir  Ir188  1  0.460660  0.456200  0.275440  1
  Ir  Ir189  1  0.036410  0.416490  0.858430  1
  Ir  Ir190  1  0.515630  0.563470  0.732590  1
  C  C191  1  0.261400  0.269500  0.041400  1
  C  C192  1  0.202800  0.331000  0.090500  1
  C  C193  1  0.150400  0.322900  0.159000  1
  C  C194  1  0.152200  0.253300  0.183000  1
  C  C195  1  0.213600  0.193700  0.133300  1
  C  C196  1  0.220200  0.116600  0.154300  1
  C  C197  1  0.177100  0.090100  0.223700  1
  C  C198  1  0.190000  0.019300  0.235200  1
  C  C199  1  0.248300  0.973300  0.181500  1
  C  C200  1  0.298900  0.989500  0.109400  1
  C  C201  1  0.264700  0.095200  0.966700  1
  C  C202  1  0.181000  0.137800  0.984200  1
  C  C203  1  0.128300  0.116300  0.965900  1
  C  C204  1  0.156600  0.046500  0.928900  1
  C  C205  1  0.236400  0.002400  0.912400  1
  C  C206  1  0.290400  0.024800  0.932600  1
  C  C207  1  0.377300  0.981400  0.916400  1
  C  C208  1  0.421100  0.915400  0.875400  1
  C  C209  1  0.504500  0.883400  0.856400  1
  C  C210  1  0.545300  0.917900  0.886700  1
  C  C211  1  0.501300  0.979700  0.925300  1
  C  C212  1  0.875400  0.942300  0.648600  1
  C  C213  1  0.877200  0.875500  0.679800  1
  C  C214  1  0.954000  0.817500  0.652200  1
  C  C215  1  0.025900  0.832900  0.593900  1
  C  C216  1  0.021500  0.901400  0.563900  1
  C  C217  1  0.091700  0.923500  0.507800  1
  C  C218  1  0.176400  0.879800  0.475800  1
  C  C219  1  0.240000  0.907700  0.424400  1
  C  C220  1  0.218200  0.975100  0.396900  1
  C  C221  1  0.138000  0.018600  0.431300  1
  C  C222  1  0.029800  0.861300  0.010100  1
  C  C223  1  0.062300  0.804600  0.956800  1
  C  C224  1  0.144600  0.762900  0.927900  1
  C  C225  1  0.201500  0.780300  0.948200  1
  C  C226  1  0.171900  0.839100  0.997700  1
  C  C227  1  0.087600  0.881000  0.025700  1
  C  C228  1  0.053000  0.947200  0.074800  1
  C  C229  1  0.099100  0.975800  0.097700  1
  C  C230  1  0.062200  0.038400  0.137600  1
  C  C231  1  0.977100  0.077200  0.154000  1
  C  C232  1  0.934900  0.046600  0.130100  1
  C  C233  1  0.872500  0.870800  0.143400  1
  C  C234  1  0.879100  0.875100  0.208500  1
  C  C235  1  0.840500  0.835700  0.268200  1
  C  C236  1  0.797700  0.787200  0.262300  1
  C  C237  1  0.794900  0.780600  0.195900  1
  C  C238  1  0.832700  0.819800  0.137200  1
  C  C239  1  0.829600  0.818000  0.065700  1
  C  C240  1  0.802200  0.770300  0.043900  1
  C  C241  1  0.802500  0.772600  0.977500  1
  C  C242  1  0.829000  0.826700  0.931300  1
  C  C243  1  0.861300  0.873100  0.950800  1
  C  C244  1  0.637200  0.434400  0.260900  1
  C  C245  1  0.705900  0.410900  0.279000  1
  C  C246  1  0.690400  0.371600  0.343900  1
  C  C247  1  0.611800  0.359400  0.384300  1
  C  C248  1  0.549200  0.383800  0.362200  1
  C  C249  1  0.463100  0.374500  0.402900  1
  C  C250  1  0.438800  0.331200  0.463100  1
  C  C251  1  0.356100  0.323200  0.495700  1
  C  C252  1  0.299300  0.356400  0.462300  1
  C  C253  1  0.325000  0.397900  0.402000  1
  C  C254  1  0.020900  0.470100  0.718400  1
  C  C255  1  0.049900  0.485300  0.645100  1
  C  C256  1  0.135700  0.475600  0.601500  1
  C  C257  1  0.191000  0.447900  0.633900  1
  C  C258  1  0.160200  0.430800  0.707800  1
  C  C259  1  0.208500  0.401600  0.749800  1
  C  C260  1  0.298500  0.386800  0.715800  1
  C  C261  1  0.341800  0.362600  0.759400  1
  C  C262  1  0.297900  0.351300  0.832900  1
  C  C263  1  0.209900  0.363200  0.865300  1
  C  C264  1  0.010900  0.325800  0.995300  1
  C  C265  1  0.996900  0.311800  0.064500  1
  C  C266  1  0.989600  0.364900  0.110000  1
  C  C267  1  0.993400  0.434800  0.081400  1
  C  C268  1  0.010100  0.444400  0.007200  1
  C  C269  1  0.012900  0.515100  0.971500  1
  C  C270  1  0.003600  0.577700  0.006900  1
  C  C271  1  0.001300  0.642200  0.971200  1
  C  C272  1  0.011000  0.642400  0.899000  1
  C  C273  1  0.025200  0.579200  0.861700  1
  C  C274  1  0.361100  0.539000  0.863600  1
  C  C275  1  0.275400  0.533500  0.901300  1
  C  C276  1  0.230200  0.542000  0.859300  1
  C  C277  1  0.269100  0.549300  0.784700  1
  C  C278  1  0.352800  0.551100  0.749900  1
  C  C279  1  0.406300  0.551600  0.670600  1
  C  C280  1  0.376800  0.544700  0.618400  1
  C  C281  1  0.433100  0.539600  0.542600  1
  C  C282  1  0.515200  0.547700  0.519700  1
  C  C283  1  0.542600  0.552800  0.570500  1
  C  C284  1  0.707300  0.538200  0.639300  1
  C  C285  1  0.782000  0.559000  0.601900  1
  C  C286  1  0.778600  0.623700  0.599300  1
  C  C287  1  0.693200  0.682900  0.625300  1
  C  C288  1  0.622600  0.660100  0.661800  1
  C  C289  1  0.538900  0.705900  0.695900  1
  C  C290  1  0.515000  0.782200  0.690100  1
  C  C291  1  0.431800  0.822500  0.723600  1
  C  C292  1  0.367800  0.792300  0.759700  1
  C  C293  1  0.385500  0.714700  0.765100  1
  C  C294  1  0.576500  0.555000  0.861800  1
  C  C295  1  0.618600  0.535400  0.909500  1
  C  C296  1  0.704300  0.520700  0.880800  1
  C  C297  1  0.742700  0.497300  0.928100  1
  C  C298  1  0.696800  0.492900  0.002400  1
  C  C299  1  0.606200  0.511200  0.030200  1
  C  C300  1  0.565700  0.532500  0.985800  1
  C  C301  1  0.836300  0.473200  0.900900  1
  C  C302  1  0.558500  0.503500  0.109800  1
  C  C303  1  0.573500  0.389600  0.739900  1
  C  C304  1  0.588700  0.311800  0.746400  1
  C  C305  1  0.524300  0.285300  0.798900  1
  C  C306  1  0.537000  0.210600  0.801700  1
  C  C307  1  0.608700  0.164800  0.753600  1
  C  C308  1  0.673100  0.189200  0.701500  1
  C  C309  1  0.664300  0.264500  0.695300  1
  C  C310  1  0.469100  0.184000  0.860000  1
  C  C311  1  0.753300  0.140100  0.649900  1
  C  C312  1  0.477700  0.130600  0.059300  1
  C  C313  1  0.529400  0.145700  0.089100  1
  C  C314  1  0.603300  0.093000  0.085400  1
  C  C315  1  0.649700  0.108200  0.117300  1
  C  C316  1  0.625100  0.174800  0.153800  1
  C  C317  1  0.550500  0.228700  0.156000  1
  C  C318  1  0.502600  0.213400  0.125500  1
  C  C319  1  0.727200  0.053900  0.108400  1
  C  C320  1  0.524200  0.298400  0.193100  1
  C  C321  1  0.947200  0.041600  0.917600  1
  C  C322  1  0.964900  0.088900  0.861000  1
  C  C323  1  0.985100  0.153000  0.867100  1
  C  C324  1  0.001200  0.199200  0.808900  1
  C  C325  1  0.998200  0.184000  0.744200  1
  C  C326  1  0.976500  0.123800  0.739200  1
  C  C327  1  0.957100  0.075000  0.797000  1
  C  C328  1  0.974300  0.105200  0.674200  1
  C  C329  1  0.023800  0.263300  0.816000  1
  C  C330  1  0.288100  0.065000  0.094100  1
  C  C331  1  0.071400  0.995100  0.484100  1
  C  C332  1  0.408200  0.408100  0.371200  1
  C  C333  1  0.427800  0.556800  0.322800  1
  C  C334  1  0.467000  0.582500  0.359000  1
  C  C335  1  0.437700  0.655200  0.382000  1
  C  C336  1  0.368800  0.705600  0.369700  1
  C  C337  1  0.326200  0.679800  0.338000  1
  C  C338  1  0.357800  0.607000  0.313800  1
  C  C339  1  0.318400  0.577100  0.279300  1
  C  C340  1  0.251800  0.615300  0.264600  1
  C  C341  1  0.219700  0.580100  0.233000  1
  C  C342  1  0.257900  0.505100  0.209100  1
  C  C343  1  0.324300  0.469800  0.225300  1
  C  C344  1  0.025800  0.512700  0.896700  1
  C  C345  1  0.166000  0.389700  0.823200  1
  C  C346  1  0.473600  0.672300  0.732700  1
  C  C347  1  0.489300  0.557700  0.646300  1
  C  C348  1  0.945900  0.141300  0.418400  1
  C  C349  1  0.976100  0.197900  0.494000  1
  C  C350  1  0.924500  0.078000  0.408500  1
  C  C351  1  0.921400  0.024500  0.460200  1
  C  C352  1  0.895600  0.966900  0.457800  1
  C  C353  1  0.971000  0.258100  0.389600  1
  C  C354  1  0.952000  0.204400  0.374900  1
  C  C355  1  0.986900  0.256300  0.450900  1
  C  C356  1  0.897300  0.071800  0.357000  1
  C  C357  1  0.877300  0.014900  0.349800  1
  C  C358  1  0.870800  0.960600  0.402700  1
  C  C359  1  0.420700  0.081200  0.266400  1
  C  C360  1  0.350500  0.116800  0.253400  1
  C  C361  1  0.307600  0.189500  0.276700  1
  C  C362  1  0.335000  0.226800  0.312900  1
  C  C363  1  0.405200  0.191300  0.325900  1
  C  C364  1  0.448100  0.118500  0.302700  1
  C  C365  1  0.571300  0.906700  0.106700  1
  C  C366  1  0.496700  0.886700  0.128700  1
  C  C367  1  0.457600  0.862500  0.199600  1
  C  C368  1  0.493200  0.858300  0.248500  1
  C  C369  1  0.567800  0.878300  0.226500  1
  C  C370  1  0.606900  0.902500  0.155600  1
  C  C371  1  0.619000  0.229100  0.544300  1
  C  C372  1  0.703700  0.234800  0.505100  1
  C  C373  1  0.721000  0.299700  0.507800  1
  C  C374  1  0.657400  0.360800  0.542400  1
  C  C375  1  0.571200  0.357500  0.580000  1
  C  C376  1  0.555000  0.291300  0.581000  1
  C  C377  1  0.080000  0.543100  0.161100  1
  C  C378  1  0.153900  0.553800  0.103200  1
  C  C379  1  0.154400  0.622900  0.076100  1
  C  C380  1  0.081000  0.681200  0.106900  1
  C  C381  1  0.007000  0.670500  0.164900  1
  C  C382  1  0.006500  0.601400  0.192000  1
  C  C383  1  0.691900  0.639300  0.074400  1
  C  C384  1  0.769500  0.593800  0.069100  1
  C  C385  1  0.780000  0.574900  0.133100  1
  C  C386  1  0.713100  0.601600  0.202200  1
  C  C387  1  0.635500  0.647100  0.207500  1
  C  C388  1  0.625000  0.666000  0.143500  1
  C  C389  1  0.148000  0.961000  0.654200  1
  C  C390  1  0.189900  0.992600  0.682300  1
  C  C391  1  0.181000  0.969800  0.755400  1
  C  C392  1  0.142600  0.927600  0.798800  1
  C  C393  1  0.097600  0.897000  0.773200  1
  C  C394  1  0.112800  0.913500  0.696800  1
  C  C395  1  0.781900  0.307200  0.049500  1
  C  C396  1  0.812500  0.488600  0.394100  1
  C  C397  1  0.524400  0.355800  0.969600  1
  C  C398  1  0.719800  0.109600  0.875100  1
  C  C399  1  0.732300  0.718200  0.802100  1
  C  C400  1  0.815000  0.367700  0.748600  1
  C  C401  1  0.047300  0.447100  0.408200  1
  C  C402  1  0.057300  0.528700  0.391100  1
  C  C403  1  0.107900  0.673900  0.681100  1
  C  C404  1  0.140000  0.654100  0.606600  1
  C  C405  1  0.215800  0.667600  0.554800  1
  C  C406  1  0.259300  0.700800  0.577600  1
  C  C407  1  0.227200  0.720500  0.652100  1
  C  C408  1  0.151500  0.707100  0.703900  1
  C  C409  1  0.450600  0.725600  0.072000  1
  C  C410  1  0.391900  0.686100  0.108600  1
  C  C411  1  0.356800  0.660500  0.070700  1
  C  C412  1  0.380300  0.674500  0.996200  1
  C  C413  1  0.439000  0.714000  0.959600  1
  C  C414  1  0.474100  0.739500  0.997500  1
  C  C415  1  0.387100  0.834400  0.554900  1
  C  C416  1  0.452500  0.769600  0.539800  1
  C  C417  1  0.526400  0.758600  0.473000  1
  C  C418  1  0.535000  0.812300  0.421300  1
  C  C419  1  0.469600  0.877000  0.436400  1
  C  C420  1  0.395600  0.888100  0.503200  1
  C  C421  1  0.120200  0.830900  0.259100  1
  C  C422  1  0.131000  0.830100  0.323100  1
  C  C423  1  0.093700  0.788000  0.381300  1
  C  C424  1  0.045600  0.746700  0.375500  1
  C  C425  1  0.034900  0.747500  0.311500  1
  C  C426  1  0.072200  0.789600  0.253300  1
  C  C427  1  0.692500  0.036500  0.298500  1
  C  C428  1  0.635000  0.007000  0.356900  1
  C  C429  1  0.568700  0.051600  0.417100  1
  C  C430  1  0.560000  0.125900  0.418900  1
  C  C431  1  0.617500  0.155400  0.360500  1
  C  C432  1  0.683800  0.110800  0.300300  1
  C  C433  1  0.404000  0.549000  0.338000  1
  C  C434  1  0.452000  0.584000  0.356000  1
  C  C435  1  0.418000  0.658000  0.375000  1
  C  C436  1  0.329000  0.696000  0.392000  1
  C  C437  1  0.284000  0.663000  0.367000  1
  C  C438  1  0.329000  0.594000  0.333000  1
  C  C439  1  0.290000  0.557000  0.304000  1
  C  C440  1  0.218000  0.591000  0.295000  1
  C  C441  1  0.180000  0.545000  0.283000  1
  C  C442  1  0.230000  0.478000  0.242000  1
  C  C443  1  0.312000  0.454000  0.235000  1
  S  S444  1  0.829670  0.215970  0.069430  1
  S  S445  1  0.893300  0.443200  0.303900  1
  S  S446  1  0.409000  0.395600  0.010800  1
  S  S447  1  0.732000  0.012640  0.859930  1
  S  S448  1  0.824100  0.656900  0.804000  1
  S  S449  1  0.860400  0.319900  0.661700  1
  N  N450  1  0.263700  0.202400  0.065000  1
  N  N451  1  0.944800  0.953800  0.590300  1
  N  N452  1  0.563500  0.420700  0.300500  1
  N  N453  1  0.073300  0.442500  0.753500  1
  N  N454  1  0.012500  0.392200  0.966000  1
  N  N455  1  0.396100  0.549400  0.790200  1
  N  N456  1  0.629600  0.587800  0.669000  1
  N  N457  1  0.417300  0.014100  0.940400  1
  N  N458  1  0.418100  0.160300  0.906000  1
  N  N459  1  0.435000  0.118600  0.035500  1
  N  N460  1  0.817800  0.106500  0.609000  1
  N  N461  1  0.968900  0.086400  0.624100  1
  N  N462  1  0.860500  0.868400  0.018300  1
  N  N463  1  0.969600  0.984000  0.092300  1
  N  N464  1  0.789000  0.011200  0.098300  1
  N  N465  1  0.939200  0.999800  0.963800  1
  N  N466  1  0.354500  0.501700  0.259200  1
  N  N467  1  0.523600  0.493500  0.171400  1
  N  N468  1  0.502600  0.352200  0.220100  1
  N  N469  1  0.904800  0.452900  0.885200  1
  N  N470  1  0.035000  0.313100  0.828400  1
  N  N471  1  0.562300  0.449700  0.731400  1
  N  N472  1  0.544800  0.565400  0.823100  1
  N  N473  1  0.958200  0.142200  0.480400  1
  N  N474  1  0.341000  0.487500  0.269000  1
  Cl  Cl475  1  0.143300  0.384200  0.350800  1
  Cl  Cl476  1  0.012100  0.428000  0.500900  1
  Cl  Cl477  1  0.962300  0.590500  0.425200  1
  Cl  Cl478  1  0.127900  0.541700  0.422900  1
  O  O479  1  0.801600  0.173300  0.037200  1
  O  O480  1  0.790800  0.219200  0.149600  1
  O  O481  1  0.919500  0.207700  0.033500  1
  O  O482  1  0.880500  0.374900  0.305000  1
  O  O483  1  0.866100  0.495900  0.253400  1
  O  O484  1  0.973900  0.438300  0.299200  1
  O  O485  1  0.379500  0.359400  0.081800  1
  O  O486  1  0.388100  0.372300  0.956400  1
  O  O487  1  0.396600  0.472700  0.016000  1
  O  O488  1  0.701300  0.014800  0.803800  1
  O  O489  1  0.679500  0.991600  0.930900  1
  O  O490  1  0.823100  0.980300  0.833300  1
  O  O491  1  0.844600  0.593800  0.761800  1
  O  O492  1  0.781500  0.644400  0.884000  1
  O  O493  1  0.886900  0.693400  0.780500  1
  O  O494  1  0.808200  0.355700  0.628600  1
  O  O495  1  0.841000  0.248600  0.691700  1
  O  O496  1  0.948700  0.311600  0.631000  1
  O  O497  1  0.884200  0.244200  0.234400  1
  F  F498  1  0.700400  0.324500  0.074300  1
  F  F499  1  0.815200  0.317300  0.977000  1
  F  F500  1  0.801200  0.358100  0.078200  1
  F  F501  1  0.734400  0.494500  0.406600  1
  F  F502  1  0.833000  0.445600  0.446000  1
  F  F503  1  0.818400  0.555200  0.397800  1
  F  F504  1  0.547100  0.283600  0.959800  1
  F  F505  1  0.563100  0.385300  0.906400  1
  F  F506  1  0.554600  0.368900  0.016400  1
  F  F507  1  0.636200  0.147900  0.902400  1
  F  F508  1  0.761000  0.138200  0.812700  1
  F  F509  1  0.747000  0.116600  0.923700  1
  F  F510  1  0.673200  0.690600  0.810300  1
  F  F511  1  0.712000  0.778600  0.839600  1
  F  F512  1  0.765500  0.741500  0.726300  1
  F  F513  1  0.732900  0.382900  0.784600  1
  F  F514  1  0.848300  0.340100  0.794300  1
  F  F515  1  0.837700  0.434500  0.720600  1
