# generated using pymatgen
data_Pd6C161N39O19
_symmetry_space_group_name_H-M   'P 1'
_cell_length_a   21.04800000
_cell_length_b   21.23000000
_cell_length_c   24.50700000
_cell_angle_alpha   83.09800000
_cell_angle_beta   73.54700000
_cell_angle_gamma   74.54100000
_symmetry_Int_Tables_number   1
_chemical_formula_structural   Pd6C161N39O19
_chemical_formula_sum   'Pd12 C322 N78 O38'
_cell_volume   10110.71851698
_cell_formula_units_Z   2
loop_
 _symmetry_equiv_pos_site_id
 _symmetry_equiv_pos_as_xyz
  1  'x, y, z'
loop_
 _atom_site_type_symbol
 _atom_site_label
 _atom_site_symmetry_multiplicity
 _atom_site_fract_x
 _atom_site_fract_y
 _atom_site_fract_z
 _atom_site_occupancy
  Pd  Pd1  1  0.547420  0.370540  0.364150  1
  Pd  Pd2  1  0.452580  0.629460  0.635850  1
  Pd  Pd3  1  0.320890  0.627940  0.003470  1
  Pd  Pd4  1  0.679110  0.372060  0.996530  1
  Pd  Pd5  1  0.062100  0.816050  0.655830  1
  Pd  Pd6  1  0.937900  0.183950  0.344170  1
  Pd  Pd7  1  0.176780  0.361170  0.020170  1
  Pd  Pd8  1  0.823220  0.638830  0.979830  1
  Pd  Pd9  1  0.254090  0.894550  0.386610  1
  Pd  Pd10  1  0.745910  0.105450  0.613390  1
  Pd  Pd11  1  0.791980  0.911390  0.223440  1
  Pd  Pd12  1  0.208020  0.088610  0.776560  1
  C  C13  1  0.180200  0.650800  0.079900  1
  C  C14  1  0.819800  0.349200  0.920100  1
  C  C15  1  0.148800  0.696400  0.594300  1
  C  C16  1  0.851200  0.303600  0.405700  1
  C  C17  1  0.382800  0.430300  0.157800  1
  C  C18  1  0.617200  0.569700  0.842200  1
  C  C19  1  0.180400  0.630300  0.588500  1
  C  C20  1  0.819600  0.369700  0.411500  1
  C  C21  1  0.935100  0.848200  0.487500  1
  C  C22  1  0.064900  0.151800  0.512500  1
  C  C23  1  0.313100  0.684800  0.399100  1
  C  C24  1  0.686900  0.315200  0.600900  1
  C  C25  1  0.362200  0.665200  0.350000  1
  C  C26  1  0.637800  0.334800  0.650000  1
  C  C27  1  0.389200  0.495500  0.135000  1
  C  C28  1  0.610800  0.504500  0.865000  1
  C  C29  1  0.084500  0.466300  0.096200  1
  C  C30  1  0.915500  0.533700  0.903800  1
  C  C31  1  0.414200  0.446800  0.431300  1
  C  C32  1  0.585800  0.553200  0.568700  1
  C  C33  1  0.296500  0.308700  0.140000  1
  C  C34  1  0.703500  0.691300  0.860000  1
  C  C35  1  0.281600  0.749700  0.408100  1
  C  C36  1  0.718400  0.250300  0.591900  1
  C  C37  1  0.230500  0.610500  0.533700  1
  C  C38  1  0.769500  0.389500  0.466300  1
  C  C39  1  0.446000  0.335300  0.468200  1
  C  C40  1  0.554000  0.664700  0.531800  1
  C  C41  1  0.357500  0.461800  0.477500  1
  C  C42  1  0.642500  0.538200  0.522500  1
  C  C43  1  0.341400  0.342600  0.160600  1
  C  C44  1  0.658600  0.657400  0.839400  1
  C  C45  1  0.354600  0.526600  0.093400  1
  C  C46  1  0.645400  0.473400  0.906600  1
  C  C47  1  0.059300  0.655900  0.137800  1
  C  C48  1  0.940700  0.344100  0.862200  1
  C  C49  1  0.449700  0.304500  0.258600  1
  C  C50  1  0.550300  0.695500  0.741400  1
  C  C51  1  0.290000  0.246400  0.166400  1
  C  C52  1  0.710000  0.753600  0.833600  1
  C  C53  1  0.118900  0.685700  0.114700  1
  C  C54  1  0.881100  0.314300  0.885300  1
  C  C55  1  0.263100  0.342900  0.099400  1
  C  C56  1  0.736900  0.657100  0.900600  1
  C  C57  1  0.427200  0.529600  0.156700  1
  C  C58  1  0.572800  0.470400  0.843300  1
  C  C59  1  0.313900  0.530100  0.482500  1
  C  C60  1  0.686100  0.469900  0.517500  1
  C  C61  1  0.983500  0.830200  0.569500  1
  C  C62  1  0.016500  0.169800  0.430500  1
  C  C63  1  0.397400  0.621300  0.090300  1
  C  C64  1  0.602600  0.378700  0.909700  1
  C  C65  1  0.292300  0.634000  0.446200  1
  C  C66  1  0.707700  0.366000  0.553800  1
  C  C67  1  0.751500  0.788000  0.245300  1
  C  C68  1  0.248500  0.212000  0.754700  1
  C  C69  1  0.025200  0.495600  0.129900  1
  C  C70  1  0.974800  0.504400  0.870100  1
  C  C71  1  0.012900  0.565800  0.144500  1
  C  C72  1  0.987100  0.434200  0.855500  1
  C  C73  1  0.346500  0.782300  0.320900  1
  C  C74  1  0.653500  0.217700  0.679100  1
  C  C75  1  0.875400  0.706600  0.205800  1
  C  C76  1  0.124600  0.293400  0.794200  1
  C  C77  1  0.094900  0.674900  0.690300  1
  C  C78  1  0.905100  0.325100  0.309700  1
  C  C79  1  0.516900  0.249400  0.342200  1
  C  C80  1  0.483100  0.750600  0.657800  1
  C  C81  1  0.229800  0.738100  0.070500  1
  C  C82  1  0.770200  0.261900  0.929500  1
  C  C83  1  0.112700  0.746500  0.128300  1
  C  C84  1  0.887300  0.253500  0.871700  1
  C  C85  1  0.452800  0.239800  0.273700  1
  C  C86  1  0.547200  0.760200  0.726300  1
  C  C87  1  0.169800  0.774200  0.109000  1
  C  C88  1  0.830200  0.225800  0.891000  1
  C  C89  1  0.386100  0.348300  0.518400  1
  C  C90  1  0.613900  0.651700  0.481600  1
  C  C91  1  0.996400  0.872500  0.403600  1
  C  C92  1  0.003600  0.127500  0.596400  1
  C  C93  1  0.928300  0.828000  0.546500  1
  C  C94  1  0.071700  0.172000  0.453500  1
  C  C95  1  0.873200  0.808800  0.581400  1
  C  C96  1  0.126800  0.191200  0.418600  1
  C  C97  1  0.167300  0.583800  0.633000  1
  C  C98  1  0.832700  0.416200  0.367000  1
  C  C99  1  0.341300  0.414500  0.523100  1
  C  C100  1  0.658700  0.585500  0.476900  1
  C  C101  1  0.874800  0.786200  0.637300  1
  C  C102  1  0.125200  0.213800  0.362700  1
  C  C103  1  0.929100  0.788000  0.660600  1
  C  C104  1  0.070900  0.212000  0.339400  1
  C  C105  1  0.478400  0.340700  0.283900  1
  C  C106  1  0.521600  0.659300  0.716100  1
  C  C107  1  0.833000  0.900400  0.332200  1
  C  C108  1  0.167000  0.099600  0.667800  1
  C  C109  1  0.757700  0.715100  0.251200  1
  C  C110  1  0.242300  0.284900  0.748800  1
  C  C111  1  0.967300  0.465500  0.153100  1
  C  C112  1  0.032700  0.534500  0.846900  1
  C  C113  1  0.884800  0.876700  0.416700  1
  C  C114  1  0.115200  0.123300  0.583300  1
  C  C115  1  0.413300  0.340500  0.214000  1
  C  C116  1  0.586700  0.659500  0.786000  1
  C  C117  1  0.430300  0.592400  0.134800  1
  C  C118  1  0.569700  0.407600  0.865200  1
  C  C119  1  0.946500  0.663500  0.179900  1
  C  C120  1  0.053500  0.336500  0.820100  1
  C  C121  1  0.381900  0.714200  0.307600  1
  C  C122  1  0.618100  0.285800  0.692400  1
  C  C123  1  0.213300  0.252400  0.101400  1
  C  C124  1  0.786700  0.747600  0.898600  1
  C  C125  1  0.486100  0.209100  0.319200  1
  C  C126  1  0.513900  0.790900  0.680800  1
  C  C127  1  0.866900  0.773500  0.205300  1
  C  C128  1  0.133100  0.226500  0.794700  1
  C  C129  1  0.124200  0.607500  0.683600  1
  C  C130  1  0.875800  0.392500  0.316400  1
  C  C131  1  0.709800  0.911800  0.343300  1
  C  C132  1  0.290200  0.088200  0.656700  1
  C  C133  1  0.759400  0.888300  0.429200  1
  C  C134  1  0.240600  0.111700  0.570800  1
  C  C135  1  0.822000  0.673500  0.228600  1
  C  C136  1  0.178000  0.326500  0.771400  1
  C  C137  1  0.820500  0.890200  0.392000  1
  C  C138  1  0.179500  0.109800  0.608000  1
  C  C139  1  0.241700  0.216200  0.146400  1
  C  C140  1  0.758300  0.783800  0.853600  1
  C  C141  1  0.703500  0.903600  0.406500  1
  C  C142  1  0.296500  0.096400  0.593500  1
  C  C143  1  0.061600  0.887800  0.362400  1
  C  C144  1  0.938400  0.112200  0.637600  1
  C  C145  1  0.117900  0.884900  0.383900  1
  C  C146  1  0.882100  0.115100  0.616100  1
  C  C147  1  0.033500  0.375300  0.103800  1
  C  C148  1  0.966500  0.624700  0.896200  1
  C  C149  1  0.186200  0.907800  0.294700  1
  C  C150  1  0.813800  0.092200  0.705300  1
  C  C151  1  0.068900  0.902600  0.300800  1
  C  C152  1  0.931100  0.097400  0.699200  1
  C  C153  1  0.133000  0.910900  0.265500  1
  C  C154  1  0.867000  0.089100  0.734500  1
  C  C155  1  0.977500  0.401600  0.137700  1
  C  C156  1  0.022500  0.598400  0.862300  1
  C  C157  1  0.650100  0.442000  0.363100  1
  C  C158  1  0.349900  0.558000  0.636900  1
  C  C159  1  0.684600  0.392500  0.318900  1
  C  C160  1  0.315400  0.607500  0.681100  1
  C  C161  1  0.180400  0.401600  0.900200  1
  C  C162  1  0.819600  0.598400  0.099800  1
  C  C163  1  0.400600  0.604600  0.886200  1
  C  C164  1  0.599400  0.395400  0.113800  1
  C  C165  1  0.257600  0.017900  0.427900  1
  C  C166  1  0.742400  0.982100  0.572100  1
  C  C167  1  0.067000  0.940700  0.693300  1
  C  C168  1  0.933000  0.059300  0.306700  1
  C  C169  1  0.124500  0.899000  0.701400  1
  C  C170  1  0.875500  0.101000  0.298600  1
  C  C171  1  0.238700  0.340700  0.901300  1
  C  C172  1  0.761300  0.659300  0.098700  1
  C  C173  1  0.332100  0.641900  0.884100  1
  C  C174  1  0.667900  0.358100  0.115900  1
  C  C175  1  0.307600  0.964900  0.449100  1
  C  C176  1  0.692400  0.035100  0.550900  1
  C  C177  1  0.777300  0.033500  0.155000  1
  C  C178  1  0.222700  0.966500  0.845000  1
  C  C179  1  0.817100  0.979200  0.114100  1
  C  C180  1  0.182900  0.020800  0.885900  1
  C  C181  1  0.071500  0.674700  0.394300  1
  C  C182  1  0.928500  0.325300  0.605700  1
  C  C183  1  0.967500  0.600200  0.368900  1
  C  C184  1  0.032500  0.399800  0.631100  1
  C  C185  1  0.906600  0.581700  0.377900  1
  C  C186  1  0.093400  0.418300  0.622100  1
  C  C187  1  0.846200  0.629100  0.379000  1
  C  C188  1  0.153800  0.370900  0.621000  1
  C  C189  1  0.846700  0.694900  0.371200  1
  C  C190  1  0.153300  0.305100  0.628800  1
  C  C191  1  0.907600  0.713400  0.362200  1
  C  C192  1  0.092400  0.286600  0.637800  1
  C  C193  1  0.968000  0.666100  0.361000  1
  C  C194  1  0.032000  0.333900  0.639000  1
  C  C195  1  0.030200  0.688400  0.351100  1
  C  C196  1  0.969800  0.311600  0.648900  1
  C  C197  1  0.119300  0.736400  0.285600  1
  C  C198  1  0.880700  0.263600  0.714400  1
  C  C199  1  0.055400  0.719500  0.299900  1
  C  C200  1  0.944600  0.280500  0.700100  1
  C  C201  1  0.133600  0.697400  0.376700  1
  C  C202  1  0.866400  0.302600  0.623300  1
  C  C203  1  0.153900  0.728800  0.322200  1
  C  C204  1  0.846100  0.271200  0.677800  1
  C  C205  1  0.018700  0.576700  0.556700  1
  C  C206  1  0.981300  0.423300  0.443300  1
  C  C207  1  0.051200  0.641100  0.450300  1
  C  C208  1  0.948800  0.358900  0.549700  1
  C  C209  1  0.114200  0.577900  0.453300  1
  C  C210  1  0.885800  0.422100  0.546700  1
  C  C211  1  0.993800  0.662100  0.483300  1
  C  C212  1  0.006200  0.337900  0.516700  1
  C  C213  1  0.094100  0.548100  0.509300  1
  C  C214  1  0.905900  0.451900  0.490700  1
  C  C215  1  0.982000  0.627000  0.541900  1
  C  C216  1  0.018000  0.373000  0.458100  1
  C  C217  1  0.201100  0.511900  0.265800  1
  C  C218  1  0.798900  0.488100  0.734200  1
  C  C219  1  0.240900  0.501300  0.302000  1
  C  C220  1  0.759100  0.498700  0.698000  1
  C  C221  1  0.246800  0.604200  0.218500  1
  C  C222  1  0.753200  0.395800  0.781500  1
  C  C223  1  0.285200  0.545600  0.297700  1
  C  C224  1  0.714800  0.454400  0.702300  1
  C  C225  1  0.201500  0.563900  0.223500  1
  C  C226  1  0.798500  0.436100  0.776500  1
  C  C227  1  0.286100  0.595300  0.255300  1
  C  C228  1  0.713900  0.404700  0.744700  1
  C  C229  1  0.184400  0.435700  0.384200  1
  C  C230  1  0.815600  0.564300  0.615800  1
  C  C231  1  0.188400  0.383100  0.423800  1
  C  C232  1  0.811600  0.616900  0.576200  1
  C  C233  1  0.251300  0.340700  0.424100  1
  C  C234  1  0.748700  0.659300  0.575900  1
  C  C235  1  0.310300  0.351000  0.384800  1
  C  C236  1  0.689700  0.649000  0.615200  1
  C  C237  1  0.306300  0.403600  0.345200  1
  C  C238  1  0.693700  0.596400  0.654800  1
  C  C239  1  0.243400  0.446000  0.344900  1
  C  C240  1  0.756600  0.554000  0.655100  1
  C  C241  1  0.134500  0.366200  0.251500  1
  C  C242  1  0.865500  0.633800  0.748500  1
  C  C243  1  0.064800  0.394400  0.261600  1
  C  C244  1  0.935200  0.605600  0.738400  1
  C  C245  1  0.039200  0.459800  0.274600  1
  C  C246  1  0.960800  0.540200  0.725400  1
  C  C247  1  0.083200  0.497100  0.277500  1
  C  C248  1  0.916800  0.502900  0.722500  1
  C  C249  1  0.152900  0.468900  0.267400  1
  C  C250  1  0.847100  0.531100  0.732600  1
  C  C251  1  0.178500  0.403400  0.254400  1
  C  C252  1  0.821500  0.596600  0.745600  1
  C  C253  1  0.018600  0.648000  0.559000  1
  C  C254  1  0.981400  0.352000  0.441000  1
  C  C255  1  0.038700  0.674900  0.504400  1
  C  C256  1  0.961300  0.325100  0.495600  1
  C  C257  1  0.032700  0.572900  0.456200  1
  C  C258  1  0.967300  0.427100  0.543800  1
  C  C259  1  0.011400  0.543100  0.518900  1
  C  C260  1  0.988600  0.456900  0.481100  1
  C  C261  1  0.522400  0.629300  0.969300  1
  C  C262  1  0.477600  0.370700  0.030700  1
  C  C263  1  0.138500  0.059100  0.315800  1
  C  C264  1  0.861500  0.940900  0.684200  1
  C  C265  1  0.536200  0.575000  0.993200  1
  C  C266  1  0.463800  0.425000  0.006800  1
  C  C267  1  0.378000  0.686000  0.509300  1
  C  C268  1  0.622000  0.314000  0.490700  1
  C  C269  1  0.937200  0.758700  0.786300  1
  C  C270  1  0.062800  0.241300  0.213700  1
  C  C271  1  0.272500  0.433400  0.676300  1
  C  C272  1  0.727500  0.566600  0.323700  1
  C  C273  1  0.230500  0.458400  0.719900  1
  C  C274  1  0.769500  0.541600  0.280100  1
  C  C275  1  0.234000  0.058900  0.288100  1
  C  C276  1  0.766000  0.941100  0.711900  1
  C  C277  1  0.290800  0.438700  0.750200  1
  C  C278  1  0.709200  0.561300  0.249800  1
  C  C279  1  0.978600  0.022500  0.455000  1
  C  C280  1  0.021400  0.977500  0.545000  1
  C  C281  1  0.097600  0.981000  0.535700  1
  C  C282  1  0.902400  0.019000  0.464300  1
  C  C283  1  0.870600  0.441700  0.034000  1
  C  C284  1  0.129400  0.558300  0.966000  1
  C  C285  1  0.990200  0.370900  0.983600  1
  C  C286  1  0.009800  0.629100  0.016400  1
  C  C287  1  0.304200  0.160500  0.417300  1
  C  C288  1  0.695800  0.839500  0.582700  1
  C  C289  1  0.287600  0.761500  0.597100  1
  C  C290  1  0.712400  0.238500  0.402900  1
  C  C291  1  0.125800  0.081900  0.247600  1
  C  C292  1  0.874200  0.918100  0.752400  1
  C  C293  1  0.562200  0.653900  0.993800  1
  C  C294  1  0.437800  0.346100  0.006200  1
  C  C295  1  0.037200  0.308700  0.963000  1
  C  C296  1  0.962800  0.691300  0.037000  1
  C  C297  1  0.645000  0.570000  0.058600  1
  C  C298  1  0.355000  0.430000  0.941400  1
  C  C299  1  0.864000  0.376000  0.105000  1
  C  C300  1  0.136000  0.624000  0.895000  1
  C  C301  1  0.955100  0.790500  0.876600  1
  C  C302  1  0.044900  0.209500  0.123400  1
  C  C303  1  0.498900  0.677200  0.934800  1
  C  C304  1  0.501100  0.322800  0.065200  1
  C  C305  1  0.949000  0.434100  0.005200  1
  C  C306  1  0.051000  0.565900  0.994800  1
  C  C307  1  0.205800  0.494700  0.765900  1
  C  C308  1  0.794200  0.505300  0.234100  1
  C  C309  1  0.035600  0.013700  0.461700  1
  C  C310  1  0.964400  0.986300  0.538300  1
  C  C311  1  0.069900  0.996100  0.495400  1
  C  C312  1  0.930100  0.003900  0.504600  1
  C  C313  1  0.062000  0.065000  0.221000  1
  C  C314  1  0.938000  0.935000  0.779000  1
  C  C315  1  0.370300  0.764500  0.572700  1
  C  C316  1  0.629700  0.235500  0.427300  1
  C  C317  1  0.408000  0.108000  0.329000  1
  C  C318  1  0.592000  0.892000  0.671000  1
  C  C319  1  0.970900  0.769700  0.799300  1
  C  C320  1  0.029100  0.230300  0.200700  1
  C  C321  1  0.360600  0.132900  0.439900  1
  C  C322  1  0.639400  0.867100  0.560100  1
  C  C323  1  0.185500  0.072300  0.264900  1
  C  C324  1  0.814500  0.927700  0.735100  1
  C  C325  1  0.416100  0.334200  0.672000  1
  C  C326  1  0.583900  0.665800  0.328000  1
  C  C327  1  0.288000  0.803000  0.547000  1
  C  C328  1  0.712000  0.197000  0.453000  1
  C  C329  1  0.253000  0.909000  0.329000  1
  C  C330  1  0.747000  0.091000  0.671000  1
  C  C331  1  0.601000  0.578900  0.027200  1
  C  C332  1  0.399000  0.421100  0.972800  1
  C  C333  1  0.422700  0.760700  0.447500  1
  C  C334  1  0.577300  0.239300  0.552500  1
  N  N335  1  0.343500  0.401500  0.139900  1
  N  N336  1  0.656500  0.598500  0.860100  1
  N  N337  1  0.418900  0.399400  0.196600  1
  N  N338  1  0.581100  0.600600  0.803400  1
  N  N339  1  0.091000  0.403200  0.080600  1
  N  N340  1  0.909000  0.596800  0.919400  1
  N  N341  1  0.106600  0.716600  0.644400  1
  N  N342  1  0.893400  0.283400  0.355600  1
  N  N343  1  0.458100  0.385700  0.427200  1
  N  N344  1  0.541900  0.614300  0.572800  1
  N  N345  1  0.242900  0.655500  0.491700  1
  N  N346  1  0.757100  0.344500  0.508300  1
  N  N347  1  0.981100  0.809900  0.623600  1
  N  N348  1  0.018900  0.190100  0.376400  1
  N  N349  1  0.512000  0.313000  0.324800  1
  N  N350  1  0.488000  0.687000  0.675200  1
  N  N351  1  0.233000  0.678700  0.059000  1
  N  N352  1  0.767000  0.321300  0.941000  1
  N  N353  1  0.376000  0.305800  0.198800  1
  N  N354  1  0.624000  0.694200  0.801200  1
  N  N355  1  0.328400  0.573600  0.437800  1
  N  N356  1  0.671600  0.426400  0.562200  1
  N  N357  1  0.802900  0.814800  0.225300  1
  N  N358  1  0.197100  0.185200  0.774700  1
  N  N359  1  0.998700  0.691800  0.164300  1
  N  N360  1  0.001300  0.308200  0.835700  1
  N  N361  1  0.069200  0.591400  0.128100  1
  N  N362  1  0.930800  0.408600  0.871900  1
  N  N363  1  0.223200  0.312600  0.082000  1
  N  N364  1  0.776800  0.687400  0.918000  1
  N  N365  1  0.299700  0.797500  0.368600  1
  N  N366  1  0.700300  0.202500  0.631400  1
  N  N367  1  0.362300  0.585800  0.070800  1
  N  N368  1  0.637700  0.414200  0.929200  1
  N  N369  1  0.942300  0.887700  0.378500  1
  N  N370  1  0.057700  0.112300  0.621500  1
  N  N371  1  0.992400  0.855400  0.456300  1
  N  N372  1  0.007600  0.144600  0.543700  1
  N  N373  1  0.773300  0.909400  0.309600  1
  N  N374  1  0.226700  0.090600  0.690400  1
  N  N375  1  0.264600  0.546100  0.530300  1
  N  N376  1  0.735400  0.453900  0.469700  1
  N  N377  1  0.174800  0.895000  0.352300  1
  N  N378  1  0.825200  0.105000  0.647700  1
  N  N379  1  0.586900  0.428000  0.401300  1
  N  N380  1  0.413100  0.572000  0.598700  1
  N  N381  1  0.406300  0.579200  0.946400  1
  N  N382  1  0.593700  0.420800  0.053600  1
  N  N383  1  0.139100  0.827700  0.687300  1
  N  N384  1  0.860900  0.172300  0.312700  1
  N  N385  1  0.210900  0.990100  0.405200  1
  N  N386  1  0.789100  0.009900  0.594800  1
  N  N387  1  0.639300  0.361400  0.299700  1
  N  N388  1  0.360700  0.638600  0.700300  1
  N  N389  1  0.021900  0.915500  0.664200  1
  N  N390  1  0.978100  0.084500  0.335800  1
  N  N391  1  0.256600  0.321900  0.957900  1
  N  N392  1  0.743400  0.678100  0.042100  1
  N  N393  1  0.951000  0.601800  0.172600  1
  N  N394  1  0.049000  0.398200  0.827400  1
  N  N395  1  0.331300  0.896700  0.420700  1
  N  N396  1  0.668700  0.103300  0.579300  1
  N  N397  1  0.874900  0.857300  0.470900  1
  N  N398  1  0.125100  0.142700  0.529100  1
  N  N399  1  0.131100  0.409800  0.958600  1
  N  N400  1  0.868900  0.590200  0.041400  1
  N  N401  1  0.283900  0.667600  0.934500  1
  N  N402  1  0.716100  0.332400  0.065500  1
  N  N403  1  0.804900  0.916000  0.139500  1
  N  N404  1  0.195100  0.084000  0.860500  1
  N  N405  1  0.783800  0.013100  0.213900  1
  N  N406  1  0.216200  0.986900  0.786100  1
  N  N407  1  0.512600  0.519500  0.268400  1
  N  N408  1  0.487400  0.480500  0.731600  1
  N  N409  1  0.961000  0.905500  0.160100  1
  N  N410  1  0.039000  0.094500  0.839900  1
  N  N411  1  0.539000  0.818000  0.276000  1
  N  N412  1  0.461000  0.182000  0.724000  1
  O  O413  1  0.557200  0.479300  0.237500  1
  O  O414  1  0.442800  0.520700  0.762500  1
  O  O415  1  0.496800  0.579900  0.253000  1
  O  O416  1  0.503200  0.420100  0.747000  1
  O  O417  1  0.466600  0.501500  0.303600  1
  O  O418  1  0.533400  0.498500  0.696400  1
  O  O419  1  0.967800  0.877100  0.209300  1
  O  O420  1  0.032200  0.122900  0.790700  1
  O  O421  1  0.954700  0.955400  0.206200  1
  O  O422  1  0.045300  0.044600  0.793800  1
  O  O423  1  0.033000  0.912700  0.170300  1
  O  O424  1  0.967000  0.087300  0.829700  1
  O  O425  1  0.508200  0.586300  0.402700  1
  O  O426  1  0.491800  0.413700  0.597300  1
  O  O427  1  0.486300  0.543500  0.471200  1
  O  O428  1  0.513700  0.456500  0.528800  1
  O  O429  1  0.430400  0.634500  0.475200  1
  O  O430  1  0.569600  0.365500  0.524800  1
  O  O431  1  0.160600  0.846000  0.520800  1
  O  O432  1  0.839400  0.154000  0.479200  1
  O  O433  1  0.242500  0.494800  0.018600  1
  O  O434  1  0.757500  0.505200  0.981400  1
  O  O435  1  0.684600  0.226900  0.241700  1
  O  O436  1  0.315400  0.773100  0.758300  1
  O  O437  1  0.185000  0.734000  0.793700  1
  O  O438  1  0.815000  0.266000  0.206300  1
  O  O439  1  0.945300  0.838800  0.070200  1
  O  O440  1  0.054700  0.161200  0.929800  1
  O  O441  1  0.385800  0.764400  0.999500  1
  O  O442  1  0.614200  0.235600  0.000500  1
  O  O443  1  0.624400  0.563500  0.169300  1
  O  O444  1  0.375600  0.436500  0.830700  1
  O  O445  1  0.437000  0.769000  0.158000  1
  O  O446  1  0.563000  0.231000  0.842000  1
  O  O447  1  0.316200  0.150200  0.294300  1
  O  O448  1  0.683800  0.849800  0.705700  1
  O  O449  1  0.212000  0.548000  0.825300  1
  O  O450  1  0.788000  0.452000  0.174700  1
