# generated using pymatgen
data_CdH28C21SN6(OF)3
_symmetry_space_group_name_H-M   'P 1'
_cell_length_a   19.85200000
_cell_length_b   19.85200000
_cell_length_c   21.58423518
_cell_angle_alpha   62.62110815
_cell_angle_beta   62.62110815
_cell_angle_gamma   60.00000000
_symmetry_Int_Tables_number   1
_chemical_formula_structural   CdH28C21SN6(OF)3
_chemical_formula_sum   'Cd6 H168 C126 S6 N36 O18 F18'
_cell_volume   6242.30457793
_cell_formula_units_Z   6
loop_
 _symmetry_equiv_pos_site_id
 _symmetry_equiv_pos_as_xyz
  1  'x, y, z'
loop_
 _atom_site_type_symbol
 _atom_site_label
 _atom_site_symmetry_multiplicity
 _atom_site_fract_x
 _atom_site_fract_y
 _atom_site_fract_z
 _atom_site_occupancy
  C  C1  1  0.295000  0.972800  0.586800  1
  C  C2  1  0.145400  0.295000  0.586800  1
  C  C3  1  0.972800  0.145400  0.586800  1
  C  C4  1  0.705000  0.027200  0.413200  1
  C  C5  1  0.854600  0.705000  0.413200  1
  C  C6  1  0.027200  0.854600  0.413200  1
  C  C7  1  0.418410  0.031910  0.277470  1.0
  C  C8  1  0.272210  0.418410  0.277470  1.0
  C  C9  1  0.031910  0.272210  0.277470  1.0
  C  C10  1  0.581590  0.968090  0.722530  1.0
  C  C11  1  0.727790  0.581590  0.722530  1.0
  C  C12  1  0.968090  0.727790  0.722530  1.0
  C  C13  1  0.456990  0.089490  0.249930  1.0
  C  C14  1  0.203590  0.456990  0.249930  1.0
  C  C15  1  0.089490  0.203590  0.249930  1.0
  C  C16  1  0.543010  0.910510  0.750070  1.0
  C  C17  1  0.796410  0.543010  0.750070  1.0
  C  C18  1  0.910510  0.796410  0.750070  1.0
  C  C19  1  0.501520  0.102420  0.177240  1.0
  C  C20  1  0.218820  0.501520  0.177240  1.0
  C  C21  1  0.102420  0.218820  0.177240  1.0
  C  C22  1  0.498480  0.897580  0.822760  1.0
  C  C23  1  0.781180  0.498480  0.822760  1.0
  C  C24  1  0.897580  0.781180  0.822760  1.0
  C  C25  1  0.497020  0.072820  0.131040  1.0
  C  C26  1  0.299120  0.497020  0.131040  1.0
  C  C27  1  0.072820  0.299120  0.131040  1.0
  C  C28  1  0.502980  0.927180  0.868960  1.0
  C  C29  1  0.700880  0.502980  0.868960  1.0
  C  C30  1  0.927180  0.700880  0.868960  1.0
  C  C31  1  0.463200  0.015000  0.164400  1.0
  C  C32  1  0.357400  0.463200  0.164400  1.0
  C  C33  1  0.015000  0.357400  0.164400  1.0
  C  C34  1  0.536800  0.985000  0.835600  1.0
  C  C35  1  0.642600  0.536800  0.835600  1.0
  C  C36  1  0.985000  0.642600  0.835600  1.0
  C  C37  1  0.467400  0.969800  0.123300  1.0
  C  C38  1  0.439500  0.467400  0.123300  1.0
  C  C39  1  0.969800  0.439500  0.123300  1.0
  C  C40  1  0.532600  0.030200  0.876700  1.0
  C  C41  1  0.560500  0.532600  0.876700  1.0
  C  C42  1  0.030200  0.560500  0.876700  1.0
  C  C43  1  0.428400  0.880100  0.113400  1.0
  C  C44  1  0.578100  0.428400  0.113400  1.0
  C  C45  1  0.880100  0.578100  0.113400  1.0
  C  C46  1  0.571600  0.119900  0.886600  1.0
  C  C47  1  0.421900  0.571600  0.886600  1.0
  C  C48  1  0.119900  0.421900  0.886600  1.0
  C  C49  1  0.366200  0.860200  0.150900  1.0
  C  C50  1  0.622700  0.366200  0.150900  1.0
  C  C51  1  0.860200  0.622700  0.150900  1.0
  C  C52  1  0.633800  0.139800  0.849100  1.0
  C  C53  1  0.377300  0.633800  0.849100  1.0
  C  C54  1  0.139800  0.377300  0.849100  1.0
  C  C55  1  0.331000  0.755200  0.269700  1.0
  C  C56  1  0.644100  0.331000  0.269700  1.0
  C  C57  1  0.755200  0.644100  0.269700  1.0
  C  C58  1  0.669000  0.244800  0.730300  1.0
  C  C59  1  0.355900  0.669000  0.730300  1.0
  C  C60  1  0.244800  0.355900  0.730300  1.0
  C  C61  1  0.240300  0.894200  0.216300  1.0
  C  C62  1  0.649200  0.240300  0.216300  1.0
  C  C63  1  0.894200  0.649200  0.216300  1.0
  C  C64  1  0.759700  0.105800  0.783700  1.0
  C  C65  1  0.350800  0.759700  0.783700  1.0
  C  C66  1  0.105800  0.350800  0.783700  1.0
  C  C67  1  0.456320  0.200920  0.271740  1.0
  C  C68  1  0.071020  0.456320  0.271740  1.0
  C  C69  1  0.200920  0.071020  0.271740  1.0
  C  C70  1  0.543680  0.799080  0.728260  1.0
  C  C71  1  0.928980  0.543680  0.728260  1.0
  C  C72  1  0.799080  0.928980  0.728260  1.0
  C  C73  1  0.454710  0.124210  0.298170  1.0
  C  C74  1  0.122910  0.454710  0.298170  1.0
  C  C75  1  0.124210  0.122910  0.298170  1.0
  C  C76  1  0.545290  0.875790  0.701830  1.0
  C  C77  1  0.877090  0.545290  0.701830  1.0
  C  C78  1  0.875790  0.877090  0.701830  1.0
  C  C79  1  0.445300  0.084300  0.372300  1.0
  C  C80  1  0.098100  0.445300  0.372300  1.0
  C  C81  1  0.084300  0.098100  0.372300  1.0
  C  C82  1  0.554700  0.915700  0.627700  1.0
  C  C83  1  0.901900  0.554700  0.627700  1.0
  C  C84  1  0.915700  0.901900  0.627700  1.0
  C  C85  1  0.442400  0.121900  0.414900  1.0
  C  C86  1  0.020800  0.442400  0.414900  1.0
  C  C87  1  0.121900  0.020800  0.414900  1.0
  C  C88  1  0.557600  0.878100  0.585100  1.0
  C  C89  1  0.979200  0.557600  0.585100  1.0
  C  C90  1  0.878100  0.979200  0.585100  1.0
  C  C91  1  0.448910  0.196210  0.381870  1.0
  C  C92  1  0.973010  0.448910  0.381870  1.0
  C  C93  1  0.196210  0.973010  0.381870  1.0
  C  C94  1  0.551090  0.803790  0.618130  1.0
  C  C95  1  0.026990  0.551090  0.618130  1.0
  C  C96  1  0.803790  0.026990  0.618130  1.0
  C  C97  1  0.443170  0.241370  0.425790  1.0
  C  C98  1  0.889670  0.443170  0.425790  1.0
  C  C99  1  0.241370  0.889670  0.425790  1.0
  C  C100  1  0.556830  0.758630  0.574210  1.0
  C  C101  1  0.110330  0.556830  0.574210  1.0
  C  C102  1  0.758630  0.110330  0.574210  1.0
  C  C103  1  0.434880  0.360680  0.435660  1.0
  C  C104  1  0.768780  0.434880  0.435660  1.0
  C  C105  1  0.360680  0.768780  0.435660  1.0
  C  C106  1  0.565120  0.639320  0.564340  1.0
  C  C107  1  0.231220  0.565120  0.564340  1.0
  C  C108  1  0.639320  0.231220  0.564340  1.0
  C  C109  1  0.379100  0.441100  0.409200  1.0
  C  C110  1  0.770600  0.379100  0.409200  1.0
  C  C111  1  0.441100  0.770600  0.409200  1.0
  C  C112  1  0.620900  0.558900  0.590800  1.0
  C  C113  1  0.229400  0.620900  0.590800  1.0
  C  C114  1  0.558900  0.229400  0.590800  1.0
  C  C115  1  0.328000  0.548400  0.306900  1.0
  C  C116  1  0.816700  0.328000  0.306900  1.0
  C  C117  1  0.548400  0.816700  0.306900  1.0
  C  C118  1  0.672000  0.451600  0.693100  1.0
  C  C119  1  0.183300  0.672000  0.693100  1.0
  C  C120  1  0.451600  0.183300  0.693100  1.0
  C  C121  1  0.470400  0.515700  0.300900  1.0
  C  C122  1  0.713000  0.470400  0.300900  1.0
  C  C123  1  0.515700  0.713000  0.300900  1.0
  C  C124  1  0.529600  0.484300  0.699100  1.0
  C  C125  1  0.287000  0.529600  0.699100  1.0
  C  C126  1  0.484300  0.287000  0.699100  1.0
  Cd  Cd127  1  0.367163  0.896433  0.275391  1.0
  Cd  Cd128  1  0.461013  0.367163  0.275391  1.0
  Cd  Cd129  1  0.896433  0.461013  0.275391  1.0
  Cd  Cd130  1  0.632837  0.103567  0.724609  1.0
  Cd  Cd131  1  0.538987  0.632837  0.724609  1.0
  Cd  Cd132  1  0.103567  0.538987  0.724609  1.0
  F  F133  1  0.313900  0.043800  0.547200  1
  F  F134  1  0.095100  0.313900  0.547200  1
  F  F135  1  0.043800  0.095100  0.547200  1
  F  F136  1  0.686100  0.956200  0.452800  1
  F  F137  1  0.904900  0.686100  0.452800  1
  F  F138  1  0.956200  0.904900  0.452800  1
  F  F139  1  0.315800  0.934700  0.651000  1
  F  F140  1  0.098500  0.315800  0.651000  1
  F  F141  1  0.934700  0.098500  0.651000  1
  F  F142  1  0.684200  0.065300  0.349000  1
  F  F143  1  0.901500  0.684200  0.349000  1
  F  F144  1  0.065300  0.901500  0.349000  1
  F  F145  1  0.214600  0.990300  0.596700  1
  F  F146  1  0.198400  0.214600  0.596700  1
  F  F147  1  0.990300  0.198400  0.596700  1
  F  F148  1  0.785400  0.009700  0.403300  1
  F  F149  1  0.801600  0.785400  0.403300  1
  F  F150  1  0.009700  0.801600  0.403300  1
  H  H151  1  0.391000  0.017400  0.327000  1.0
  H  H152  1  0.264600  0.391000  0.327000  1.0
  H  H153  1  0.017400  0.264600  0.327000  1.0
  H  H154  1  0.609000  0.982600  0.673000  1.0
  H  H155  1  0.735400  0.609000  0.673000  1.0
  H  H156  1  0.982600  0.735400  0.673000  1.0
  H  H157  1  0.535500  0.131300  0.157800  1.0
  H  H158  1  0.175400  0.535500  0.157800  1.0
  H  H159  1  0.131300  0.175400  0.157800  1.0
  H  H160  1  0.464500  0.868700  0.842200  1.0
  H  H161  1  0.824600  0.464500  0.842200  1.0
  H  H162  1  0.868700  0.824600  0.842200  1.0
  H  H163  1  0.516300  0.092100  0.080400  1.0
  H  H164  1  0.311200  0.516300  0.080400  1.0
  H  H165  1  0.092100  0.311200  0.080400  1.0
  H  H166  1  0.483700  0.907900  0.919600  1.0
  H  H167  1  0.688800  0.483700  0.919600  1.0
  H  H168  1  0.907900  0.688800  0.919600  1.0
  H  H169  1  0.496100  0.978700  0.073800  1.0
  H  H170  1  0.451400  0.496100  0.073800  1.0
  H  H171  1  0.978700  0.451400  0.073800  1.0
  H  H172  1  0.503900  0.021300  0.926200  1.0
  H  H173  1  0.548600  0.503900  0.926200  1.0
  H  H174  1  0.021300  0.548600  0.926200  1.0
  H  H175  1  0.423300  0.916800  0.065700  1.0
  H  H176  1  0.594200  0.423300  0.065700  1.0
  H  H177  1  0.916800  0.594200  0.065700  1.0
  H  H178  1  0.576700  0.083200  0.934300  1.0
  H  H179  1  0.405800  0.576700  0.934300  1.0
  H  H180  1  0.083200  0.405800  0.934300  1.0
  H  H181  1  0.477200  0.832100  0.107100  1.0
  H  H182  1  0.583600  0.477200  0.107100  1.0
  H  H183  1  0.832100  0.583600  0.107100  1.0
  H  H184  1  0.522800  0.167900  0.892900  1.0
  H  H185  1  0.416400  0.522800  0.892900  1.0
  H  H186  1  0.167900  0.416400  0.892900  1.0
  H  H187  1  0.381100  0.811700  0.139500  1.0
  H  H188  1  0.667700  0.381100  0.139500  1.0
  H  H189  1  0.811700  0.667700  0.139500  1.0
  H  H190  1  0.618900  0.188300  0.860500  1.0
  H  H191  1  0.332300  0.618900  0.860500  1.0
  H  H192  1  0.188300  0.332300  0.860500  1.0
  H  H193  1  0.325400  0.902600  0.126600  1.0
  H  H194  1  0.645400  0.325400  0.126600  1.0
  H  H195  1  0.902600  0.645400  0.126600  1.0
  H  H196  1  0.674600  0.097400  0.873400  1.0
  H  H197  1  0.354600  0.674600  0.873400  1.0
  H  H198  1  0.097400  0.354600  0.873400  1.0
  H  H199  1  0.310800  0.750600  0.320700  1.0
  H  H200  1  0.617900  0.310800  0.320700  1.0
  H  H201  1  0.750600  0.617900  0.320700  1.0
  H  H202  1  0.689200  0.249400  0.679300  1.0
  H  H203  1  0.382100  0.689200  0.679300  1.0
  H  H204  1  0.249400  0.382100  0.679300  1.0
  H  H205  1  0.387500  0.720800  0.257700  1.0
  H  H206  1  0.634000  0.387500  0.257700  1.0
  H  H207  1  0.720800  0.634000  0.257700  1.0
  H  H208  1  0.612500  0.279200  0.742300  1.0
  H  H209  1  0.366000  0.612500  0.742300  1.0
  H  H210  1  0.279200  0.366000  0.742300  1.0
  H  H211  1  0.300500  0.738500  0.259200  1.0
  H  H212  1  0.701800  0.300500  0.259200  1.0
  H  H213  1  0.738500  0.701800  0.259200  1.0
  H  H214  1  0.699500  0.261500  0.740800  1.0
  H  H215  1  0.298200  0.699500  0.740800  1.0
  H  H216  1  0.261500  0.298200  0.740800  1.0
  H  H217  1  0.201300  0.896600  0.263400  1.0
  H  H218  1  0.638700  0.201300  0.263400  1.0
  H  H219  1  0.896600  0.638700  0.263400  1.0
  H  H220  1  0.798700  0.103400  0.736600  1.0
  H  H221  1  0.361300  0.798700  0.736600  1.0
  H  H222  1  0.103400  0.361300  0.736600  1.0
  H  H223  1  0.227500  0.871100  0.194400  1.0
  H  H224  1  0.707000  0.227500  0.194400  1.0
  H  H225  1  0.871100  0.707000  0.194400  1.0
  H  H226  1  0.772500  0.128900  0.805600  1.0
  H  H227  1  0.293000  0.772500  0.805600  1.0
  H  H228  1  0.128900  0.293000  0.805600  1.0
  H  H229  1  0.238500  0.948400  0.185400  1.0
  H  H230  1  0.627700  0.238500  0.185400  1.0
  H  H231  1  0.948400  0.627700  0.185400  1.0
  H  H232  1  0.761500  0.051600  0.814600  1.0
  H  H233  1  0.372300  0.761500  0.814600  1.0
  H  H234  1  0.051600  0.372300  0.814600  1.0
  H  H235  1  0.458600  0.229900  0.222900  1.0
  H  H236  1  0.088600  0.458600  0.222900  1.0
  H  H237  1  0.229900  0.088600  0.222900  1.0
  H  H238  1  0.541400  0.770100  0.777100  1.0
  H  H239  1  0.911400  0.541400  0.777100  1.0
  H  H240  1  0.770100  0.911400  0.777100  1.0
  H  H241  1  0.441100  0.033400  0.393000  1.0
  H  H242  1  0.132500  0.441100  0.393000  1.0
  H  H243  1  0.033400  0.132500  0.393000  1.0
  H  H244  1  0.558900  0.966600  0.607000  1.0
  H  H245  1  0.867500  0.558900  0.607000  1.0
  H  H246  1  0.966600  0.867500  0.607000  1.0
  H  H247  1  0.436100  0.096700  0.464700  1.0
  H  H248  1  0.002500  0.436100  0.464700  1.0
  H  H249  1  0.096700  0.002500  0.464700  1.0
  H  H250  1  0.563900  0.903300  0.535300  1.0
  H  H251  1  0.997500  0.563900  0.535300  1.0
  H  H252  1  0.903300  0.997500  0.535300  1.0
  H  H253  1  0.434500  0.218400  0.476100  1.0
  H  H254  1  0.871000  0.434500  0.476100  1.0
  H  H255  1  0.218400  0.871000  0.476100  1.0
  H  H256  1  0.565500  0.781600  0.523900  1.0
  H  H257  1  0.129000  0.565500  0.523900  1.0
  H  H258  1  0.781600  0.129000  0.523900  1.0
  H  H259  1  0.412100  0.338300  0.487800  1.0
  H  H260  1  0.761800  0.412100  0.487800  1.0
  H  H261  1  0.338300  0.761800  0.487800  1.0
  H  H262  1  0.587900  0.661700  0.512200  1.0
  H  H263  1  0.238200  0.587900  0.512200  1.0
  H  H264  1  0.661700  0.238200  0.512200  1.0
  H  H265  1  0.486000  0.363400  0.427200  1.0
  H  H266  1  0.723400  0.486000  0.427200  1.0
  H  H267  1  0.363400  0.723400  0.427200  1.0
  H  H268  1  0.514000  0.636600  0.572800  1.0
  H  H269  1  0.276600  0.514000  0.572800  1.0
  H  H270  1  0.636600  0.276600  0.572800  1.0
  H  H271  1  0.373800  0.476800  0.431700  1.0
  H  H272  1  0.717700  0.373800  0.431700  1.0
  H  H273  1  0.476800  0.717700  0.431700  1.0
  H  H274  1  0.626200  0.523200  0.568300  1.0
  H  H275  1  0.282300  0.626200  0.568300  1.0
  H  H276  1  0.523200  0.282300  0.568300  1.0
  H  H277  1  0.325800  0.438500  0.425100  1.0
  H  H278  1  0.810600  0.325800  0.425100  1.0
  H  H279  1  0.438500  0.810600  0.425100  1.0
  H  H280  1  0.674200  0.561500  0.574900  1.0
  H  H281  1  0.189400  0.674200  0.574900  1.0
  H  H282  1  0.561500  0.189400  0.574900  1.0
  H  H283  1  0.288000  0.526900  0.319500  1.0
  H  H284  1  0.865600  0.288000  0.319500  1.0
  H  H285  1  0.526900  0.865600  0.319500  1.0
  H  H286  1  0.712000  0.473100  0.680500  1.0
  H  H287  1  0.134400  0.712000  0.680500  1.0
  H  H288  1  0.473100  0.134400  0.680500  1.0
  H  H289  1  0.341800  0.576200  0.255300  1.0
  H  H290  1  0.826700  0.341800  0.255300  1.0
  H  H291  1  0.576200  0.826700  0.255300  1.0
  H  H292  1  0.658200  0.423800  0.744700  1.0
  H  H293  1  0.173300  0.658200  0.744700  1.0
  H  H294  1  0.423800  0.173300  0.744700  1.0
  H  H295  1  0.306200  0.586100  0.333600  1.0
  H  H296  1  0.774100  0.306200  0.333600  1.0
  H  H297  1  0.586100  0.774100  0.333600  1.0
  H  H298  1  0.693800  0.413900  0.666400  1.0
  H  H299  1  0.225900  0.693800  0.666400  1.0
  H  H300  1  0.413900  0.225900  0.666400  1.0
  H  H301  1  0.486300  0.537900  0.248700  1.0
  H  H302  1  0.727100  0.486300  0.248700  1.0
  H  H303  1  0.537900  0.727100  0.248700  1.0
  H  H304  1  0.513700  0.462100  0.751300  1.0
  H  H305  1  0.272900  0.513700  0.751300  1.0
  H  H306  1  0.462100  0.272900  0.751300  1.0
  H  H307  1  0.517200  0.473500  0.316200  1.0
  H  H308  1  0.693100  0.517200  0.316200  1.0
  H  H309  1  0.473500  0.693100  0.316200  1.0
  H  H310  1  0.482800  0.526500  0.683800  1.0
  H  H311  1  0.306900  0.482800  0.683800  1.0
  H  H312  1  0.526500  0.306900  0.683800  1.0
  H  H313  1  0.447800  0.557900  0.322800  1.0
  H  H314  1  0.671500  0.447800  0.322800  1.0
  H  H315  1  0.557900  0.671500  0.322800  1.0
  H  H316  1  0.552200  0.442100  0.677200  1.0
  H  H317  1  0.328500  0.552200  0.677200  1.0
  H  H318  1  0.442100  0.328500  0.677200  1.0
  N  N319  1  0.420110  0.998610  0.235770  1.0
  N  N320  1  0.345510  0.420110  0.235770  1.0
  N  N321  1  0.998610  0.345510  0.235770  1.0
  N  N322  1  0.579890  0.001390  0.764230  1.0
  N  N323  1  0.654490  0.579890  0.764230  1.0
  N  N324  1  0.001390  0.654490  0.764230  1.0
  N  N325  1  0.433800  0.921400  0.153600  1.0
  N  N326  1  0.491200  0.433800  0.153600  1.0
  N  N327  1  0.921400  0.491200  0.153600  1.0
  N  N328  1  0.566200  0.078600  0.846400  1.0
  N  N329  1  0.508800  0.566200  0.846400  1.0
  N  N330  1  0.078600  0.508800  0.846400  1.0
  N  N331  1  0.454780  0.236780  0.312960  1.0
  N  N332  1  0.995480  0.454780  0.312960  1.0
  N  N333  1  0.236780  0.995480  0.312960  1.0
  N  N334  1  0.545220  0.763220  0.687040  1.0
  N  N335  1  0.004520  0.545220  0.687040  1.0
  N  N336  1  0.763220  0.004520  0.687040  1.0
  N  N337  1  0.449740  0.306740  0.395880  1.0
  N  N338  1  0.847640  0.449740  0.395880  1.0
  N  N339  1  0.306740  0.847640  0.395880  1.0
  N  N340  1  0.550260  0.693260  0.604120  1.0
  N  N341  1  0.152360  0.550260  0.604120  1.0
  N  N342  1  0.693260  0.152360  0.604120  1.0
  N  N343  1  0.404430  0.478730  0.326010  1.0
  N  N344  1  0.790830  0.404430  0.326010  1.0
  N  N345  1  0.478730  0.790830  0.326010  1.0
  N  N346  1  0.595570  0.521270  0.673990  1.0
  N  N347  1  0.209170  0.595570  0.673990  1.0
  N  N348  1  0.521270  0.209170  0.673990  1.0
  N  N349  1  0.321550  0.843950  0.224250  1.0
  N  N350  1  0.610250  0.321550  0.224250  1.0
  N  N351  1  0.843950  0.610250  0.224250  1.0
  N  N352  1  0.678450  0.156050  0.775750  1.0
  N  N353  1  0.389750  0.678450  0.775750  1.0
  N  N354  1  0.156050  0.389750  0.775750  1.0
  O  O355  1  0.321660  0.963360  0.460020  1
  O  O356  1  0.254960  0.321660  0.460020  1
  O  O357  1  0.963360  0.254960  0.460020  1
  O  O358  1  0.678340  0.036640  0.539980  1
  O  O359  1  0.745040  0.678340  0.539980  1
  O  O360  1  0.036640  0.745040  0.539980  1
  O  O361  1  0.342700  0.838300  0.559200  1
  O  O362  1  0.259800  0.342700  0.559200  1
  O  O363  1  0.838300  0.259800  0.559200  1
  O  O364  1  0.657300  0.161700  0.440800  1
  O  O365  1  0.740200  0.657300  0.440800  1
  O  O366  1  0.161700  0.740200  0.440800  1
  O  O367  1  0.427200  0.916200  0.509100  1
  O  O368  1  0.147500  0.427200  0.509100  1
  O  O369  1  0.916200  0.147500  0.509100  1
  O  O370  1  0.572800  0.083800  0.490900  1
  O  O371  1  0.852500  0.572800  0.490900  1
  O  O372  1  0.083800  0.852500  0.490900  1
  S  S373  1  0.349550  0.916200  0.522480  1
  S  S374  1  0.211770  0.349550  0.522480  1
  S  S375  1  0.916200  0.211770  0.522480  1
  S  S376  1  0.650450  0.083800  0.477520  1
  S  S377  1  0.788230  0.650450  0.477520  1
  S  S378  1  0.083800  0.788230  0.477520  1
