# generated using pymatgen
data_H27PdC34S4N9(OF)12
_symmetry_space_group_name_H-M   'P 1'
_cell_length_a   13.80000000
_cell_length_b   16.07100000
_cell_length_c   17.54400000
_cell_angle_alpha   90.00000000
_cell_angle_beta   90.00000000
_cell_angle_gamma   98.55000000
_symmetry_Int_Tables_number   1
_chemical_formula_structural   H27PdC34S4N9(OF)12
_chemical_formula_sum   'H108 Pd4 C136 S16 N36 O48 F48'
_cell_volume   3847.66323570
_cell_formula_units_Z   4
loop_
 _symmetry_equiv_pos_site_id
 _symmetry_equiv_pos_as_xyz
  1  'x, y, z'
loop_
 _atom_site_type_symbol
 _atom_site_label
 _atom_site_symmetry_multiplicity
 _atom_site_fract_x
 _atom_site_fract_y
 _atom_site_fract_z
 _atom_site_occupancy
  H  H1  1  0.170700  0.758600  0.229700  1
  H  H2  1  0.829300  0.741400  0.729700  1
  H  H3  1  0.829300  0.241400  0.770300  1
  H  H4  1  0.170700  0.258600  0.270300  1
  H  H5  1  0.112900  0.807500  0.172200  1
  H  H6  1  0.887100  0.692500  0.672200  1
  H  H7  1  0.887100  0.192500  0.827800  1
  H  H8  1  0.112900  0.307500  0.327800  1
  H  H9  1  0.224300  0.838500  0.187700  1
  H  H10  1  0.775700  0.661500  0.687700  1
  H  H11  1  0.775700  0.161500  0.812300  1
  H  H12  1  0.224300  0.338500  0.312300  1
  H  H13  1  0.950200  0.218800  0.598300  1
  H  H14  1  0.049800  0.281200  0.098300  1
  H  H15  1  0.049800  0.781200  0.401700  1
  H  H16  1  0.950200  0.718800  0.901700  1
  H  H17  1  0.951900  0.316000  0.608300  1
  H  H18  1  0.048100  0.184000  0.108300  1
  H  H19  1  0.048100  0.684000  0.391700  1
  H  H20  1  0.951900  0.816000  0.891700  1
  H  H21  1  0.857800  0.253300  0.630200  1
  H  H22  1  0.142200  0.246700  0.130200  1
  H  H23  1  0.142200  0.746700  0.369800  1
  H  H24  1  0.857800  0.753300  0.869800  1
  H  H25  1  0.007400  0.109700  0.594600  1
  H  H26  1  0.992600  0.390300  0.094600  1
  H  H27  1  0.992600  0.890300  0.405400  1
  H  H28  1  0.007400  0.609700  0.905400  1
  H  H29  1  0.082800  0.188300  0.571200  1
  H  H30  1  0.917200  0.311700  0.071200  1
  H  H31  1  0.917200  0.811700  0.428800  1
  H  H32  1  0.082800  0.688300  0.928800  1
  H  H33  1  0.988200  0.200200  0.616900  1
  H  H34  1  0.011800  0.299800  0.116900  1
  H  H35  1  0.011800  0.799800  0.383100  1
  H  H36  1  0.988200  0.700200  0.883100  1
  H  H37  1  0.729900  0.874500  0.419300  1.0
  H  H38  1  0.270100  0.625500  0.919300  1.0
  H  H39  1  0.270100  0.125500  0.580700  1.0
  H  H40  1  0.729900  0.374500  0.080700  1.0
  H  H41  1  0.818200  0.010300  0.430300  1.0
  H  H42  1  0.181800  0.489700  0.930300  1.0
  H  H43  1  0.181800  0.989700  0.569700  1.0
  H  H44  1  0.818200  0.510300  0.069700  1.0
  H  H45  1  0.739300  0.123300  0.428200  1.0
  H  H46  1  0.260700  0.376700  0.928200  1.0
  H  H47  1  0.260700  0.876700  0.571800  1.0
  H  H48  1  0.739300  0.623300  0.071800  1.0
  H  H49  1  0.582100  0.185000  0.415500  1.0
  H  H50  1  0.417900  0.315000  0.915500  1.0
  H  H51  1  0.417900  0.815000  0.584500  1.0
  H  H52  1  0.582100  0.685000  0.084500  1.0
  H  H53  1  0.413300  0.158100  0.393400  1.0
  H  H54  1  0.586700  0.341900  0.893400  1.0
  H  H55  1  0.586700  0.841900  0.606600  1.0
  H  H56  1  0.413300  0.658100  0.106600  1.0
  H  H57  1  0.256300  0.052900  0.378800  1.0
  H  H58  1  0.743700  0.447100  0.878800  1.0
  H  H59  1  0.743700  0.947100  0.621200  1.0
  H  H60  1  0.256300  0.552900  0.121200  1.0
  H  H61  1  0.187200  0.915900  0.362800  1.0
  H  H62  1  0.812800  0.584100  0.862800  1.0
  H  H63  1  0.812800  0.084100  0.637200  1.0
  H  H64  1  0.187200  0.415900  0.137200  1.0
  H  H65  1  0.285000  0.810200  0.373000  1.0
  H  H66  1  0.715000  0.689800  0.873000  1.0
  H  H67  1  0.715000  0.189800  0.627000  1.0
  H  H68  1  0.285000  0.310200  0.127000  1.0
  H  H69  1  0.368900  0.702200  0.259000  1.0
  H  H70  1  0.631100  0.797800  0.759000  1.0
  H  H71  1  0.631100  0.297800  0.741000  1.0
  H  H72  1  0.368900  0.202200  0.241000  1.0
  H  H73  1  0.247900  0.577800  0.282400  1.0
  H  H74  1  0.752100  0.922200  0.782400  1.0
  H  H75  1  0.752100  0.422200  0.717600  1.0
  H  H76  1  0.247900  0.077800  0.217600  1.0
  H  H77  1  0.391400  0.642800  0.476300  1.0
  H  H78  1  0.608600  0.857200  0.976300  1.0
  H  H79  1  0.608600  0.357200  0.523700  1.0
  H  H80  1  0.391400  0.142800  0.023700  1.0
  H  H81  1  0.115700  0.531900  0.389600  1.0
  H  H82  1  0.884300  0.968100  0.889600  1.0
  H  H83  1  0.884300  0.468100  0.610400  1.0
  H  H84  1  0.115700  0.031900  0.110400  1.0
  H  H85  1  0.021400  0.429800  0.463900  1.0
  H  H86  1  0.978600  0.070200  0.963900  1.0
  H  H87  1  0.978600  0.570200  0.536100  1.0
  H  H88  1  0.021400  0.929800  0.036100  1.0
  H  H89  1  0.097600  0.342700  0.538700  1.0
  H  H90  1  0.902400  0.157300  0.038700  1.0
  H  H91  1  0.902400  0.657300  0.461300  1.0
  H  H92  1  0.097600  0.842700  0.961300  1.0
  H  H93  1  0.356900  0.477400  0.488400  1.0
  H  H94  1  0.643100  0.022600  0.988400  1.0
  H  H95  1  0.643100  0.522600  0.511600  1.0
  H  H96  1  0.356900  0.977400  0.011600  1.0
  H  H97  1  0.203700  0.340800  0.674800  1.0
  H  H98  1  0.796300  0.159200  0.174800  1.0
  H  H99  1  0.796300  0.659200  0.325200  1.0
  H  H100  1  0.203700  0.840800  0.825200  1.0
  H  H101  1  0.320300  0.249700  0.715200  1.0
  H  H102  1  0.679700  0.250300  0.215200  1.0
  H  H103  1  0.679700  0.750300  0.284800  1.0
  H  H104  1  0.320300  0.749700  0.784800  1.0
  H  H105  1  0.394400  0.322400  0.506400  1.0
  H  H106  1  0.605600  0.177600  0.006400  1.0
  H  H107  1  0.605600  0.677600  0.493600  1.0
  H  H108  1  0.394400  0.822400  0.993600  1.0
  Pd  Pd109  1  0.507860  0.801640  0.389220  1.0
  Pd  Pd110  1  0.492140  0.698360  0.889220  1.0
  Pd  Pd111  1  0.492140  0.198360  0.610780  1.0
  Pd  Pd112  1  0.507860  0.301640  0.110780  1.0
  C  C113  1  0.558300  0.968800  0.168500  1
  C  C114  1  0.441700  0.531200  0.668500  1
  C  C115  1  0.441700  0.031200  0.831500  1
  C  C116  1  0.558300  0.468800  0.331500  1
  C  C117  1  0.897700  0.992100  0.239900  1
  C  C118  1  0.102300  0.507900  0.739900  1
  C  C119  1  0.102300  0.007900  0.760100  1
  C  C120  1  0.897700  0.492100  0.260100  1
  C  C121  1  0.175000  0.789900  0.182900  1
  C  C122  1  0.825000  0.710100  0.682900  1
  C  C123  1  0.825000  0.210100  0.817100  1
  C  C124  1  0.175000  0.289900  0.317100  1
  C  C125  1  0.201700  0.735500  0.119200  1
  C  C126  1  0.798300  0.764500  0.619200  1
  C  C127  1  0.798300  0.264500  0.880800  1
  C  C128  1  0.201700  0.235500  0.380800  1
  C  C129  1  0.912000  0.264000  0.595000  1
  C  C130  1  0.088000  0.236000  0.095000  1
  C  C131  1  0.088000  0.736000  0.405000  1
  C  C132  1  0.912000  0.764000  0.905000  1
  C  C133  1  0.875000  0.269000  0.518000  1
  C  C134  1  0.125000  0.231000  0.018000  1
  C  C135  1  0.125000  0.731000  0.482000  1
  C  C136  1  0.875000  0.769000  0.982000  1
  C  C137  1  0.534000  0.862800  0.156800  1
  C  C138  1  0.466000  0.637200  0.656800  1
  C  C139  1  0.466000  0.137200  0.843200  1
  C  C140  1  0.534000  0.362800  0.343200  1
  C  C141  1  0.996000  0.043000  0.279000  1
  C  C142  1  0.004000  0.457000  0.779000  1
  C  C143  1  0.004000  0.957000  0.721000  1
  C  C144  1  0.996000  0.543000  0.221000  1
  C  C145  1  0.015000  0.167000  0.579000  1
  C  C146  1  0.985000  0.333000  0.079000  1
  C  C147  1  0.985000  0.833000  0.421000  1
  C  C148  1  0.015000  0.667000  0.921000  1
  C  C149  1  0.962000  0.173000  0.508000  1
  C  C150  1  0.038000  0.327000  0.008000  1
  C  C151  1  0.038000  0.827000  0.492000  1
  C  C152  1  0.962000  0.673000  0.992000  1
  C  C153  1  0.697300  0.921100  0.416200  1.0
  C  C154  1  0.302700  0.578900  0.916200  1.0
  C  C155  1  0.302700  0.078900  0.583800  1.0
  C  C156  1  0.697300  0.421100  0.083800  1.0
  C  C157  1  0.750600  0.003100  0.423900  1.0
  C  C158  1  0.249400  0.496900  0.923900  1.0
  C  C159  1  0.249400  0.996900  0.576100  1.0
  C  C160  1  0.750600  0.503100  0.076100  1.0
  C  C161  1  0.703700  0.069900  0.421900  1.0
  C  C162  1  0.296300  0.430100  0.921900  1.0
  C  C163  1  0.296300  0.930100  0.578100  1.0
  C  C164  1  0.703700  0.569900  0.078100  1.0
  C  C165  1  0.603300  0.061700  0.410700  1.0
  C  C166  1  0.396700  0.438300  0.910700  1.0
  C  C167  1  0.396700  0.938300  0.589300  1.0
  C  C168  1  0.603300  0.561700  0.089300  1.0
  C  C169  1  0.550600  0.130100  0.409000  1.0
  C  C170  1  0.449400  0.369900  0.909000  1.0
  C  C171  1  0.449400  0.869900  0.591000  1.0
  C  C172  1  0.550600  0.630100  0.091000  1.0
  C  C173  1  0.448300  0.113100  0.397200  1.0
  C  C174  1  0.551700  0.386900  0.897200  1.0
  C  C175  1  0.551700  0.886900  0.602800  1.0
  C  C176  1  0.448300  0.613100  0.102800  1.0
  C  C177  1  0.397800  0.031700  0.391100  1.0
  C  C178  1  0.602200  0.468300  0.891100  1.0
  C  C179  1  0.602200  0.968300  0.608900  1.0
  C  C180  1  0.397800  0.531700  0.108900  1.0
  C  C181  1  0.295500  0.010500  0.380200  1.0
  C  C182  1  0.704500  0.489500  0.880200  1.0
  C  C183  1  0.704500  0.989500  0.619800  1.0
  C  C184  1  0.295500  0.510500  0.119800  1.0
  C  C185  1  0.254000  0.929500  0.371800  1.0
  C  C186  1  0.746000  0.570500  0.871800  1.0
  C  C187  1  0.746000  0.070500  0.628200  1.0
  C  C188  1  0.254000  0.429500  0.128200  1.0
  C  C189  1  0.313800  0.866200  0.376800  1.0
  C  C190  1  0.686200  0.633800  0.876800  1.0
  C  C191  1  0.686200  0.133800  0.623200  1.0
  C  C192  1  0.313800  0.366200  0.123200  1.0
  C  C193  1  0.452200  0.964200  0.394700  1.0
  C  C194  1  0.547800  0.535800  0.894700  1.0
  C  C195  1  0.547800  0.035800  0.605300  1.0
  C  C196  1  0.452200  0.464200  0.105300  1.0
  C  C197  1  0.553900  0.978600  0.403600  1.0
  C  C198  1  0.446100  0.521400  0.903600  1.0
  C  C199  1  0.446100  0.021400  0.596400  1.0
  C  C200  1  0.553900  0.478600  0.096400  1.0
  C  C201  1  0.357900  0.674600  0.305500  1.0
  C  C202  1  0.642100  0.825400  0.805500  1.0
  C  C203  1  0.642100  0.325400  0.694500  1.0
  C  C204  1  0.357900  0.174600  0.194500  1.0
  C  C205  1  0.291600  0.605700  0.317600  1.0
  C  C206  1  0.708400  0.894300  0.817600  1.0
  C  C207  1  0.708400  0.394300  0.682400  1.0
  C  C208  1  0.291600  0.105700  0.182400  1.0
  C  C209  1  0.371700  0.642300  0.425500  1.0
  C  C210  1  0.628300  0.857700  0.925500  1.0
  C  C211  1  0.628300  0.357700  0.574500  1.0
  C  C212  1  0.371700  0.142300  0.074500  1.0
  C  C213  1  0.245600  0.515900  0.434000  1.0
  C  C214  1  0.754400  0.984100  0.934000  1.0
  C  C215  1  0.754400  0.484100  0.566000  1.0
  C  C216  1  0.245600  0.015900  0.066000  1.0
  C  C217  1  0.145900  0.500500  0.424400  1.0
  C  C218  1  0.854100  0.999500  0.924400  1.0
  C  C219  1  0.854100  0.499500  0.575600  1.0
  C  C220  1  0.145900  0.000500  0.075600  1.0
  C  C221  1  0.089400  0.437300  0.467200  1.0
  C  C222  1  0.910600  0.062700  0.967200  1.0
  C  C223  1  0.910600  0.562700  0.532800  1.0
  C  C224  1  0.089400  0.937300  0.032800  1.0
  C  C225  1  0.134100  0.387500  0.513100  1.0
  C  C226  1  0.865900  0.112500  0.013100  1.0
  C  C227  1  0.865900  0.612500  0.486900  1.0
  C  C228  1  0.134100  0.887500  0.986900  1.0
  C  C229  1  0.234300  0.403700  0.521700  1.0
  C  C230  1  0.765700  0.096300  0.021700  1.0
  C  C231  1  0.765700  0.596300  0.478300  1.0
  C  C232  1  0.234300  0.903700  0.978300  1.0
  C  C233  1  0.289300  0.467500  0.482100  1.0
  C  C234  1  0.710700  0.032500  0.982100  1.0
  C  C235  1  0.710700  0.532500  0.517900  1.0
  C  C236  1  0.289300  0.967500  0.017900  1.0
  C  C237  1  0.255900  0.326300  0.646700  1.0
  C  C238  1  0.744100  0.173700  0.146700  1.0
  C  C239  1  0.744100  0.673700  0.353300  1.0
  C  C240  1  0.255900  0.826300  0.853300  1.0
  C  C241  1  0.320000  0.276600  0.668300  1.0
  C  C242  1  0.680000  0.223400  0.168300  1.0
  C  C243  1  0.680000  0.723400  0.331700  1.0
  C  C244  1  0.320000  0.776600  0.831700  1.0
  C  C245  1  0.362000  0.316300  0.553100  1.0
  C  C246  1  0.638000  0.183700  0.053100  1.0
  C  C247  1  0.638000  0.683700  0.446900  1.0
  C  C248  1  0.362000  0.816300  0.946900  1.0
  S  S249  1  0.512400  0.859700  0.158900  1
  S  S250  1  0.487600  0.640300  0.658900  1
  S  S251  1  0.487600  0.140300  0.841100  1
  S  S252  1  0.512400  0.359700  0.341100  1
  S  S253  1  0.013500  0.005900  0.286600  1
  S  S254  1  0.986500  0.494100  0.786600  1
  S  S255  1  0.986500  0.994100  0.713400  1
  S  S256  1  0.013500  0.505900  0.213400  1
  S  S257  1  0.516400  0.968400  0.173900  1
  S  S258  1  0.483600  0.531600  0.673900  1
  S  S259  1  0.483600  0.031600  0.826100  1
  S  S260  1  0.516400  0.468400  0.326100  1
  S  S261  1  0.925000  0.982000  0.208000  1
  S  S262  1  0.075000  0.518000  0.708000  1
  S  S263  1  0.075000  0.018000  0.792000  1
  S  S264  1  0.925000  0.482000  0.292000  1
  N  N265  1  0.227400  0.699100  0.067800  1
  N  N266  1  0.772600  0.800900  0.567800  1
  N  N267  1  0.772600  0.300900  0.932200  1
  N  N268  1  0.227400  0.199100  0.432200  1
  N  N269  1  0.833000  0.293000  0.466000  1
  N  N270  1  0.167000  0.207000  0.966000  1
  N  N271  1  0.167000  0.707000  0.534000  1
  N  N272  1  0.833000  0.793000  0.034000  1
  N  N273  1  0.934000  0.208000  0.455000  1
  N  N274  1  0.066000  0.292000  0.955000  1
  N  N275  1  0.066000  0.792000  0.545000  1
  N  N276  1  0.934000  0.708000  0.045000  1
  N  N277  1  0.602100  0.910400  0.404700  1.0
  N  N278  1  0.397900  0.589600  0.904700  1.0
  N  N279  1  0.397900  0.089600  0.595300  1.0
  N  N280  1  0.602100  0.410400  0.095300  1.0
  N  N281  1  0.408800  0.883300  0.386700  1.0
  N  N282  1  0.591200  0.616700  0.886700  1.0
  N  N283  1  0.591200  0.116700  0.613300  1.0
  N  N284  1  0.408800  0.383300  0.113300  1.0
  N  N285  1  0.407500  0.698400  0.372700  1.0
  N  N286  1  0.592500  0.801600  0.872700  1.0
  N  N287  1  0.592500  0.301600  0.627300  1.0
  N  N288  1  0.407500  0.198400  0.127300  1.0
  N  N289  1  0.301900  0.584700  0.393300  1.0
  N  N290  1  0.698100  0.915300  0.893300  1.0
  N  N291  1  0.698100  0.415300  0.606700  1.0
  N  N292  1  0.301900  0.084700  0.106700  1.0
  N  N293  1  0.284100  0.352300  0.572200  1.0
  N  N294  1  0.715900  0.147700  0.072200  1.0
  N  N295  1  0.715900  0.647700  0.427800  1.0
  N  N296  1  0.284100  0.852300  0.927800  1.0
  N  N297  1  0.385500  0.271200  0.610300  1.0
  N  N298  1  0.614500  0.228800  0.110300  1.0
  N  N299  1  0.614500  0.728800  0.389700  1.0
  N  N300  1  0.385500  0.771200  0.889700  1.0
  O  O301  1  0.527000  0.837300  0.082700  1
  O  O302  1  0.473000  0.662700  0.582700  1
  O  O303  1  0.473000  0.162700  0.917300  1
  O  O304  1  0.527000  0.337300  0.417300  1
  O  O305  1  0.558400  0.819100  0.219100  1
  O  O306  1  0.441600  0.680900  0.719100  1
  O  O307  1  0.441600  0.180900  0.780900  1
  O  O308  1  0.558400  0.319100  0.280900  1
  O  O309  1  0.407200  0.858200  0.175700  1
  O  O310  1  0.592800  0.641800  0.675700  1
  O  O311  1  0.592800  0.141800  0.824300  1
  O  O312  1  0.407200  0.358200  0.324300  1
  O  O313  1  0.044000  0.088600  0.255300  1
  O  O314  1  0.956000  0.411400  0.755300  1
  O  O315  1  0.956000  0.911400  0.744700  1
  O  O316  1  0.044000  0.588600  0.244700  1
  O  O317  1  0.996000  0.004000  0.367600  1
  O  O318  1  0.004000  0.496000  0.867600  1
  O  O319  1  0.004000  0.996000  0.632400  1
  O  O320  1  0.996000  0.504000  0.132400  1
  O  O321  1  0.069000  0.943100  0.259300  1
  O  O322  1  0.931000  0.556900  0.759300  1
  O  O323  1  0.931000  0.056900  0.740700  1
  O  O324  1  0.069000  0.443100  0.240700  1
  O  O325  1  0.604000  0.990000  0.219000  1
  O  O326  1  0.396000  0.510000  0.719000  1
  O  O327  1  0.396000  0.010000  0.781000  1
  O  O328  1  0.604000  0.490000  0.281000  1
  O  O329  1  0.429000  0.965000  0.219000  1
  O  O330  1  0.571000  0.535000  0.719000  1
  O  O331  1  0.571000  0.035000  0.781000  1
  O  O332  1  0.429000  0.465000  0.281000  1
  O  O333  1  0.515000  0.023000  0.108000  1
  O  O334  1  0.485000  0.477000  0.608000  1
  O  O335  1  0.485000  0.977000  0.892000  1
  O  O336  1  0.515000  0.523000  0.392000  1
  O  O337  1  0.965000  0.908000  0.236000  1
  O  O338  1  0.035000  0.592000  0.736000  1
  O  O339  1  0.035000  0.092000  0.764000  1
  O  O340  1  0.965000  0.408000  0.264000  1
  O  O341  1  0.936000  0.990000  0.126000  1
  O  O342  1  0.064000  0.510000  0.626000  1
  O  O343  1  0.064000  0.010000  0.874000  1
  O  O344  1  0.936000  0.490000  0.374000  1
  O  O345  1  0.824000  0.980000  0.231000  1
  O  O346  1  0.176000  0.520000  0.731000  1
  O  O347  1  0.176000  0.020000  0.769000  1
  O  O348  1  0.824000  0.480000  0.269000  1
  F  F349  1  0.653300  0.975700  0.158200  1
  F  F350  1  0.346700  0.524300  0.658200  1
  F  F351  1  0.346700  0.024300  0.841800  1
  F  F352  1  0.653300  0.475700  0.341800  1
  F  F353  1  0.539100  0.001900  0.234600  1
  F  F354  1  0.460900  0.498100  0.734600  1
  F  F355  1  0.460900  0.998100  0.765400  1
  F  F356  1  0.539100  0.501900  0.265400  1
  F  F357  1  0.520100  0.012300  0.114800  1
  F  F358  1  0.479900  0.487700  0.614800  1
  F  F359  1  0.479900  0.987700  0.885200  1
  F  F360  1  0.520100  0.512300  0.385200  1
  F  F361  1  0.909700  0.992000  0.165400  1
  F  F362  1  0.090300  0.508000  0.665400  1
  F  F363  1  0.090300  0.008000  0.834600  1
  F  F364  1  0.909700  0.492000  0.334600  1
  F  F365  1  0.844000  0.922600  0.264600  1
  F  F366  1  0.156000  0.577400  0.764600  1
  F  F367  1  0.156000  0.077400  0.735400  1
  F  F368  1  0.844000  0.422600  0.235400  1
  F  F369  1  0.853700  0.056200  0.260200  1
  F  F370  1  0.146300  0.443800  0.760200  1
  F  F371  1  0.146300  0.943800  0.739800  1
  F  F372  1  0.853700  0.556200  0.239800  1
  F  F373  1  0.625000  0.871000  0.134000  1
  F  F374  1  0.375000  0.629000  0.634000  1
  F  F375  1  0.375000  0.129000  0.866000  1
  F  F376  1  0.625000  0.371000  0.366000  1
  F  F377  1  0.472000  0.837000  0.102000  1
  F  F378  1  0.528000  0.663000  0.602000  1
  F  F379  1  0.528000  0.163000  0.898000  1
  F  F380  1  0.472000  0.337000  0.398000  1
  F  F381  1  0.517000  0.818000  0.219200  1
  F  F382  1  0.483000  0.682000  0.719200  1
  F  F383  1  0.483000  0.182000  0.780800  1
  F  F384  1  0.517000  0.318000  0.280800  1
  F  F385  1  0.964000  0.117000  0.280000  1
  F  F386  1  0.036000  0.383000  0.780000  1
  F  F387  1  0.036000  0.883000  0.720000  1
  F  F388  1  0.964000  0.617000  0.220000  1
  F  F389  1  0.993000  0.012000  0.348000  1
  F  F390  1  0.007000  0.488000  0.848000  1
  F  F391  1  0.007000  0.988000  0.652000  1
  F  F392  1  0.993000  0.512000  0.152000  1
  F  F393  1  0.088000  0.054000  0.255000  1
  F  F394  1  0.912000  0.446000  0.755000  1
  F  F395  1  0.912000  0.946000  0.745000  1
  F  F396  1  0.088000  0.554000  0.245000  1
