# generated using pymatgen
data_H20PdC22N8O7
_symmetry_space_group_name_H-M   'P 1'
_cell_length_a   12.31410000
_cell_length_b   14.06940000
_cell_length_c   14.07450000
_cell_angle_alpha   101.92000000
_cell_angle_beta   90.00000000
_cell_angle_gamma   90.00000000
_symmetry_Int_Tables_number   1
_chemical_formula_structural   H20PdC22N8O7
_chemical_formula_sum   'H80 Pd4 C88 N32 O28'
_cell_volume   2385.85514399
_cell_formula_units_Z   4
loop_
 _symmetry_equiv_pos_site_id
 _symmetry_equiv_pos_as_xyz
  1  'x, y, z'
loop_
 _atom_site_type_symbol
 _atom_site_label
 _atom_site_symmetry_multiplicity
 _atom_site_fract_x
 _atom_site_fract_y
 _atom_site_fract_z
 _atom_site_occupancy
  H  H1  1  0.934000  0.700000  0.694000  1
  H  H2  1  0.434000  0.300000  0.806000  1
  H  H3  1  0.066000  0.300000  0.306000  1
  H  H4  1  0.566000  0.700000  0.194000  1
  H  H5  1  0.931000  0.662000  0.588000  1
  H  H6  1  0.431000  0.338000  0.912000  1
  H  H7  1  0.069000  0.338000  0.412000  1
  H  H8  1  0.569000  0.662000  0.088000  1
  H  H9  1  0.201500  0.387300  0.888900  1.0
  H  H10  1  0.701500  0.612700  0.611100  1.0
  H  H11  1  0.798500  0.612700  0.111100  1.0
  H  H12  1  0.298500  0.387300  0.388900  1.0
  H  H13  1  0.297800  0.527100  0.886400  1.0
  H  H14  1  0.797800  0.472900  0.613600  1.0
  H  H15  1  0.702200  0.472900  0.113600  1.0
  H  H16  1  0.202200  0.527100  0.386400  1.0
  H  H17  1  0.204000  0.666500  0.871700  1.0
  H  H18  1  0.704000  0.333500  0.628300  1.0
  H  H19  1  0.796000  0.333500  0.128300  1.0
  H  H20  1  0.296000  0.666500  0.371700  1.0
  H  H21  1  0.016500  0.662100  0.859900  1.0
  H  H22  1  0.516500  0.337900  0.640100  1.0
  H  H23  1  0.983500  0.337900  0.140100  1.0
  H  H24  1  0.483500  0.662100  0.359900  1.0
  H  H25  1  0.838200  0.648600  0.860300  1.0
  H  H26  1  0.338200  0.351400  0.639700  1.0
  H  H27  1  0.161800  0.351400  0.139700  1.0
  H  H28  1  0.661800  0.648600  0.360300  1.0
  H  H29  1  0.651900  0.624900  0.872300  1.0
  H  H30  1  0.151900  0.375100  0.627700  1.0
  H  H31  1  0.348100  0.375100  0.127700  1.0
  H  H32  1  0.848100  0.624900  0.372300  1.0
  H  H33  1  0.588900  0.472800  0.884400  1.0
  H  H34  1  0.088900  0.527200  0.615600  1.0
  H  H35  1  0.411100  0.527200  0.115600  1.0
  H  H36  1  0.911100  0.472800  0.384400  1.0
  H  H37  1  0.710000  0.347900  0.881000  1.0
  H  H38  1  0.210000  0.652100  0.619000  1.0
  H  H39  1  0.290000  0.652100  0.119000  1.0
  H  H40  1  0.790000  0.347900  0.381000  1.0
  H  H41  1  0.804600  0.199400  0.705700  1.0
  H  H42  1  0.304600  0.800600  0.794300  1.0
  H  H43  1  0.195400  0.800600  0.294300  1.0
  H  H44  1  0.695400  0.199400  0.205700  1.0
  H  H45  1  0.691200  0.063400  0.728600  1.0
  H  H46  1  0.191200  0.936600  0.771400  1.0
  H  H47  1  0.308800  0.936600  0.271400  1.0
  H  H48  1  0.808800  0.063400  0.228600  1.0
  H  H49  1  0.858300  0.158900  0.970100  1.0
  H  H50  1  0.358300  0.841100  0.529900  1.0
  H  H51  1  0.141700  0.841100  0.029900  1.0
  H  H52  1  0.641700  0.158900  0.470100  1.0
  H  H53  1  0.566200  0.010200  0.844500  1.0
  H  H54  1  0.066200  0.989800  0.655500  1.0
  H  H55  1  0.433800  0.989800  0.155500  1.0
  H  H56  1  0.933800  0.010200  0.344500  1.0
  H  H57  1  0.490000  0.891600  0.916000  1.0
  H  H58  1  0.990000  0.108400  0.584000  1.0
  H  H59  1  0.510000  0.108400  0.084000  1.0
  H  H60  1  0.010000  0.891600  0.416000  1.0
  H  H61  1  0.589900  0.822500  0.022900  1.0
  H  H62  1  0.089900  0.177500  0.477100  1.0
  H  H63  1  0.410100  0.177500  0.977100  1.0
  H  H64  1  0.910100  0.822500  0.522900  1.0
  H  H65  1  0.845000  0.991700  0.989000  1.0
  H  H66  1  0.345000  0.008300  0.511000  1.0
  H  H67  1  0.155000  0.008300  0.011000  1.0
  H  H68  1  0.655000  0.991700  0.489000  1.0
  H  H69  1  0.695000  0.871700  0.205800  1.0
  H  H70  1  0.195000  0.128300  0.294200  1.0
  H  H71  1  0.305000  0.128300  0.794200  1.0
  H  H72  1  0.805000  0.871700  0.705800  1.0
  H  H73  1  0.922300  0.806000  0.003000  1.0
  H  H74  1  0.422300  0.194000  0.497000  1.0
  H  H75  1  0.077700  0.194000  0.997000  1.0
  H  H76  1  0.577700  0.806000  0.503000  1.0
  H  H77  1  0.837100  0.776400  0.264400  1.0
  H  H78  1  0.337100  0.223600  0.235600  1.0
  H  H79  1  0.162900  0.223600  0.735600  1.0
  H  H80  1  0.662900  0.776400  0.764400  1.0
  Pd  Pd81  1  0.960400  0.321220  0.866400  1.0
  Pd  Pd82  1  0.460400  0.678780  0.633600  1.0
  Pd  Pd83  1  0.039600  0.678780  0.133600  1.0
  Pd  Pd84  1  0.539600  0.321220  0.366400  1.0
  C  C85  1  0.164130  0.443270  0.883050  1.0
  C  C86  1  0.664130  0.556730  0.616950  1.0
  C  C87  1  0.835870  0.556730  0.116950  1.0
  C  C88  1  0.335870  0.443270  0.383050  1.0
  C  C89  1  0.222470  0.526700  0.881610  1.0
  C  C90  1  0.722470  0.473300  0.618390  1.0
  C  C91  1  0.777530  0.473300  0.118390  1.0
  C  C92  1  0.277530  0.526700  0.381610  1.0
  C  C93  1  0.166600  0.609330  0.872900  1.0
  C  C94  1  0.666600  0.390670  0.627100  1.0
  C  C95  1  0.833400  0.390670  0.127100  1.0
  C  C96  1  0.333400  0.609330  0.372900  1.0
  C  C97  1  0.054900  0.606720  0.866000  1.0
  C  C98  1  0.554900  0.393280  0.634000  1.0
  C  C99  1  0.945100  0.393280  0.134000  1.0
  C  C100  1  0.445100  0.606720  0.366000  1.0
  C  C101  1  0.000300  0.521140  0.868160  1.0
  C  C102  1  0.500300  0.478860  0.631840  1.0
  C  C103  1  0.999700  0.478860  0.131840  1.0
  C  C104  1  0.499700  0.521140  0.368160  1.0
  C  C105  1  0.881230  0.511890  0.866090  1.0
  C  C106  1  0.381230  0.488110  0.633910  1.0
  C  C107  1  0.118770  0.488110  0.133910  1.0
  C  C108  1  0.618770  0.511890  0.366090  1.0
  C  C109  1  0.811220  0.588130  0.865330  1.0
  C  C110  1  0.311220  0.411870  0.634670  1.0
  C  C111  1  0.188780  0.411870  0.134670  1.0
  C  C112  1  0.688780  0.588130  0.365330  1.0
  C  C113  1  0.700200  0.574040  0.872180  1.0
  C  C114  1  0.200200  0.425960  0.627820  1.0
  C  C115  1  0.299800  0.425960  0.127820  1.0
  C  C116  1  0.799800  0.574040  0.372180  1.0
  C  C117  1  0.662890  0.483600  0.878840  1.0
  C  C118  1  0.162890  0.516400  0.621160  1.0
  C  C119  1  0.337110  0.516400  0.121160  1.0
  C  C120  1  0.837110  0.483600  0.378840  1.0
  C  C121  1  0.735890  0.409110  0.877170  1.0
  C  C122  1  0.235890  0.590890  0.622830  1.0
  C  C123  1  0.264110  0.590890  0.122830  1.0
  C  C124  1  0.764110  0.409110  0.377170  1.0
  C  C125  1  0.800850  0.174250  0.761690  1.0
  C  C126  1  0.300850  0.825750  0.738310  1.0
  C  C127  1  0.199150  0.825750  0.238310  1.0
  C  C128  1  0.699150  0.174250  0.261690  1.0
  C  C129  1  0.738740  0.098910  0.773720  1.0
  C  C130  1  0.238740  0.901090  0.726280  1.0
  C  C131  1  0.261260  0.901090  0.226280  1.0
  C  C132  1  0.761260  0.098910  0.273720  1.0
  C  C133  1  0.831260  0.152220  0.907420  1.0
  C  C134  1  0.331260  0.847780  0.592580  1.0
  C  C135  1  0.168740  0.847780  0.092580  1.0
  C  C136  1  0.668740  0.152220  0.407420  1.0
  C  C137  1  0.712410  0.011690  0.910380  1.0
  C  C138  1  0.212410  0.988310  0.589620  1.0
  C  C139  1  0.287590  0.988310  0.089620  1.0
  C  C140  1  0.787590  0.011690  0.410380  1.0
  C  C141  1  0.606360  0.982510  0.887770  1.0
  C  C142  1  0.106360  0.017490  0.612230  1.0
  C  C143  1  0.393640  0.017490  0.112230  1.0
  C  C144  1  0.893640  0.982510  0.387770  1.0
  C  C145  1  0.561130  0.911570  0.930580  1.0
  C  C146  1  0.061130  0.088430  0.569420  1.0
  C  C147  1  0.438870  0.088430  0.069420  1.0
  C  C148  1  0.938870  0.911570  0.430580  1.0
  C  C149  1  0.620480  0.870340  0.994520  1.0
  C  C150  1  0.120480  0.129660  0.505480  1.0
  C  C151  1  0.379520  0.129660  0.005480  1.0
  C  C152  1  0.879520  0.870340  0.494520  1.0
  C  C153  1  0.726110  0.900900  0.015990  1.0
  C  C154  1  0.226110  0.099100  0.484010  1.0
  C  C155  1  0.273890  0.099100  0.984010  1.0
  C  C156  1  0.773890  0.900900  0.515990  1.0
  C  C157  1  0.773830  0.971720  0.974350  1.0
  C  C158  1  0.273830  0.028280  0.525650  1.0
  C  C159  1  0.226170  0.028280  0.025650  1.0
  C  C160  1  0.726170  0.971720  0.474350  1.0
  C  C161  1  0.757410  0.846770  0.172570  1.0
  C  C162  1  0.257410  0.153230  0.327430  1.0
  C  C163  1  0.242590  0.153230  0.827430  1.0
  C  C164  1  0.742590  0.846770  0.672570  1.0
  C  C165  1  0.883600  0.809860  0.060400  1.0
  C  C166  1  0.383600  0.190140  0.439600  1.0
  C  C167  1  0.116400  0.190140  0.939600  1.0
  C  C168  1  0.616400  0.809860  0.560400  1.0
  C  C169  1  0.836050  0.794080  0.204300  1.0
  C  C170  1  0.336050  0.205920  0.295700  1.0
  C  C171  1  0.163950  0.205920  0.795700  1.0
  C  C172  1  0.663950  0.794080  0.704300  1.0
  N  N173  1  0.426560  0.692200  0.932300  1
  N  N174  1  0.926560  0.307800  0.567700  1
  N  N175  1  0.573440  0.307800  0.067700  1
  N  N176  1  0.073440  0.692200  0.432300  1
  N  N177  1  0.984260  0.870470  0.836070  1
  N  N178  1  0.484260  0.129530  0.663930  1
  N  N179  1  0.015740  0.129530  0.163930  1
  N  N180  1  0.515740  0.870470  0.336070  1
  N  N181  1  0.055400  0.439960  0.876340  1.0
  N  N182  1  0.555400  0.560040  0.623660  1.0
  N  N183  1  0.944600  0.560040  0.123660  1.0
  N  N184  1  0.444600  0.439960  0.376340  1.0
  N  N185  1  0.843190  0.422220  0.870100  1.0
  N  N186  1  0.343190  0.577780  0.629900  1.0
  N  N187  1  0.156810  0.577780  0.129900  1.0
  N  N188  1  0.656810  0.422220  0.370100  1.0
  N  N189  1  0.858040  0.207970  0.846100  1.0
  N  N190  1  0.358040  0.792030  0.653900  1.0
  N  N191  1  0.141960  0.792030  0.153900  1.0
  N  N192  1  0.641960  0.207970  0.346100  1.0
  N  N193  1  0.759570  0.084840  0.865990  1.0
  N  N194  1  0.259570  0.915160  0.634010  1.0
  N  N195  1  0.240430  0.915160  0.134010  1.0
  N  N196  1  0.740430  0.084840  0.365990  1.0
  N  N197  1  0.788620  0.856070  0.081010  1.0
  N  N198  1  0.288620  0.143930  0.418990  1.0
  N  N199  1  0.211380  0.143930  0.918990  1.0
  N  N200  1  0.711380  0.856070  0.581010  1.0
  N  N201  1  0.914220  0.770690  0.133700  1.0
  N  N202  1  0.414220  0.229310  0.366300  1.0
  N  N203  1  0.085780  0.229310  0.866300  1.0
  N  N204  1  0.585780  0.770690  0.633700  1.0
  O  O205  1  0.469000  0.637100  0.978910  1
  O  O206  1  0.969000  0.362900  0.521090  1
  O  O207  1  0.531000  0.362900  0.021090  1
  O  O208  1  0.031000  0.637100  0.478910  1
  O  O209  1  0.364170  0.755990  0.969100  1
  O  O210  1  0.864170  0.244010  0.530900  1
  O  O211  1  0.635830  0.244010  0.030900  1
  O  O212  1  0.135830  0.755990  0.469100  1
  O  O213  1  0.446400  0.678600  0.846470  1
  O  O214  1  0.946400  0.321400  0.653530  1
  O  O215  1  0.553600  0.321400  0.153530  1
  O  O216  1  0.053600  0.678600  0.346470  1
  O  O217  1  0.054100  0.869900  0.895890  1
  O  O218  1  0.554100  0.130100  0.604110  1
  O  O219  1  0.945900  0.130100  0.104110  1
  O  O220  1  0.445900  0.869900  0.395890  1
  O  O221  1  0.973290  0.932900  0.789700  1
  O  O222  1  0.473290  0.067100  0.710300  1
  O  O223  1  0.026710  0.067100  0.210300  1
  O  O224  1  0.526710  0.932900  0.289700  1
  O  O225  1  0.918370  0.799910  0.823240  1
  O  O226  1  0.418370  0.200090  0.676760  1
  O  O227  1  0.081630  0.200090  0.176760  1
  O  O228  1  0.581630  0.799910  0.323240  1
  O  O229  1  0.905400  0.649200  0.645200  1
  O  O230  1  0.405400  0.350800  0.854800  1
  O  O231  1  0.094600  0.350800  0.354800  1
  O  O232  1  0.594600  0.649200  0.145200  1
