# generated using pymatgen
data_H70Pd2C44S3N16Cl8O15
_symmetry_space_group_name_H-M   'P 1'
_cell_length_a   14.18780000
_cell_length_b   14.51710000
_cell_length_c   16.37660000
_cell_angle_alpha   90.00000000
_cell_angle_beta   90.00000000
_cell_angle_gamma   102.32800000
_symmetry_Int_Tables_number   1
_chemical_formula_structural   H70Pd2C44S3N16Cl8O15
_chemical_formula_sum   'H140 Pd4 C88 S6 N32 Cl16 O30'
_cell_volume   3295.24083090
_cell_formula_units_Z   2
loop_
 _symmetry_equiv_pos_site_id
 _symmetry_equiv_pos_as_xyz
  1  'x, y, z'
loop_
 _atom_site_type_symbol
 _atom_site_label
 _atom_site_symmetry_multiplicity
 _atom_site_fract_x
 _atom_site_fract_y
 _atom_site_fract_z
 _atom_site_occupancy
  H  H1  1  0.867900  0.751600  0.750000  1
  H  H2  1  0.132100  0.248400  0.250000  1
  H  H3  1  0.759500  0.427800  0.750000  1
  H  H4  1  0.240500  0.572200  0.250000  1
  H  H5  1  0.200800  0.132600  0.750000  1
  H  H6  1  0.799200  0.867400  0.250000  1
  H  H7  1  0.531800  0.240000  0.750000  1
  H  H8  1  0.468200  0.760000  0.250000  1
  H  H9  1  0.362000  0.485600  0.808400  1
  H  H10  1  0.638000  0.514400  0.308400  1
  H  H11  1  0.638000  0.514400  0.191600  1
  H  H12  1  0.362000  0.485600  0.691600  1
  H  H13  1  0.385200  0.394700  0.768700  1
  H  H14  1  0.614800  0.605300  0.268700  1
  H  H15  1  0.614800  0.605300  0.231300  1
  H  H16  1  0.385200  0.394700  0.731300  1
  H  H17  1  0.375200  0.401200  0.863800  1
  H  H18  1  0.624800  0.598800  0.363800  1
  H  H19  1  0.624800  0.598800  0.136200  1
  H  H20  1  0.375200  0.401200  0.636200  1
  H  H21  1  0.496000  0.519200  0.956700  1
  H  H22  1  0.504000  0.480800  0.456700  1
  H  H23  1  0.504000  0.480800  0.043300  1
  H  H24  1  0.496000  0.519200  0.543300  1
  H  H25  1  0.494000  0.411400  0.946800  1
  H  H26  1  0.506000  0.588600  0.446800  1
  H  H27  1  0.506000  0.588600  0.053200  1
  H  H28  1  0.494000  0.411400  0.553200  1
  H  H29  1  0.592800  0.484500  0.948100  1
  H  H30  1  0.407200  0.515500  0.448100  1
  H  H31  1  0.407200  0.515500  0.051900  1
  H  H32  1  0.592800  0.484500  0.551900  1
  H  H33  1  0.665300  0.971400  0.490200  1.0
  H  H34  1  0.334700  0.028600  0.990200  1.0
  H  H35  1  0.334700  0.028600  0.509800  1.0
  H  H36  1  0.665300  0.971400  0.009800  1.0
  H  H37  1  0.610200  0.041900  0.531500  1.0
  H  H38  1  0.389800  0.958100  0.031500  1.0
  H  H39  1  0.389800  0.958100  0.468500  1.0
  H  H40  1  0.610200  0.041900  0.968500  1.0
  H  H41  1  0.720700  0.051100  0.547800  1.0
  H  H42  1  0.279300  0.948900  0.047800  1.0
  H  H43  1  0.279300  0.948900  0.452200  1.0
  H  H44  1  0.720700  0.051100  0.952200  1.0
  H  H45  1  0.602800  0.015200  0.357800  1.0
  H  H46  1  0.397200  0.984800  0.857800  1.0
  H  H47  1  0.397200  0.984800  0.642200  1.0
  H  H48  1  0.602800  0.015200  0.142200  1.0
  H  H49  1  0.616200  0.122800  0.337700  1.0
  H  H50  1  0.383800  0.877200  0.837700  1.0
  H  H51  1  0.383800  0.877200  0.662300  1.0
  H  H52  1  0.616200  0.122800  0.162300  1.0
  H  H53  1  0.549800  0.078900  0.410400  1.0
  H  H54  1  0.450200  0.921100  0.910400  1.0
  H  H55  1  0.450200  0.921100  0.589600  1.0
  H  H56  1  0.549800  0.078900  0.089600  1.0
  H  H57  1  0.778800  0.018000  0.388900  1.0
  H  H58  1  0.221200  0.982000  0.888900  1.0
  H  H59  1  0.221200  0.982000  0.611100  1.0
  H  H60  1  0.778800  0.018000  0.111100  1.0
  H  H61  1  0.779700  0.110100  0.338300  1.0
  H  H62  1  0.220300  0.889900  0.838300  1.0
  H  H63  1  0.220300  0.889900  0.661700  1.0
  H  H64  1  0.779700  0.110100  0.161700  1.0
  H  H65  1  0.922300  0.127000  0.405200  1.0
  H  H66  1  0.077700  0.873000  0.905200  1.0
  H  H67  1  0.077700  0.873000  0.594800  1.0
  H  H68  1  0.922300  0.127000  0.094800  1.0
  H  H69  1  0.868800  0.102000  0.488800  1.0
  H  H70  1  0.131200  0.898000  0.988800  1.0
  H  H71  1  0.131200  0.898000  0.511200  1.0
  H  H72  1  0.868800  0.102000  0.011200  1.0
  H  H73  1  0.898100  0.354100  0.383800  1.0
  H  H74  1  0.101900  0.645900  0.883800  1.0
  H  H75  1  0.101900  0.645900  0.616200  1.0
  H  H76  1  0.898100  0.354100  0.116200  1.0
  H  H77  1  0.854000  0.265400  0.330800  1.0
  H  H78  1  0.146000  0.734600  0.830800  1.0
  H  H79  1  0.146000  0.734600  0.669200  1.0
  H  H80  1  0.854000  0.265400  0.169200  1.0
  H  H81  1  0.961100  0.281300  0.360900  1.0
  H  H82  1  0.038900  0.718700  0.860900  1.0
  H  H83  1  0.038900  0.718700  0.639100  1.0
  H  H84  1  0.961100  0.281300  0.139100  1.0
  H  H85  1  0.994200  0.260500  0.506000  1.0
  H  H86  1  0.005800  0.739500  0.006000  1.0
  H  H87  1  0.005800  0.739500  0.494000  1.0
  H  H88  1  0.994200  0.260500  0.994000  1.0
  H  H89  1  0.907300  0.237200  0.567100  1.0
  H  H90  1  0.092700  0.762800  0.067100  1.0
  H  H91  1  0.092700  0.762800  0.432900  1.0
  H  H92  1  0.907300  0.237200  0.932900  1.0
  H  H93  1  0.933900  0.336600  0.525400  1.0
  H  H94  1  0.066100  0.663400  0.025400  1.0
  H  H95  1  0.066100  0.663400  0.474600  1.0
  H  H96  1  0.933900  0.336600  0.974600  1.0
  H  H97  1  0.760200  0.456800  0.416500  1.0
  H  H98  1  0.239800  0.543200  0.916500  1.0
  H  H99  1  0.239800  0.543200  0.583500  1.0
  H  H100  1  0.760200  0.456800  0.083500  1.0
  H  H101  1  0.790700  0.590400  0.509900  1.0
  H  H102  1  0.209300  0.409600  0.009900  1.0
  H  H103  1  0.209300  0.409600  0.490100  1.0
  H  H104  1  0.790700  0.590400  0.990100  1.0
  H  H105  1  0.766000  0.354400  0.638100  1.0
  H  H106  1  0.234000  0.645600  0.138100  1.0
  H  H107  1  0.234000  0.645600  0.361900  1.0
  H  H108  1  0.766000  0.354400  0.861900  1.0
  H  H109  1  0.843100  0.669500  0.626100  1.0
  H  H110  1  0.156900  0.330500  0.126100  1.0
  H  H111  1  0.156900  0.330500  0.373900  1.0
  H  H112  1  0.843100  0.669500  0.873900  1.0
  H  H113  1  0.283200  0.159900  0.627200  1.0
  H  H114  1  0.716800  0.840100  0.127200  1.0
  H  H115  1  0.716800  0.840100  0.372800  1.0
  H  H116  1  0.283200  0.159900  0.872800  1.0
  H  H117  1  0.601900  0.202500  0.633500  1.0
  H  H118  1  0.398100  0.797500  0.133500  1.0
  H  H119  1  0.398100  0.797500  0.366500  1.0
  H  H120  1  0.601900  0.202500  0.866500  1.0
  H  H121  1  0.369300  0.240300  0.514800  1.0
  H  H122  1  0.630700  0.759700  0.014800  1.0
  H  H123  1  0.630700  0.759700  0.485200  1.0
  H  H124  1  0.369300  0.240300  0.985200  1.0
  H  H125  1  0.505500  0.260900  0.419300  1.0
  H  H126  1  0.494500  0.739100  0.919300  1.0
  H  H127  1  0.494500  0.739100  0.580700  1.0
  H  H128  1  0.505500  0.260900  0.080700  1.0
  H  H129  1  0.969100  0.012700  0.883000  1.0
  H  H130  1  0.030900  0.987300  0.383000  1.0
  H  H131  1  0.030900  0.987300  0.117000  1.0
  H  H132  1  0.969100  0.012700  0.617000  1.0
  H  H133  1  0.925000  0.078700  0.825400  1.0
  H  H134  1  0.075000  0.921300  0.325400  1.0
  H  H135  1  0.075000  0.921300  0.174600  1.0
  H  H136  1  0.925000  0.078700  0.674600  1.0
  H  H137  1  0.037300  0.092100  0.833000  1.0
  H  H138  1  0.962700  0.907900  0.333000  1.0
  H  H139  1  0.962700  0.907900  0.167000  1.0
  H  H140  1  0.037300  0.092100  0.667000  1.0
  Pd  Pd141  1  0.724150  0.236690  0.477240  1.0
  Pd  Pd142  1  0.275850  0.763310  0.977240  1.0
  Pd  Pd143  1  0.275850  0.763310  0.522760  1.0
  Pd  Pd144  1  0.724150  0.236690  0.022760  1.0
  C  C145  1  0.847300  0.686300  0.750000  1
  C  C146  1  0.152700  0.313700  0.250000  1
  C  C147  1  0.782500  0.492800  0.750000  1
  C  C148  1  0.217500  0.507200  0.250000  1
  C  C149  1  0.267500  0.154000  0.750000  1
  C  C150  1  0.732500  0.846000  0.250000  1
  C  C151  1  0.465300  0.217200  0.750000  1
  C  C152  1  0.534700  0.782800  0.250000  1
  C  C153  1  0.641900  0.888100  0.750000  1
  C  C154  1  0.358100  0.111900  0.250000  1
  C  C155  1  0.094800  0.378400  0.750000  1
  C  C156  1  0.905200  0.621600  0.250000  1
  C  C157  1  0.396800  0.436100  0.815000  1
  C  C158  1  0.603200  0.563900  0.315000  1
  C  C159  1  0.603200  0.563900  0.185000  1
  C  C160  1  0.396800  0.436100  0.685000  1
  C  C161  1  0.526600  0.473800  0.931100  1
  C  C162  1  0.473400  0.526200  0.431100  1
  C  C163  1  0.473400  0.526200  0.068900  1
  C  C164  1  0.526600  0.473800  0.568900  1
  C  C165  1  0.670300  0.035300  0.507800  1.0
  C  C166  1  0.329700  0.964700  0.007800  1.0
  C  C167  1  0.329700  0.964700  0.492200  1.0
  C  C168  1  0.670300  0.035300  0.992200  1.0
  C  C169  1  0.607700  0.076900  0.380700  1.0
  C  C170  1  0.392300  0.923100  0.880700  1.0
  C  C171  1  0.392300  0.923100  0.619300  1.0
  C  C172  1  0.607700  0.076900  0.119300  1.0
  C  C173  1  0.779600  0.084800  0.393100  1.0
  C  C174  1  0.220400  0.915200  0.893100  1.0
  C  C175  1  0.220400  0.915200  0.606900  1.0
  C  C176  1  0.779600  0.084800  0.106900  1.0
  C  C177  1  0.865600  0.132300  0.436300  1.0
  C  C178  1  0.134400  0.867700  0.936300  1.0
  C  C179  1  0.134400  0.867700  0.563700  1.0
  C  C180  1  0.865600  0.132300  0.063700  1.0
  C  C181  1  0.897300  0.288600  0.374700  1.0
  C  C182  1  0.102700  0.711400  0.874700  1.0
  C  C183  1  0.102700  0.711400  0.625300  1.0
  C  C184  1  0.897300  0.288600  0.125300  1.0
  C  C185  1  0.930900  0.270400  0.518000  1.0
  C  C186  1  0.069100  0.729600  0.018000  1.0
  C  C187  1  0.069100  0.729600  0.482000  1.0
  C  C188  1  0.930900  0.270400  0.982000  1.0
  C  C189  1  0.765200  0.453100  0.473000  1.0
  C  C190  1  0.234800  0.546900  0.973000  1.0
  C  C191  1  0.234800  0.546900  0.527000  1.0
  C  C192  1  0.765200  0.453100  0.027000  1.0
  C  C193  1  0.782200  0.527100  0.524000  1.0
  C  C194  1  0.217800  0.472900  0.024000  1.0
  C  C195  1  0.217800  0.472900  0.476000  1.0
  C  C196  1  0.782200  0.527100  0.976000  1.0
  C  C197  1  0.768500  0.396300  0.594800  1.0
  C  C198  1  0.231500  0.603700  0.094800  1.0
  C  C199  1  0.231500  0.603700  0.405200  1.0
  C  C200  1  0.768500  0.396300  0.905200  1.0
  C  C201  1  0.799900  0.542000  0.677100  1.0
  C  C202  1  0.200100  0.458000  0.177100  1.0
  C  C203  1  0.200100  0.458000  0.322900  1.0
  C  C204  1  0.799900  0.542000  0.822900  1.0
  C  C205  1  0.831800  0.637400  0.675500  1.0
  C  C206  1  0.168200  0.362600  0.175500  1.0
  C  C207  1  0.168200  0.362600  0.324500  1.0
  C  C208  1  0.831800  0.637400  0.824500  1.0
  C  C209  1  0.316400  0.169700  0.676500  1.0
  C  C210  1  0.683600  0.830300  0.176500  1.0
  C  C211  1  0.683600  0.830300  0.323500  1.0
  C  C212  1  0.316400  0.169700  0.823500  1.0
  C  C213  1  0.415700  0.200200  0.677800  1.0
  C  C214  1  0.584300  0.799800  0.177800  1.0
  C  C215  1  0.584300  0.799800  0.322200  1.0
  C  C216  1  0.415700  0.200200  0.822200  1.0
  C  C217  1  0.561000  0.213800  0.592000  1.0
  C  C218  1  0.439000  0.786200  0.092000  1.0
  C  C219  1  0.439000  0.786200  0.408000  1.0
  C  C220  1  0.561000  0.213800  0.908000  1.0
  C  C221  1  0.432000  0.235200  0.526900  1.0
  C  C222  1  0.568000  0.764800  0.026900  1.0
  C  C223  1  0.568000  0.764800  0.473100  1.0
  C  C224  1  0.432000  0.235200  0.973100  1.0
  C  C225  1  0.507500  0.245600  0.474300  1.0
  C  C226  1  0.492500  0.754400  0.974300  1.0
  C  C227  1  0.492500  0.754400  0.525700  1.0
  C  C228  1  0.507500  0.245600  0.025700  1.0
  C  C229  1  0.977100  0.046700  0.832400  1.0
  C  C230  1  0.022900  0.953300  0.332400  1.0
  C  C231  1  0.022900  0.953300  0.167600  1.0
  C  C232  1  0.977100  0.046700  0.667600  1.0
  S  S233  1  0.977090  0.966360  0.750000  1
  S  S234  1  0.022910  0.033640  0.250000  1
  S  S235  1  0.521100  0.485500  0.822700  1
  S  S236  1  0.478900  0.514500  0.322700  1
  S  S237  1  0.478900  0.514500  0.177300  1
  S  S238  1  0.521100  0.485500  0.677300  1
  N  N239  1  0.840300  0.828000  0.982000  1
  N  N240  1  0.159700  0.172000  0.482000  1
  N  N241  1  0.159700  0.172000  0.018000  1
  N  N242  1  0.840300  0.828000  0.518000  1
  N  N243  1  0.761300  0.193200  0.750000  1
  N  N244  1  0.238700  0.806800  0.250000  1
  N  N245  1  0.334300  0.690700  0.750000  1
  N  N246  1  0.665700  0.309300  0.250000  1
  N  N247  1  0.692700  0.098700  0.437700  1.0
  N  N248  1  0.307300  0.901300  0.937700  1.0
  N  N249  1  0.307300  0.901300  0.562300  1.0
  N  N250  1  0.692700  0.098700  0.062300  1.0
  N  N251  1  0.864900  0.234800  0.449400  1.0
  N  N252  1  0.135100  0.765200  0.949400  1.0
  N  N253  1  0.135100  0.765200  0.550600  1.0
  N  N254  1  0.864900  0.234800  0.050600  1.0
  N  N255  1  0.756400  0.371300  0.516500  1.0
  N  N256  1  0.243600  0.628700  0.016500  1.0
  N  N257  1  0.243600  0.628700  0.483500  1.0
  N  N258  1  0.756400  0.371300  0.983500  1.0
  N  N259  1  0.784600  0.490200  0.602300  1.0
  N  N260  1  0.215400  0.509800  0.102300  1.0
  N  N261  1  0.215400  0.509800  0.397700  1.0
  N  N262  1  0.784600  0.490200  0.897700  1.0
  N  N263  1  0.467100  0.215600  0.602100  1.0
  N  N264  1  0.532900  0.784400  0.102100  1.0
  N  N265  1  0.532900  0.784400  0.397900  1.0
  N  N266  1  0.467100  0.215600  0.897900  1.0
  N  N267  1  0.587000  0.230100  0.514900  1.0
  N  N268  1  0.413000  0.769900  0.014900  1.0
  N  N269  1  0.413000  0.769900  0.485100  1.0
  N  N270  1  0.587000  0.230100  0.985100  1.0
  Cl  Cl271  1  0.553800  0.792400  0.750000  1
  Cl  Cl272  1  0.446200  0.207600  0.250000  1
  Cl  Cl273  1  0.592100  0.993300  0.750000  1
  Cl  Cl274  1  0.407900  0.006700  0.250000  1
  Cl  Cl275  1  0.969400  0.361300  0.750000  1
  Cl  Cl276  1  0.030600  0.638700  0.250000  1
  Cl  Cl277  1  0.148400  0.498000  0.750000  1
  Cl  Cl278  1  0.851600  0.502000  0.250000  1
  Cl  Cl279  1  0.716700  0.894600  0.837230  1.0
  Cl  Cl280  1  0.283300  0.105400  0.337230  1.0
  Cl  Cl281  1  0.283300  0.105400  0.162770  1.0
  Cl  Cl282  1  0.716700  0.894600  0.662770  1.0
  Cl  Cl283  1  0.130730  0.326830  0.838150  1.0
  Cl  Cl284  1  0.869270  0.673170  0.338150  1.0
  Cl  Cl285  1  0.869270  0.673170  0.161850  1.0
  Cl  Cl286  1  0.130730  0.326830  0.661850  1.0
  O  O287  1  0.800600  0.749900  0.010900  1
  O  O288  1  0.199400  0.250100  0.510900  1
  O  O289  1  0.199400  0.250100  0.989100  1
  O  O290  1  0.800600  0.749900  0.489100  1
  O  O291  1  0.900100  0.831900  0.926000  1
  O  O292  1  0.099900  0.168100  0.426000  1
  O  O293  1  0.099900  0.168100  0.074000  1
  O  O294  1  0.900100  0.831900  0.574000  1
  O  O295  1  0.816900  0.899300  0.006500  1
  O  O296  1  0.183100  0.100700  0.506500  1
  O  O297  1  0.183100  0.100700  0.993500  1
  O  O298  1  0.816900  0.899300  0.493500  1
  O  O299  1  0.711300  0.254100  0.750000  1
  O  O300  1  0.288700  0.745900  0.250000  1
  O  O301  1  0.291300  0.757200  0.750000  1
  O  O302  1  0.708700  0.242800  0.250000  1
  O  O303  1  0.074900  0.943100  0.750000  1
  O  O304  1  0.925100  0.056900  0.250000  1
  O  O305  1  0.571900  0.408600  0.832800  1
  O  O306  1  0.428100  0.591400  0.332800  1
  O  O307  1  0.428100  0.591400  0.167200  1
  O  O308  1  0.571900  0.408600  0.667200  1
  O  O309  1  0.785100  0.165000  0.816200  1.0
  O  O310  1  0.214900  0.835000  0.316200  1.0
  O  O311  1  0.214900  0.835000  0.183800  1.0
  O  O312  1  0.785100  0.165000  0.683800  1.0
  O  O313  1  0.353800  0.661000  0.815700  1.0
  O  O314  1  0.646200  0.339000  0.315700  1.0
  O  O315  1  0.646200  0.339000  0.184300  1.0
  O  O316  1  0.353800  0.661000  0.684300  1.0
