# generated using pymatgen
data_CuH3C8BrO5
_symmetry_space_group_name_H-M   'P 1'
_cell_length_a   25.68891155
_cell_length_b   25.68891155
_cell_length_c   25.68891155
_cell_angle_alpha   109.47122063
_cell_angle_beta   109.47122063
_cell_angle_gamma   109.47122063
_symmetry_Int_Tables_number   1
_chemical_formula_structural   CuH3C8BrO5
_chemical_formula_sum   'Cu24 H72 C192 Br24 O120'
_cell_volume   13050.14146862
_cell_formula_units_Z   24
loop_
 _symmetry_equiv_pos_site_id
 _symmetry_equiv_pos_as_xyz
  1  'x, y, z'
loop_
 _atom_site_type_symbol
 _atom_site_label
 _atom_site_symmetry_multiplicity
 _atom_site_fract_x
 _atom_site_fract_y
 _atom_site_fract_z
 _atom_site_occupancy
  Br  Br1  1  0.000000  0.204870  0.577850  1.0
  Br  Br2  1  0.204870  0.577850  1.000000  1.0
  Br  Br3  1  0.577850  0.000000  0.204870  1.0
  Br  Br4  1  0.000000  0.795130  0.422150  1.0
  Br  Br5  1  0.372980  0.577850  0.577850  1.0
  Br  Br6  1  0.627020  0.204870  0.204870  1.0
  Br  Br7  1  0.204870  0.627020  0.204870  1.0
  Br  Br8  1  0.577850  0.372980  0.577850  1.0
  Br  Br9  1  0.422150  0.000000  0.795130  1.0
  Br  Br10  1  0.577850  0.577850  0.372980  1.0
  Br  Br11  1  0.204870  0.204870  0.627020  1.0
  Br  Br12  1  0.795130  0.422150  0.000000  1.0
  Br  Br13  1  0.000000  0.577850  0.204870  1.0
  Br  Br14  1  0.372980  0.795130  0.795130  1.0
  Br  Br15  1  0.627020  0.422150  0.422150  1.0
  Br  Br16  1  0.577850  0.204870  0.000000  1.0
  Br  Br17  1  0.795130  0.795130  0.372980  1.0
  Br  Br18  1  0.422150  0.422150  0.627020  1.0
  Br  Br19  1  0.204870  0.000000  0.577850  1.0
  Br  Br20  1  0.795130  0.372980  0.795130  1.0
  Br  Br21  1  0.422150  0.627020  0.422150  1.0
  Br  Br22  1  0.000000  0.422150  0.795130  1.0
  Br  Br23  1  0.795130  0.000000  0.422150  1.0
  Br  Br24  1  0.422150  0.795130  0.000000  1.0
  C  C25  1  0.000000  0.144600  0.387600  1.0
  C  C26  1  0.144600  0.387600  1.000000  1.0
  C  C27  1  0.387600  0.000000  0.144600  1.0
  C  C28  1  1.000000  0.855400  0.612400  1.0
  C  C29  1  0.243000  0.387600  0.387600  1.0
  C  C30  1  0.757000  0.144600  0.144600  1.0
  C  C31  1  0.144600  0.757000  0.144600  1.0
  C  C32  1  0.387600  0.243000  0.387600  1.0
  C  C33  1  0.612400  1.000000  0.855400  1.0
  C  C34  1  0.387600  0.387600  0.243000  1.0
  C  C35  1  0.144600  0.144600  0.757000  1.0
  C  C36  1  0.855400  0.612400  1.000000  1.0
  C  C37  1  1.000000  0.387600  0.144600  1.0
  C  C38  1  0.243000  0.855400  0.855400  1.0
  C  C39  1  0.757000  0.612400  0.612400  1.0
  C  C40  1  0.387600  0.144600  0.000000  1.0
  C  C41  1  0.855400  0.855400  0.243000  1.0
  C  C42  1  0.612400  0.612400  0.757000  1.0
  C  C43  1  0.144600  0.000000  0.387600  1.0
  C  C44  1  0.855400  0.243000  0.855400  1.0
  C  C45  1  0.612400  0.757000  0.612400  1.0
  C  C46  1  0.000000  0.612400  0.855400  1.0
  C  C47  1  0.855400  0.000000  0.612400  1.0
  C  C48  1  0.612400  0.855400  0.000000  1.0
  C  C49  1  0.000000  0.182800  0.500800  1.0
  C  C50  1  0.182800  0.500800  0.000000  1.0
  C  C51  1  0.500800  0.000000  0.182800  1.0
  C  C52  1  1.000000  0.817200  0.499200  1.0
  C  C53  1  0.318000  0.500800  0.500800  1.0
  C  C54  1  0.682000  0.182800  0.182800  1.0
  C  C55  1  0.182800  0.682000  0.182800  1.0
  C  C56  1  0.500800  0.318000  0.500800  1.0
  C  C57  1  0.499200  0.000000  0.817200  1.0
  C  C58  1  0.500800  0.500800  0.318000  1.0
  C  C59  1  0.182800  0.182800  0.682000  1.0
  C  C60  1  0.817200  0.499200  0.000000  1.0
  C  C61  1  0.000000  0.500800  0.182800  1.0
  C  C62  1  0.318000  0.817200  0.817200  1.0
  C  C63  1  0.682000  0.499200  0.499200  1.0
  C  C64  1  0.500800  0.182800  0.000000  1.0
  C  C65  1  0.817200  0.817200  0.318000  1.0
  C  C66  1  0.499200  0.499200  0.682000  1.0
  C  C67  1  0.182800  1.000000  0.500800  1.0
  C  C68  1  0.817200  0.318000  0.817200  1.0
  C  C69  1  0.499200  0.682000  0.499200  1.0
  C  C70  1  0.000000  0.499200  0.817200  1.0
  C  C71  1  0.817200  0.000000  0.499200  1.0
  C  C72  1  0.499200  0.817200  0.000000  1.0
  C  C73  1  0.118100  0.201000  0.443900  1.0
  C  C74  1  0.201000  0.443900  0.118100  1.0
  C  C75  1  0.443900  0.118100  0.201000  1.0
  C  C76  1  0.118100  0.917100  0.674200  1.0
  C  C77  1  0.242900  0.443900  0.325800  1.0
  C  C78  1  0.757100  0.082900  0.201000  1.0
  C  C79  1  0.201000  0.757100  0.082900  1.0
  C  C80  1  0.325800  0.242900  0.443900  1.0
  C  C81  1  0.674200  0.118100  0.917100  1.0
  C  C82  1  0.443900  0.325800  0.242900  1.0
  C  C83  1  0.082900  0.201000  0.757100  1.0
  C  C84  1  0.917100  0.674200  0.118100  1.0
  C  C85  1  0.881900  0.325800  0.082900  1.0
  C  C86  1  0.242900  0.799000  0.917100  1.0
  C  C87  1  0.757100  0.674200  0.556100  1.0
  C  C88  1  0.325800  0.082900  0.881900  1.0
  C  C89  1  0.799000  0.917100  0.242900  1.0
  C  C90  1  0.674200  0.556100  0.757100  1.0
  C  C91  1  0.082900  0.881900  0.325800  1.0
  C  C92  1  0.917100  0.242900  0.799000  1.0
  C  C93  1  0.556100  0.757100  0.674200  1.0
  C  C94  1  0.881900  0.556100  0.799000  1.0
  C  C95  1  0.799000  0.881900  0.556100  1.0
  C  C96  1  0.556100  0.799000  0.881900  1.0
  C  C97  1  0.881900  0.799000  0.556100  1.0
  C  C98  1  0.799000  0.556100  0.881900  1.0
  C  C99  1  0.556100  0.881900  0.799000  1.0
  C  C100  1  0.881900  0.082900  0.325800  1.0
  C  C101  1  0.757100  0.556100  0.674200  1.0
  C  C102  1  0.242900  0.917100  0.799000  1.0
  C  C103  1  0.799000  0.242900  0.917100  1.0
  C  C104  1  0.674200  0.757100  0.556100  1.0
  C  C105  1  0.325800  0.881900  0.082900  1.0
  C  C106  1  0.556100  0.674200  0.757100  1.0
  C  C107  1  0.917100  0.799000  0.242900  1.0
  C  C108  1  0.082900  0.325800  0.881900  1.0
  C  C109  1  0.118100  0.674200  0.917100  1.0
  C  C110  1  0.757100  0.201000  0.082900  1.0
  C  C111  1  0.242900  0.325800  0.443900  1.0
  C  C112  1  0.674200  0.917100  0.118100  1.0
  C  C113  1  0.201000  0.082900  0.757100  1.0
  C  C114  1  0.325800  0.443900  0.242900  1.0
  C  C115  1  0.917100  0.118100  0.674200  1.0
  C  C116  1  0.082900  0.757100  0.201000  1.0
  C  C117  1  0.443900  0.242900  0.325800  1.0
  C  C118  1  0.118100  0.443900  0.201000  1.0
  C  C119  1  0.201000  0.118100  0.443900  1.0
  C  C120  1  0.443900  0.201000  0.118100  1.0
  C  C121  1  0.056600  0.181800  0.443600  1.0
  C  C122  1  0.181800  0.443600  0.056600  1.0
  C  C123  1  0.443600  0.056600  0.181800  1.0
  C  C124  1  0.056600  0.874800  0.613000  1.0
  C  C125  1  0.261800  0.443600  0.387000  1.0
  C  C126  1  0.738200  0.125200  0.181800  1.0
  C  C127  1  0.181800  0.738200  0.125200  1.0
  C  C128  1  0.387000  0.261800  0.443600  1.0
  C  C129  1  0.613000  0.056600  0.874800  1.0
  C  C130  1  0.443600  0.387000  0.261800  1.0
  C  C131  1  0.125200  0.181800  0.738200  1.0
  C  C132  1  0.874800  0.613000  0.056600  1.0
  C  C133  1  0.943400  0.387000  0.125200  1.0
  C  C134  1  0.261800  0.818200  0.874800  1.0
  C  C135  1  0.738200  0.613000  0.556400  1.0
  C  C136  1  0.387000  0.125200  0.943400  1.0
  C  C137  1  0.818200  0.874800  0.261800  1.0
  C  C138  1  0.613000  0.556400  0.738200  1.0
  C  C139  1  0.125200  0.943400  0.387000  1.0
  C  C140  1  0.874800  0.261800  0.818200  1.0
  C  C141  1  0.556400  0.738200  0.613000  1.0
  C  C142  1  0.943400  0.556400  0.818200  1.0
  C  C143  1  0.818200  0.943400  0.556400  1.0
  C  C144  1  0.556400  0.818200  0.943400  1.0
  C  C145  1  0.943400  0.818200  0.556400  1.0
  C  C146  1  0.818200  0.556400  0.943400  1.0
  C  C147  1  0.556400  0.943400  0.818200  1.0
  C  C148  1  0.943400  0.125200  0.387000  1.0
  C  C149  1  0.738200  0.556400  0.613000  1.0
  C  C150  1  0.261800  0.874800  0.818200  1.0
  C  C151  1  0.818200  0.261800  0.874800  1.0
  C  C152  1  0.613000  0.738200  0.556400  1.0
  C  C153  1  0.387000  0.943400  0.125200  1.0
  C  C154  1  0.556400  0.613000  0.738200  1.0
  C  C155  1  0.874800  0.818200  0.261800  1.0
  C  C156  1  0.125200  0.387000  0.943400  1.0
  C  C157  1  0.056600  0.613000  0.874800  1.0
  C  C158  1  0.738200  0.181800  0.125200  1.0
  C  C159  1  0.261800  0.387000  0.443600  1.0
  C  C160  1  0.613000  0.874800  0.056600  1.0
  C  C161  1  0.181800  0.125200  0.738200  1.0
  C  C162  1  0.387000  0.443600  0.261800  1.0
  C  C163  1  0.874800  0.056600  0.613000  1.0
  C  C164  1  0.125200  0.738200  0.181800  1.0
  C  C165  1  0.443600  0.261800  0.387000  1.0
  C  C166  1  0.056600  0.443600  0.181800  1.0
  C  C167  1  0.181800  0.056600  0.443600  1.0
  C  C168  1  0.443600  0.181800  0.056600  1.0
  C  C169  1  0.057400  0.201100  0.501300  1.0
  C  C170  1  0.201100  0.501300  0.057400  1.0
  C  C171  1  0.501300  0.057400  0.201100  1.0
  C  C172  1  0.057400  0.856300  0.556100  1.0
  C  C173  1  0.300200  0.501300  0.443900  1.0
  C  C174  1  0.699800  0.143700  0.201100  1.0
  C  C175  1  0.201100  0.699800  0.143700  1.0
  C  C176  1  0.443900  0.300200  0.501300  1.0
  C  C177  1  0.556100  0.057400  0.856300  1.0
  C  C178  1  0.501300  0.443900  0.300200  1.0
  C  C179  1  0.143700  0.201100  0.699800  1.0
  C  C180  1  0.856300  0.556100  0.057400  1.0
  C  C181  1  0.942600  0.443900  0.143700  1.0
  C  C182  1  0.300200  0.798900  0.856300  1.0
  C  C183  1  0.699800  0.556100  0.498700  1.0
  C  C184  1  0.443900  0.143700  0.942600  1.0
  C  C185  1  0.798900  0.856300  0.300200  1.0
  C  C186  1  0.556100  0.498700  0.699800  1.0
  C  C187  1  0.143700  0.942600  0.443900  1.0
  C  C188  1  0.856300  0.300200  0.798900  1.0
  C  C189  1  0.498700  0.699800  0.556100  1.0
  C  C190  1  0.942600  0.498700  0.798900  1.0
  C  C191  1  0.798900  0.942600  0.498700  1.0
  C  C192  1  0.498700  0.798900  0.942600  1.0
  C  C193  1  0.942600  0.798900  0.498700  1.0
  C  C194  1  0.798900  0.498700  0.942600  1.0
  C  C195  1  0.498700  0.942600  0.798900  1.0
  C  C196  1  0.942600  0.143700  0.443900  1.0
  C  C197  1  0.699800  0.498700  0.556100  1.0
  C  C198  1  0.300200  0.856300  0.798900  1.0
  C  C199  1  0.798900  0.300200  0.856300  1.0
  C  C200  1  0.556100  0.699800  0.498700  1.0
  C  C201  1  0.443900  0.942600  0.143700  1.0
  C  C202  1  0.498700  0.556100  0.699800  1.0
  C  C203  1  0.856300  0.798900  0.300200  1.0
  C  C204  1  0.143700  0.443900  0.942600  1.0
  C  C205  1  0.057400  0.556100  0.856300  1.0
  C  C206  1  0.699800  0.201100  0.143700  1.0
  C  C207  1  0.300200  0.443900  0.501300  1.0
  C  C208  1  0.556100  0.856300  0.057400  1.0
  C  C209  1  0.201100  0.143700  0.699800  1.0
  C  C210  1  0.443900  0.501300  0.300200  1.0
  C  C211  1  0.856300  0.057400  0.556100  1.0
  C  C212  1  0.143700  0.699800  0.201100  1.0
  C  C213  1  0.501300  0.300200  0.443900  1.0
  C  C214  1  0.057400  0.501300  0.201100  1.0
  C  C215  1  0.201100  0.057400  0.501300  1.0
  C  C216  1  0.501300  0.201100  0.057400  1.0
  Cu  Cu217  1  0.253750  0.253750  0.507500  1.0
  Cu  Cu218  1  0.253750  0.507500  0.253750  1.0
  Cu  Cu219  1  0.507500  0.253750  0.253750  1.0
  Cu  Cu220  1  0.253750  0.000000  0.746250  1.0
  Cu  Cu221  1  0.746250  0.000000  0.253750  1.0
  Cu  Cu222  1  0.253750  0.746250  1.000000  1.0
  Cu  Cu223  1  0.746250  0.253750  0.000000  1.0
  Cu  Cu224  1  0.000000  0.253750  0.746250  1.0
  Cu  Cu225  1  0.000000  0.746250  0.253750  1.0
  Cu  Cu226  1  0.746250  0.746250  0.492500  1.0
  Cu  Cu227  1  0.746250  0.492500  0.746250  1.0
  Cu  Cu228  1  0.492500  0.746250  0.746250  1.0
  Cu  Cu229  1  0.190380  0.190380  0.380760  1.0
  Cu  Cu230  1  0.190380  0.380760  0.190380  1.0
  Cu  Cu231  1  0.380760  0.190380  0.190380  1.0
  Cu  Cu232  1  0.190380  0.000000  0.809620  1.0
  Cu  Cu233  1  0.809620  0.000000  0.190380  1.0
  Cu  Cu234  1  0.190380  0.809620  1.000000  1.0
  Cu  Cu235  1  0.809620  0.190380  0.000000  1.0
  Cu  Cu236  1  0.000000  0.190380  0.809620  1.0
  Cu  Cu237  1  0.000000  0.809620  0.190380  1.0
  Cu  Cu238  1  0.809620  0.809620  0.619240  1.0
  Cu  Cu239  1  0.809620  0.619240  0.809620  1.0
  Cu  Cu240  1  0.619240  0.809620  0.809620  1.0
  H  H241  1  0.000000  0.132300  0.349100  1.0
  H  H242  1  0.132300  0.349100  1.000000  1.0
  H  H243  1  0.349100  0.000000  0.132300  1.0
  H  H244  1  0.000000  0.867700  0.650900  1.0
  H  H245  1  0.216800  0.349100  0.349100  1.0
  H  H246  1  0.783200  0.132300  0.132300  1.0
  H  H247  1  0.132300  0.783200  0.132300  1.0
  H  H248  1  0.349100  0.216800  0.349100  1.0
  H  H249  1  0.650900  0.000000  0.867700  1.0
  H  H250  1  0.349100  0.349100  0.216800  1.0
  H  H251  1  0.132300  0.132300  0.783200  1.0
  H  H252  1  0.867700  0.650900  0.000000  1.0
  H  H253  1  0.000000  0.349100  0.132300  1.0
  H  H254  1  0.216800  0.867700  0.867700  1.0
  H  H255  1  0.783200  0.650900  0.650900  1.0
  H  H256  1  0.349100  0.132300  0.000000  1.0
  H  H257  1  0.867700  0.867700  0.216800  1.0
  H  H258  1  0.650900  0.650900  0.783200  1.0
  H  H259  1  0.132300  1.000000  0.349100  1.0
  H  H260  1  0.867700  0.216800  0.867700  1.0
  H  H261  1  0.650900  0.783200  0.650900  1.0
  H  H262  1  0.000000  0.650900  0.867700  1.0
  H  H263  1  0.867700  0.000000  0.650900  1.0
  H  H264  1  0.650900  0.867700  0.000000  1.0
  H  H265  1  0.095900  0.225900  0.539600  1.0
  H  H266  1  0.225900  0.539600  0.095900  1.0
  H  H267  1  0.539600  0.095900  0.225900  1.0
  H  H268  1  0.095900  0.870000  0.556300  1.0
  H  H269  1  0.313700  0.539600  0.443700  1.0
  H  H270  1  0.686300  0.130000  0.225900  1.0
  H  H271  1  0.225900  0.686300  0.130000  1.0
  H  H272  1  0.443700  0.313700  0.539600  1.0
  H  H273  1  0.556300  0.095900  0.870000  1.0
  H  H274  1  0.539600  0.443700  0.313700  1.0
  H  H275  1  0.130000  0.225900  0.686300  1.0
  H  H276  1  0.870000  0.556300  0.095900  1.0
  H  H277  1  0.904100  0.443700  0.130000  1.0
  H  H278  1  0.313700  0.774100  0.870000  1.0
  H  H279  1  0.686300  0.556300  0.460400  1.0
  H  H280  1  0.443700  0.130000  0.904100  1.0
  H  H281  1  0.774100  0.870000  0.313700  1.0
  H  H282  1  0.556300  0.460400  0.686300  1.0
  H  H283  1  0.130000  0.904100  0.443700  1.0
  H  H284  1  0.870000  0.313700  0.774100  1.0
  H  H285  1  0.460400  0.686300  0.556300  1.0
  H  H286  1  0.904100  0.460400  0.774100  1.0
  H  H287  1  0.774100  0.904100  0.460400  1.0
  H  H288  1  0.460400  0.774100  0.904100  1.0
  H  H289  1  0.904100  0.774100  0.460400  1.0
  H  H290  1  0.774100  0.460400  0.904100  1.0
  H  H291  1  0.460400  0.904100  0.774100  1.0
  H  H292  1  0.904100  0.130000  0.443700  1.0
  H  H293  1  0.686300  0.460400  0.556300  1.0
  H  H294  1  0.313700  0.870000  0.774100  1.0
  H  H295  1  0.774100  0.313700  0.870000  1.0
  H  H296  1  0.556300  0.686300  0.460400  1.0
  H  H297  1  0.443700  0.904100  0.130000  1.0
  H  H298  1  0.460400  0.556300  0.686300  1.0
  H  H299  1  0.870000  0.774100  0.313700  1.0
  H  H300  1  0.130000  0.443700  0.904100  1.0
  H  H301  1  0.095900  0.556300  0.870000  1.0
  H  H302  1  0.686300  0.225900  0.130000  1.0
  H  H303  1  0.313700  0.443700  0.539600  1.0
  H  H304  1  0.556300  0.870000  0.095900  1.0
  H  H305  1  0.225900  0.130000  0.686300  1.0
  H  H306  1  0.443700  0.539600  0.313700  1.0
  H  H307  1  0.870000  0.095900  0.556300  1.0
  H  H308  1  0.130000  0.686300  0.225900  1.0
  H  H309  1  0.539600  0.313700  0.443700  1.0
  H  H310  1  0.095900  0.539600  0.225900  1.0
  H  H311  1  0.225900  0.095900  0.539600  1.0
  H  H312  1  0.539600  0.225900  0.095900  1.0
  O  O313  1  0.305200  0.305200  0.610400  1.0
  O  O314  1  0.305200  0.610400  0.305200  1.0
  O  O315  1  0.610400  0.305200  0.305200  1.0
  O  O316  1  0.305200  0.000000  0.694800  1.0
  O  O317  1  0.694800  0.000000  0.305200  1.0
  O  O318  1  0.305200  0.694800  1.000000  1.0
  O  O319  1  0.694800  0.305200  0.000000  1.0
  O  O320  1  0.000000  0.305200  0.694800  1.0
  O  O321  1  0.000000  0.694800  0.305200  1.0
  O  O322  1  0.694800  0.694800  0.389600  1.0
  O  O323  1  0.694800  0.389600  0.694800  1.0
  O  O324  1  0.389600  0.694800  0.694800  1.0
  O  O325  1  0.139600  0.139600  0.279200  1.0
  O  O326  1  0.139600  0.279200  0.139600  1.0
  O  O327  1  0.279200  0.139600  0.139600  1.0
  O  O328  1  0.139600  0.000000  0.860400  1.0
  O  O329  1  0.860400  0.000000  0.139600  1.0
  O  O330  1  0.139600  0.860400  1.000000  1.0
  O  O331  1  0.860400  0.139600  0.000000  1.0
  O  O332  1  0.000000  0.139600  0.860400  1.0
  O  O333  1  0.000000  0.860400  0.139600  1.0
  O  O334  1  0.860400  0.860400  0.720800  1.0
  O  O335  1  0.860400  0.720800  0.860400  1.0
  O  O336  1  0.720800  0.860400  0.860400  1.0
  O  O337  1  0.168300  0.233700  0.497200  1.0
  O  O338  1  0.233700  0.497200  0.168300  1.0
  O  O339  1  0.497200  0.168300  0.233700  1.0
  O  O340  1  0.168300  0.934600  0.671100  1.0
  O  O341  1  0.263500  0.497200  0.328900  1.0
  O  O342  1  0.736500  0.065400  0.233700  1.0
  O  O343  1  0.233700  0.736500  0.065400  1.0
  O  O344  1  0.328900  0.263500  0.497200  1.0
  O  O345  1  0.671100  0.168300  0.934600  1.0
  O  O346  1  0.497200  0.328900  0.263500  1.0
  O  O347  1  0.065400  0.233700  0.736500  1.0
  O  O348  1  0.934600  0.671100  0.168300  1.0
  O  O349  1  0.831700  0.328900  0.065400  1.0
  O  O350  1  0.263500  0.766300  0.934600  1.0
  O  O351  1  0.736500  0.671100  0.502800  1.0
  O  O352  1  0.328900  0.065400  0.831700  1.0
  O  O353  1  0.766300  0.934600  0.263500  1.0
  O  O354  1  0.671100  0.502800  0.736500  1.0
  O  O355  1  0.065400  0.831700  0.328900  1.0
  O  O356  1  0.934600  0.263500  0.766300  1.0
  O  O357  1  0.502800  0.736500  0.671100  1.0
  O  O358  1  0.831700  0.502800  0.766300  1.0
  O  O359  1  0.766300  0.831700  0.502800  1.0
  O  O360  1  0.502800  0.766300  0.831700  1.0
  O  O361  1  0.831700  0.766300  0.502800  1.0
  O  O362  1  0.766300  0.502800  0.831700  1.0
  O  O363  1  0.502800  0.831700  0.766300  1.0
  O  O364  1  0.831700  0.065400  0.328900  1.0
  O  O365  1  0.736500  0.502800  0.671100  1.0
  O  O366  1  0.263500  0.934600  0.766300  1.0
  O  O367  1  0.766300  0.263500  0.934600  1.0
  O  O368  1  0.671100  0.736500  0.502800  1.0
  O  O369  1  0.328900  0.831700  0.065400  1.0
  O  O370  1  0.502800  0.671100  0.736500  1.0
  O  O371  1  0.934600  0.766300  0.263500  1.0
  O  O372  1  0.065400  0.328900  0.831700  1.0
  O  O373  1  0.168300  0.671100  0.934600  1.0
  O  O374  1  0.736500  0.233700  0.065400  1.0
  O  O375  1  0.263500  0.328900  0.497200  1.0
  O  O376  1  0.671100  0.934600  0.168300  1.0
  O  O377  1  0.233700  0.065400  0.736500  1.0
  O  O378  1  0.328900  0.497200  0.263500  1.0
  O  O379  1  0.934600  0.168300  0.671100  1.0
  O  O380  1  0.065400  0.736500  0.233700  1.0
  O  O381  1  0.497200  0.263500  0.328900  1.0
  O  O382  1  0.168300  0.497200  0.233700  1.0
  O  O383  1  0.233700  0.168300  0.497200  1.0
  O  O384  1  0.497200  0.233700  0.168300  1.0
  O  O385  1  0.115900  0.181000  0.390900  1.0
  O  O386  1  0.181000  0.390900  0.115900  1.0
  O  O387  1  0.390900  0.115900  0.181000  1.0
  O  O388  1  0.115900  0.934900  0.725000  1.0
  O  O389  1  0.209900  0.390900  0.275000  1.0
  O  O390  1  0.790100  0.065100  0.181000  1.0
  O  O391  1  0.181000  0.790100  0.065100  1.0
  O  O392  1  0.275000  0.209900  0.390900  1.0
  O  O393  1  0.725000  0.115900  0.934900  1.0
  O  O394  1  0.390900  0.275000  0.209900  1.0
  O  O395  1  0.065100  0.181000  0.790100  1.0
  O  O396  1  0.934900  0.725000  0.115900  1.0
  O  O397  1  0.884100  0.275000  0.065100  1.0
  O  O398  1  0.209900  0.819000  0.934900  1.0
  O  O399  1  0.790100  0.725000  0.609100  1.0
  O  O400  1  0.275000  0.065100  0.884100  1.0
  O  O401  1  0.819000  0.934900  0.209900  1.0
  O  O402  1  0.725000  0.609100  0.790100  1.0
  O  O403  1  0.065100  0.884100  0.275000  1.0
  O  O404  1  0.934900  0.209900  0.819000  1.0
  O  O405  1  0.609100  0.790100  0.725000  1.0
  O  O406  1  0.884100  0.609100  0.819000  1.0
  O  O407  1  0.819000  0.884100  0.609100  1.0
  O  O408  1  0.609100  0.819000  0.884100  1.0
  O  O409  1  0.884100  0.819000  0.609100  1.0
  O  O410  1  0.819000  0.609100  0.884100  1.0
  O  O411  1  0.609100  0.884100  0.819000  1.0
  O  O412  1  0.884100  0.065100  0.275000  1.0
  O  O413  1  0.790100  0.609100  0.725000  1.0
  O  O414  1  0.209900  0.934900  0.819000  1.0
  O  O415  1  0.819000  0.209900  0.934900  1.0
  O  O416  1  0.725000  0.790100  0.609100  1.0
  O  O417  1  0.275000  0.884100  0.065100  1.0
  O  O418  1  0.609100  0.725000  0.790100  1.0
  O  O419  1  0.934900  0.819000  0.209900  1.0
  O  O420  1  0.065100  0.275000  0.884100  1.0
  O  O421  1  0.115900  0.725000  0.934900  1.0
  O  O422  1  0.790100  0.181000  0.065100  1.0
  O  O423  1  0.209900  0.275000  0.390900  1.0
  O  O424  1  0.725000  0.934900  0.115900  1.0
  O  O425  1  0.181000  0.065100  0.790100  1.0
  O  O426  1  0.275000  0.390900  0.209900  1.0
  O  O427  1  0.934900  0.115900  0.725000  1.0
  O  O428  1  0.065100  0.790100  0.181000  1.0
  O  O429  1  0.390900  0.209900  0.275000  1.0
  O  O430  1  0.115900  0.390900  0.181000  1.0
  O  O431  1  0.181000  0.115900  0.390900  1.0
  O  O432  1  0.390900  0.181000  0.115900  1.0
