# generated using pymatgen
data_FeP5H102Pt2C59(Cl3O2)2
_symmetry_space_group_name_H-M   'P 1'
_cell_length_a   11.03410000
_cell_length_b   16.25720000
_cell_length_c   17.73000000
_cell_angle_alpha   101.28920000
_cell_angle_beta   96.48380000
_cell_angle_gamma   90.72740000
_symmetry_Int_Tables_number   1
_chemical_formula_structural   FeP5H102Pt2C59(Cl3O2)2
_chemical_formula_sum   'Fe2 P10 H204 Pt4 C118 Cl12 O8'
_cell_volume   3097.00713816
_cell_formula_units_Z   2
loop_
 _symmetry_equiv_pos_site_id
 _symmetry_equiv_pos_as_xyz
  1  'x, y, z'
loop_
 _atom_site_type_symbol
 _atom_site_label
 _atom_site_symmetry_multiplicity
 _atom_site_fract_x
 _atom_site_fract_y
 _atom_site_fract_z
 _atom_site_occupancy
  Fe  Fe1  1  0.675650  0.622360  0.994780  1.0
  Fe  Fe2  1  0.324350  0.377640  0.005220  1.0
  P  P3  1  0.614400  0.951900  0.178700  1
  P  P4  1  0.385600  0.048100  0.821300  1
  P  P5  1  0.571000  0.950030  0.208970  1.0
  P  P6  1  0.429000  0.049970  0.791030  1.0
  P  P7  1  0.927180  0.856870  0.320190  1.0
  P  P8  1  0.072820  0.143130  0.679810  1.0
  P  P9  1  0.030460  0.648160  0.792740  1.0
  P  P10  1  0.969540  0.351840  0.207260  1.0
  P  P11  1  0.689710  0.696010  0.635560  1.0
  P  P12  1  0.310290  0.303990  0.364440  1.0
  H  H13  1  0.479700  0.545000  0.262700  1
  H  H14  1  0.520300  0.455000  0.737300  1
  H  H15  1  0.576600  0.618200  0.259600  1
  H  H16  1  0.423400  0.381800  0.740400  1
  H  H17  1  0.250800  0.578000  0.199300  1
  H  H18  1  0.749200  0.422000  0.800700  1
  H  H19  1  0.225700  0.673900  0.234500  1
  H  H20  1  0.774300  0.326100  0.765500  1
  H  H21  1  0.811400  0.826500  0.859700  1
  H  H22  1  0.188600  0.173500  0.140300  1
  H  H23  1  0.705600  0.892700  0.867000  1
  H  H24  1  0.294400  0.107300  0.133000  1
  H  H25  1  0.537500  0.068800  0.249700  1
  H  H26  1  0.462500  0.931200  0.750300  1
  H  H27  1  0.648300  0.094600  0.208400  1
  H  H28  1  0.351700  0.905400  0.791600  1
  H  H29  1  0.484200  0.155700  0.173100  1
  H  H30  1  0.515800  0.844300  0.826900  1
  H  H31  1  0.411200  0.067400  0.143600  1
  H  H32  1  0.588800  0.932600  0.856400  1
  H  H33  1  0.522400  0.090800  0.100200  1
  H  H34  1  0.477600  0.909200  0.899800  1
  H  H35  1  0.403400  0.922100  0.147300  1
  H  H36  1  0.596600  0.077900  0.852700  1
  H  H37  1  0.472500  0.837800  0.154100  1
  H  H38  1  0.527500  0.162200  0.845900  1
  H  H39  1  0.347600  0.869200  0.247800  1
  H  H40  1  0.652400  0.130800  0.752200  1
  H  H41  1  0.417100  0.958400  0.279400  1
  H  H42  1  0.582900  0.041600  0.720600  1
  H  H43  1  0.486500  0.873800  0.286200  1
  H  H44  1  0.513500  0.126200  0.713800  1
  H  H45  1  0.638900  0.866600  0.061100  1
  H  H46  1  0.361100  0.133400  0.938900  1
  H  H47  1  0.571500  0.949700  0.047600  1
  H  H48  1  0.428500  0.050300  0.952400  1
  H  H49  1  0.767400  0.948600  0.003700  1
  H  H50  1  0.232600  0.051400  0.996300  1
  H  H51  1  0.831000  0.943500  0.088300  1
  H  H52  1  0.169000  0.056500  0.911700  1
  H  H53  1  0.763200  0.026500  0.074200  1
  H  H54  1  0.236800  0.973500  0.925800  1
  H  H55  1  0.249900  0.219300  0.438700  1
  H  H56  1  0.750100  0.780700  0.561300  1
  H  H57  1  0.265400  0.168300  0.355700  1
  H  H58  1  0.734600  0.831700  0.644300  1
  H  H59  1  0.350700  0.103000  0.435800  1
  H  H60  1  0.649300  0.897000  0.564200  1
  H  H61  1  0.425300  0.184300  0.485900  1
  H  H62  1  0.574700  0.815700  0.514100  1
  H  H63  1  0.459900  0.143800  0.401700  1
  H  H64  1  0.540100  0.856200  0.598300  1
  H  H65  1  0.552400  0.503400  0.881600  1.0
  H  H66  1  0.447600  0.496600  0.118400  1.0
  H  H67  1  0.439200  0.571400  0.993800  1.0
  H  H68  1  0.560800  0.428600  0.006200  1.0
  H  H69  1  0.489000  0.728200  0.020800  1.0
  H  H70  1  0.511000  0.271800  0.979200  1.0
  H  H71  1  0.634400  0.757500  0.928000  1.0
  H  H72  1  0.365600  0.242500  0.072000  1.0
  H  H73  1  0.881000  0.722300  0.041200  1.0
  H  H74  1  0.119000  0.277700  0.958800  1.0
  H  H75  1  0.902700  0.574200  0.963200  1.0
  H  H76  1  0.097300  0.425800  0.036800  1.0
  H  H77  1  0.773600  0.474000  0.015200  1.0
  H  H78  1  0.226400  0.526000  0.984800  1.0
  H  H79  1  0.669500  0.558300  0.124200  1.0
  H  H80  1  0.330500  0.441700  0.875800  1.0
  H  H81  1  0.636200  0.949400  0.410700  1.0
  H  H82  1  0.363800  0.050600  0.589300  1.0
  H  H83  1  0.624200  0.062500  0.509200  1.0
  H  H84  1  0.375800  0.937500  0.490800  1.0
  H  H85  1  0.683400  0.208800  0.575200  1.0
  H  H86  1  0.316600  0.791200  0.424800  1.0
  H  H87  1  0.791700  0.332000  0.581700  1.0
  H  H88  1  0.208300  0.668000  0.418300  1.0
  H  H89  1  0.938700  0.414700  0.528100  1.0
  H  H90  1  0.061300  0.585300  0.471900  1.0
  H  H91  1  0.061700  0.428600  0.432000  1.0
  H  H92  1  0.938300  0.571400  0.568000  1.0
  H  H93  1  0.021500  0.810300  0.675500  1.0
  H  H94  1  0.978500  0.189700  0.324500  1.0
  H  H95  1  0.862500  0.083300  0.312900  1.0
  H  H96  1  0.137500  0.916700  0.687100  1.0
  H  H97  1  0.488600  0.073800  0.178700  1.0
  H  H98  1  0.511400  0.926200  0.821300  1.0
  H  H99  1  0.591600  0.096400  0.251300  1.0
  H  H100  1  0.408400  0.903600  0.748700  1.0
  H  H101  1  0.658900  0.139200  0.143700  1.0
  H  H102  1  0.341100  0.860800  0.856300  1.0
  H  H103  1  0.641100  0.045100  0.094900  1.0
  H  H104  1  0.358900  0.954900  0.905100  1.0
  H  H105  1  0.744300  0.067400  0.167500  1.0
  H  H106  1  0.255700  0.932600  0.832500  1.0
  H  H107  1  0.466300  0.991700  0.318700  1.0
  H  H108  1  0.533700  0.008300  0.681300  1.0
  H  H109  1  0.370200  0.967600  0.242500  1.0
  H  H110  1  0.629800  0.032400  0.757500  1.0
  H  H111  1  0.355500  0.868300  0.321200  1.0
  H  H112  1  0.644500  0.131700  0.678800  1.0
  H  H113  1  0.496300  0.847800  0.317000  1.0
  H  H114  1  0.503700  0.152200  0.683000  1.0
  H  H115  1  0.400100  0.823800  0.240800  1.0
  H  H116  1  0.599900  0.176200  0.759200  1.0
  H  H117  1  0.575500  0.884800  0.081800  1.0
  H  H118  1  0.424500  0.115200  0.918200  1.0
  H  H119  1  0.504100  0.826600  0.125900  1.0
  H  H120  1  0.495900  0.173400  0.874100  1.0
  H  H121  1  0.371500  0.866700  0.029000  1.0
  H  H122  1  0.628500  0.133300  0.971000  1.0
  H  H123  1  0.400400  0.963700  0.066700  1.0
  H  H124  1  0.599600  0.036300  0.933300  1.0
  H  H125  1  0.328600  0.905600  0.111400  1.0
  H  H126  1  0.671400  0.094400  0.888600  1.0
  H  H127  1  0.950900  0.952500  0.438300  1.0
  H  H128  1  0.049100  0.047500  0.561700  1.0
  H  H129  1  0.058400  0.887600  0.435800  1.0
  H  H130  1  0.941600  0.112400  0.564200  1.0
  H  H131  1  0.162800  0.961800  0.361300  1.0
  H  H132  1  0.837200  0.038200  0.638700  1.0
  H  H133  1  0.131900  0.025900  0.436800  1.0
  H  H134  1  0.868100  0.974100  0.563200  1.0
  H  H135  1  0.051900  0.023600  0.355200  1.0
  H  H136  1  0.948100  0.976400  0.644800  1.0
  H  H137  1  0.851000  0.719100  0.307900  1.0
  H  H138  1  0.149000  0.280900  0.692100  1.0
  H  H139  1  0.964100  0.737900  0.374500  1.0
  H  H140  1  0.035900  0.262100  0.625500  1.0
  H  H141  1  0.839000  0.817600  0.456800  1.0
  H  H142  1  0.161000  0.182400  0.543200  1.0
  H  H143  1  0.787600  0.722700  0.429200  1.0
  H  H144  1  0.212400  0.277300  0.570800  1.0
  H  H145  1  0.726000  0.795300  0.390400  1.0
  H  H146  1  0.274000  0.204700  0.609600  1.0
  H  H147  1  0.117100  0.809900  0.287700  1.0
  H  H148  1  0.882900  0.190100  0.712300  1.0
  H  H149  1  0.011100  0.760900  0.225900  1.0
  H  H150  1  0.988900  0.239100  0.774100  1.0
  H  H151  1  0.992600  0.875900  0.165400  1.0
  H  H152  1  0.007400  0.124100  0.834600  1.0
  H  H153  1  0.129400  0.844200  0.168300  1.0
  H  H154  1  0.870600  0.155800  0.831700  1.0
  H  H155  1  0.097300  0.926100  0.227900  1.0
  H  H156  1  0.902700  0.073900  0.772100  1.0
  H  H157  1  0.949600  0.532300  0.831300  1.0
  H  H158  1  0.050400  0.467700  0.168700  1.0
  H  H159  1  0.094600  0.526800  0.834000  1.0
  H  H160  1  0.905400  0.473200  0.166000  1.0
  H  H161  1  0.075600  0.481600  0.697400  1.0
  H  H162  1  0.924400  0.518400  0.302600  1.0
  H  H163  1  0.995000  0.420100  0.733500  1.0
  H  H164  1  0.005000  0.579900  0.266500  1.0
  H  H165  1  0.930800  0.490400  0.692800  1.0
  H  H166  1  0.069200  0.509600  0.307200  1.0
  H  H167  1  0.193400  0.721400  0.759200  1.0
  H  H168  1  0.806600  0.278600  0.240800  1.0
  H  H169  1  0.183000  0.627600  0.710200  1.0
  H  H170  1  0.817000  0.372400  0.289800  1.0
  H  H171  1  0.278000  0.579400  0.818800  1.0
  H  H172  1  0.722000  0.420600  0.181200  1.0
  H  H173  1  0.364200  0.646900  0.793900  1.0
  H  H174  1  0.635800  0.353100  0.206100  1.0
  H  H175  1  0.290100  0.673800  0.866900  1.0
  H  H176  1  0.709900  0.326200  0.133100  1.0
  H  H177  1  0.096300  0.675500  0.926100  1.0
  H  H178  1  0.903700  0.324500  0.073900  1.0
  H  H179  1  0.958700  0.703800  0.911200  1.0
  H  H180  1  0.041300  0.296200  0.088800  1.0
  H  H181  1  0.024700  0.825700  0.875900  1.0
  H  H182  1  0.975300  0.174300  0.124100  1.0
  H  H183  1  0.099000  0.820500  0.957600  1.0
  H  H184  1  0.901000  0.179500  0.042400  1.0
  H  H185  1  0.162500  0.795900  0.879800  1.0
  H  H186  1  0.837500  0.204100  0.120200  1.0
  H  H187  1  0.734800  0.617400  0.517700  1.0
  H  H188  1  0.265200  0.382600  0.482300  1.0
  H  H189  1  0.590400  0.624800  0.517100  1.0
  H  H190  1  0.409600  0.375200  0.482900  1.0
  H  H191  1  0.580900  0.519800  0.586600  1.0
  H  H192  1  0.419100  0.480200  0.413400  1.0
  H  H193  1  0.657900  0.485900  0.516300  1.0
  H  H194  1  0.342100  0.514100  0.483700  1.0
  H  H195  1  0.726500  0.518500  0.601700  1.0
  H  H196  1  0.273500  0.481500  0.398300  1.0
  H  H197  1  0.555300  0.737900  0.727500  1.0
  H  H198  1  0.444700  0.262100  0.272500  1.0
  H  H199  1  0.541500  0.638900  0.696500  1.0
  H  H200  1  0.458500  0.361100  0.303500  1.0
  H  H201  1  0.418500  0.658800  0.585100  1.0
  H  H202  1  0.581500  0.341200  0.414900  1.0
  H  H203  1  0.361700  0.705200  0.660700  1.0
  H  H204  1  0.638300  0.294800  0.339300  1.0
  H  H205  1  0.435900  0.758500  0.612900  1.0
  H  H206  1  0.564100  0.241500  0.387100  1.0
  H  H207  1  0.620100  0.789800  0.559700  1.0
  H  H208  1  0.379900  0.210200  0.440300  1.0
  H  H209  1  0.765700  0.794900  0.574200  1.0
  H  H210  1  0.234300  0.205100  0.425800  1.0
  H  H211  1  0.760400  0.868400  0.690400  1.0
  H  H212  1  0.239600  0.131600  0.309600  1.0
  H  H213  1  0.682500  0.910900  0.627400  1.0
  H  H214  1  0.317500  0.089100  0.372600  1.0
  H  H215  1  0.614500  0.859900  0.680000  1.0
  H  H216  1  0.385500  0.140100  0.320000  1.0
  Pt  Pt217  1  0.756830  0.907155  0.260231  1.0
  Pt  Pt218  1  0.243170  0.092845  0.739769  1.0
  Pt  Pt219  1  0.862330  0.679140  0.715820  1.0
  Pt  Pt220  1  0.137670  0.320860  0.284180  1.0
  C  C221  1  0.540600  0.586600  0.294500  1
  C  C222  1  0.459400  0.413400  0.705500  1
  C  C223  1  0.237500  0.634000  0.186300  1
  C  C224  1  0.762500  0.366000  0.813700  1
  C  C225  1  0.793100  0.885100  0.882300  1
  C  C226  1  0.206900  0.114900  0.117700  1
  C  C227  1  0.492000  0.096000  0.151000  1
  C  C228  1  0.508000  0.904000  0.849000  1
  C  C229  1  0.467000  0.897300  0.179400  1
  C  C230  1  0.533000  0.102700  0.820600  1
  C  C231  1  0.426000  0.900000  0.254200  1
  C  C232  1  0.574000  0.100000  0.745800  1
  C  C233  1  0.640000  0.928400  0.078300  1
  C  C234  1  0.360000  0.071600  0.921700  1
  C  C235  1  0.762000  0.965000  0.059000  1
  C  C236  1  0.238000  0.035000  0.941000  1
  C  C237  1  0.393000  0.156000  0.433500  1
  C  C238  1  0.607000  0.844000  0.566500  1
  C  C239  1  0.701200  0.612900  0.817500  1.0
  C  C240  1  0.298800  0.387100  0.182500  1.0
  C  C241  1  0.621800  0.625500  0.880900  1.0
  C  C242  1  0.378200  0.374500  0.119100  1.0
  C  C243  1  0.554600  0.561600  0.904100  1.0
  C  C244  1  0.445400  0.438400  0.095900  1.0
  C  C245  1  0.491000  0.599600  0.967000  1.0
  C  C246  1  0.509000  0.400400  0.033000  1.0
  C  C247  1  0.519400  0.687500  0.982100  1.0
  C  C248  1  0.480600  0.312500  0.017900  1.0
  C  C249  1  0.600400  0.704100  0.930100  1.0
  C  C250  1  0.399600  0.295900  0.069900  1.0
  C  C251  1  0.842200  0.672300  0.048300  1.0
  C  C252  1  0.157800  0.327700  0.951700  1.0
  C  C253  1  0.854300  0.588900  0.004500  1.0
  C  C254  1  0.145700  0.411100  0.995500  1.0
  C  C255  1  0.782100  0.533000  0.033400  1.0
  C  C256  1  0.217900  0.467000  0.966600  1.0
  C  C257  1  0.723900  0.580400  0.094700  1.0
  C  C258  1  0.276100  0.419600  0.905300  1.0
  C  C259  1  0.760700  0.665900  0.104500  1.0
  C  C260  1  0.239300  0.334100  0.895500  1.0
  C  C261  1  0.721900  0.736200  0.163500  1.0
  C  C262  1  0.278100  0.263800  0.836500  1.0
  C  C263  1  0.750400  0.004100  0.349200  1.0
  C  C264  1  0.249600  0.995900  0.650800  1.0
  C  C265  1  0.680100  0.000000  0.410700  1.0
  C  C266  1  0.319900  0.000000  0.589300  1.0
  C  C267  1  0.674100  0.067000  0.469800  1.0
  C  C268  1  0.325900  0.933000  0.530200  1.0
  C  C269  1  0.740500  0.143000  0.473800  1.0
  C  C270  1  0.259500  0.857000  0.526200  1.0
  C  C271  1  0.733900  0.213200  0.536100  1.0
  C  C272  1  0.266100  0.786800  0.463900  1.0
  C  C273  1  0.798400  0.286000  0.540300  1.0
  C  C274  1  0.201600  0.714000  0.459700  1.0
  C  C275  1  0.877000  0.294000  0.482200  1.0
  C  C276  1  0.123000  0.706000  0.517800  1.0
  C  C277  1  0.944300  0.368900  0.486400  1.0
  C  C278  1  0.055700  0.631100  0.513600  1.0
  C  C279  1  0.019700  0.376600  0.429400  1.0
  C  C280  1  0.980300  0.623400  0.570600  1.0
  C  C281  1  0.965300  0.690300  0.631100  1.0
  C  C282  1  0.034700  0.309700  0.368900  1.0
  C  C283  1  0.030800  0.764200  0.634700  1.0
  C  C284  1  0.969200  0.235800  0.365300  1.0
  C  C285  1  0.888100  0.225700  0.420400  1.0
  C  C286  1  0.111900  0.774300  0.579600  1.0
  C  C287  1  0.815800  0.148300  0.415300  1.0
  C  C288  1  0.184200  0.851700  0.584700  1.0
  C  C289  1  0.815500  0.078800  0.353700  1.0
  C  C290  1  0.184500  0.921200  0.646300  1.0
  C  C291  1  0.571400  0.060200  0.199400  1.0
  C  C292  1  0.428600  0.939800  0.800600  1.0
  C  C293  1  0.661900  0.079700  0.146700  1.0
  C  C294  1  0.338100  0.920300  0.853300  1.0
  C  C295  1  0.445700  0.950100  0.269900  1.0
  C  C296  1  0.554300  0.049900  0.730100  1.0
  C  C297  1  0.422400  0.865000  0.288900  1.0
  C  C298  1  0.577600  0.135000  0.711100  1.0
  C  C299  1  0.513000  0.884800  0.117700  1.0
  C  C300  1  0.487000  0.115200  0.882300  1.0
  C  C301  1  0.392800  0.907200  0.077700  1.0
  C  C302  1  0.607200  0.092800  0.922300  1.0
  C  C303  1  0.010600  0.923700  0.405500  1.0
  C  C304  1  0.989400  0.076300  0.594500  1.0
  C  C305  1  0.097000  0.989600  0.388200  1.0
  C  C306  1  0.903000  0.010400  0.611800  1.0
  C  C307  1  0.888300  0.761200  0.352900  1.0
  C  C308  1  0.111700  0.238800  0.647100  1.0
  C  C309  1  0.803100  0.775400  0.412300  1.0
  C  C310  1  0.196900  0.224600  0.587700  1.0
  C  C311  1  0.040000  0.817100  0.255600  1.0
  C  C312  1  0.960000  0.182900  0.744400  1.0
  C  C313  1  0.067200  0.870400  0.199500  1.0
  C  C314  1  0.932800  0.129600  0.800500  1.0
  C  C315  1  0.019800  0.539800  0.802800  1.0
  C  C316  1  0.980200  0.460200  0.197200  1.0
  C  C317  1  0.003800  0.477300  0.724500  1.0
  C  C318  1  0.996200  0.522700  0.275500  1.0
  C  C319  1  0.181400  0.661900  0.762700  1.0
  C  C320  1  0.818600  0.338100  0.237300  1.0
  C  C321  1  0.287800  0.638400  0.815200  1.0
  C  C322  1  0.712200  0.361600  0.184800  1.0
  C  C323  1  0.040300  0.704500  0.893200  1.0
  C  C324  1  0.959700  0.295500  0.106800  1.0
  C  C325  1  0.085600  0.794600  0.902400  1.0
  C  C326  1  0.914400  0.205400  0.097600  1.0
  C  C327  1  0.666200  0.614200  0.548700  1.0
  C  C328  1  0.333800  0.385800  0.451300  1.0
  C  C329  1  0.657100  0.527000  0.564700  1.0
  C  C330  1  0.342900  0.473000  0.435300  1.0
  C  C331  1  0.548300  0.693400  0.680200  1.0
  C  C332  1  0.451700  0.306600  0.319800  1.0
  C  C333  1  0.430600  0.705000  0.630300  1.0
  C  C334  1  0.569400  0.295000  0.369700  1.0
  C  C335  1  0.690900  0.791900  0.599800  1.0
  C  C336  1  0.309100  0.208100  0.400200  1.0
  C  C337  1  0.686800  0.862500  0.653000  1.0
  C  C338  1  0.313200  0.137500  0.347000  1.0
  Cl  Cl339  1  0.656800  0.533670  0.341390  1
  Cl  Cl340  1  0.343200  0.466330  0.658610  1
  Cl  Cl341  1  0.467590  0.656730  0.363500  1
  Cl  Cl342  1  0.532410  0.343270  0.636500  1
  Cl  Cl343  1  0.367810  0.666530  0.148360  1
  Cl  Cl344  1  0.632190  0.333470  0.851640  1
  Cl  Cl345  1  0.105670  0.628830  0.119540  1
  Cl  Cl346  1  0.894330  0.371170  0.880460  1
  Cl  Cl347  1  0.818900  0.899300  0.987100  1
  Cl  Cl348  1  0.181100  0.100700  0.012900  1
  Cl  Cl349  1  0.876000  0.950100  0.843800  1
  Cl  Cl350  1  0.124000  0.049900  0.156200  1
  O  O351  1  0.760800  0.679200  0.810200  1.0
  O  O352  1  0.239200  0.320800  0.189800  1.0
  O  O353  1  0.703000  0.542400  0.774600  1.0
  O  O354  1  0.297000  0.457600  0.225400  1.0
  O  O355  1  0.774200  0.808200  0.164900  1.0
  O  O356  1  0.225800  0.191800  0.835100  1.0
  O  O357  1  0.648500  0.722100  0.206600  1.0
  O  O358  1  0.351500  0.277900  0.793400  1.0
