# generated using pymatgen
data_Cu4H82C94N17
_symmetry_space_group_name_H-M   'P 1'
_cell_length_a   23.13100000
_cell_length_b   23.23900000
_cell_length_c   28.83158273
_cell_angle_alpha   66.23333446
_cell_angle_beta   89.77028582
_cell_angle_gamma   89.43000000
_symmetry_Int_Tables_number   1
_chemical_formula_structural   Cu4H82C94N17
_chemical_formula_sum   'Cu16 H328 C376 N68'
_cell_volume   14183.13186729
_cell_formula_units_Z   4
loop_
 _symmetry_equiv_pos_site_id
 _symmetry_equiv_pos_as_xyz
  1  'x, y, z'
loop_
 _atom_site_type_symbol
 _atom_site_label
 _atom_site_symmetry_multiplicity
 _atom_site_fract_x
 _atom_site_fract_y
 _atom_site_fract_z
 _atom_site_occupancy
  C  C1  1  0.750000  0.796200  0.407600  1
  C  C2  1  0.250000  0.203800  0.592400  1
  C  C3  1  0.750000  0.769500  0.461000  1
  C  C4  1  0.250000  0.230500  0.539000  1
  C  C5  1  0.750000  0.604800  0.790400  1
  C  C6  1  0.250000  0.395200  0.209600  1
  C  C7  1  0.750000  0.630200  0.739600  1
  C  C8  1  0.250000  0.369800  0.260400  1
  C  C9  1  0.473300  0.613100  0.923600  1.0
  C  C10  1  0.026700  0.463300  0.923600  1.0
  C  C11  1  0.526700  0.386900  0.076400  1.0
  C  C12  1  0.973300  0.536700  0.076400  1.0
  C  C13  1  0.525900  0.575600  0.936600  1.0
  C  C14  1  0.974100  0.487800  0.936600  1.0
  C  C15  1  0.474100  0.424400  0.063400  1.0
  C  C16  1  0.025900  0.512200  0.063400  1.0
  C  C17  1  0.598200  0.521500  0.917200  1.0
  C  C18  1  0.901800  0.561300  0.917200  1.0
  C  C19  1  0.401800  0.478500  0.082800  1.0
  C  C20  1  0.098200  0.438700  0.082800  1.0
  C  C21  1  0.624900  0.508000  0.962600  1.0
  C  C22  1  0.875100  0.529400  0.962600  1.0
  C  C23  1  0.375100  0.492000  0.037400  1.0
  C  C24  1  0.124900  0.470600  0.037400  1.0
  C  C25  1  0.601900  0.528100  0.997000  1.0
  C  C26  1  0.898100  0.474900  0.997000  1.0
  C  C27  1  0.398100  0.471900  0.003000  1.0
  C  C28  1  0.101900  0.525100  0.003000  1.0
  C  C29  1  0.551400  0.561900  0.985400  1.0
  C  C30  1  0.948600  0.452700  0.985400  1.0
  C  C31  1  0.448600  0.438100  0.014600  1.0
  C  C32  1  0.051400  0.547300  0.014600  1.0
  C  C33  1  0.621400  0.500900  0.879800  1.0
  C  C34  1  0.878600  0.619300  0.879800  1.0
  C  C35  1  0.378600  0.499100  0.120200  1.0
  C  C36  1  0.121400  0.380700  0.120200  1.0
  C  C37  1  0.619300  0.502500  0.797200  1.0
  C  C38  1  0.880700  0.700300  0.797200  1.0
  C  C39  1  0.380700  0.497500  0.202800  1.0
  C  C40  1  0.119300  0.299700  0.202800  1.0
  C  C41  1  0.651500  0.448300  0.807200  1.0
  C  C42  1  0.848500  0.744500  0.807200  1.0
  C  C43  1  0.348500  0.551700  0.192800  1.0
  C  C44  1  0.151500  0.255500  0.192800  1.0
  C  C45  1  0.671300  0.436400  0.768000  1.0
  C  C46  1  0.828700  0.795600  0.768000  1.0
  C  C47  1  0.328700  0.563600  0.232000  1.0
  C  C48  1  0.171300  0.204400  0.232000  1.0
  C  C49  1  0.662800  0.479200  0.719200  1.0
  C  C50  1  0.837200  0.801600  0.719200  1.0
  C  C51  1  0.337200  0.520800  0.280800  1.0
  C  C52  1  0.162800  0.198400  0.280800  1.0
  C  C53  1  0.630300  0.533200  0.708600  1.0
  C  C54  1  0.869700  0.758200  0.708600  1.0
  C  C55  1  0.369700  0.466800  0.291400  1.0
  C  C56  1  0.130300  0.241800  0.291400  1.0
  C  C57  1  0.604600  0.542100  0.748200  1.0
  C  C58  1  0.895400  0.709700  0.748200  1.0
  C  C59  1  0.395400  0.457900  0.251800  1.0
  C  C60  1  0.104600  0.290300  0.251800  1.0
  C  C61  1  0.714700  0.348900  0.753400  1.0
  C  C62  1  0.785300  0.897700  0.753400  1.0
  C  C63  1  0.285300  0.651100  0.246600  1.0
  C  C64  1  0.214700  0.102300  0.246600  1.0
  C  C65  1  0.749300  0.295400  0.768200  1.0
  C  C66  1  0.750700  0.936400  0.768200  1.0
  C  C67  1  0.250700  0.704600  0.231800  1.0
  C  C68  1  0.249300  0.063600  0.231800  1.0
  C  C69  1  0.819500  0.243100  0.825600  1.0
  C  C70  1  0.680500  0.931300  0.825600  1.0
  C  C71  1  0.180500  0.756900  0.174400  1.0
  C  C72  1  0.319500  0.068700  0.174400  1.0
  C  C73  1  0.828000  0.202500  0.797000  1.0
  C  C74  1  0.672000  0.000500  0.797000  1.0
  C  C75  1  0.172000  0.797500  0.203000  1.0
  C  C76  1  0.328000  0.999500  0.203000  1.0
  C  C77  1  0.799400  0.211000  0.758600  1.0
  C  C78  1  0.700600  0.030400  0.758600  1.0
  C  C79  1  0.200600  0.789000  0.241400  1.0
  C  C80  1  0.299400  0.969600  0.241400  1.0
  C  C81  1  0.751300  0.258500  0.741600  1.0
  C  C82  1  0.748700  0.999900  0.741600  1.0
  C  C83  1  0.248700  0.741500  0.258400  1.0
  C  C84  1  0.251300  0.000100  0.258400  1.0
  C  C85  1  0.861500  0.238600  0.870000  1.0
  C  C86  1  0.638500  0.891400  0.870000  1.0
  C  C87  1  0.138500  0.761400  0.130000  1.0
  C  C88  1  0.361500  0.108600  0.130000  1.0
  C  C89  1  0.621400  0.578600  0.654800  1.0
  C  C90  1  0.878600  0.766600  0.654800  1.0
  C  C91  1  0.378600  0.421400  0.345200  1.0
  C  C92  1  0.121400  0.233400  0.345200  1.0
  C  C93  1  0.571600  0.616600  0.639800  1.0
  C  C94  1  0.928400  0.743600  0.639800  1.0
  C  C95  1  0.428400  0.383400  0.360200  1.0
  C  C96  1  0.071600  0.256400  0.360200  1.0
  C  C97  1  0.559300  0.655800  0.592600  1.0
  C  C98  1  0.940700  0.751600  0.592600  1.0
  C  C99  1  0.440700  0.344200  0.407400  1.0
  C  C100  1  0.059300  0.248400  0.407400  1.0
  C  C101  1  0.601500  0.663000  0.554400  1.0
  C  C102  1  0.898500  0.782600  0.554400  1.0
  C  C103  1  0.398500  0.337000  0.445600  1.0
  C  C104  1  0.101500  0.217400  0.445600  1.0
  C  C105  1  0.648100  0.629500  0.570000  1.0
  C  C106  1  0.851900  0.800500  0.570000  1.0
  C  C107  1  0.351900  0.370500  0.430000  1.0
  C  C108  1  0.148100  0.199500  0.430000  1.0
  C  C109  1  0.661400  0.584900  0.619200  1.0
  C  C110  1  0.838600  0.795900  0.619200  1.0
  C  C111  1  0.338600  0.415100  0.380800  1.0
  C  C112  1  0.161400  0.204100  0.380800  1.0
  C  C113  1  0.591000  0.705600  0.505000  1.0
  C  C114  1  0.909000  0.789400  0.505000  1.0
  C  C115  1  0.409000  0.294400  0.495000  1.0
  C  C116  1  0.091000  0.210600  0.495000  1.0
  C  C117  1  0.567100  0.764500  0.491000  1.0
  C  C118  1  0.932900  0.744500  0.491000  1.0
  C  C119  1  0.432900  0.235500  0.509000  1.0
  C  C120  1  0.067100  0.255500  0.509000  1.0
  C  C121  1  0.557500  0.808600  0.441200  1.0
  C  C122  1  0.942500  0.750200  0.441200  1.0
  C  C123  1  0.442500  0.191400  0.558800  1.0
  C  C124  1  0.057500  0.249800  0.558800  1.0
  C  C125  1  0.571600  0.791900  0.404200  1.0
  C  C126  1  0.928400  0.803900  0.404200  1.0
  C  C127  1  0.428400  0.208100  0.595800  1.0
  C  C128  1  0.071600  0.196100  0.595800  1.0
  C  C129  1  0.598500  0.730800  0.416800  1.0
  C  C130  1  0.901500  0.852400  0.416800  1.0
  C  C131  1  0.401500  0.269200  0.583200  1.0
  C  C132  1  0.098500  0.147600  0.583200  1.0
  C  C133  1  0.605500  0.690000  0.464000  1.0
  C  C134  1  0.894500  0.846000  0.464000  1.0
  C  C135  1  0.394500  0.310000  0.536000  1.0
  C  C136  1  0.105500  0.154000  0.536000  1.0
  C  C137  1  0.497700  0.880200  0.458200  1.0
  C  C138  1  0.002300  0.661600  0.458200  1.0
  C  C139  1  0.502300  0.119800  0.541800  1.0
  C  C140  1  0.997700  0.338400  0.541800  1.0
  C  C141  1  0.480400  0.944900  0.446600  1.0
  C  C142  1  0.019600  0.608500  0.446600  1.0
  C  C143  1  0.519600  0.055100  0.553400  1.0
  C  C144  1  0.980400  0.391500  0.553400  1.0
  C  C145  1  0.495800  0.047300  0.390400  1.0
  C  C146  1  0.004200  0.562300  0.390400  1.0
  C  C147  1  0.504200  0.952700  0.609600  1.0
  C  C148  1  0.995800  0.437700  0.609600  1.0
  C  C149  1  0.453700  0.068300  0.419800  1.0
  C  C150  1  0.046300  0.511900  0.419800  1.0
  C  C151  1  0.546300  0.931700  0.580200  1.0
  C  C152  1  0.953700  0.488100  0.580200  1.0
  C  C153  1  0.429300  0.023500  0.463600  1.0
  C  C154  1  0.070700  0.512900  0.463600  1.0
  C  C155  1  0.570700  0.976500  0.536400  1.0
  C  C156  1  0.929300  0.487100  0.536400  1.0
  C  C157  1  0.441100  0.964200  0.475800  1.0
  C  C158  1  0.058900  0.560000  0.475800  1.0
  C  C159  1  0.558900  0.035800  0.524200  1.0
  C  C160  1  0.941100  0.440000  0.524200  1.0
  C  C161  1  0.522100  0.093900  0.344600  1.0
  C  C162  1  0.977900  0.561500  0.344600  1.0
  C  C163  1  0.477900  0.906100  0.655400  1.0
  C  C164  1  0.022100  0.438500  0.655400  1.0
  C  C165  1  0.631800  0.752900  0.336000  1.0
  C  C166  1  0.868200  0.911100  0.336000  1.0
  C  C167  1  0.368200  0.247100  0.664000  1.0
  C  C168  1  0.131800  0.088900  0.664000  1.0
  C  C169  1  0.654400  0.734400  0.297200  1.0
  C  C170  1  0.845600  0.968400  0.297200  1.0
  C  C171  1  0.345600  0.265600  0.702800  1.0
  C  C172  1  0.154400  0.031600  0.702800  1.0
  C  C173  1  0.659300  0.653200  0.268600  1.0
  C  C174  1  0.840700  0.078200  0.268600  1.0
  C  C175  1  0.340700  0.346800  0.731400  1.0
  C  C176  1  0.159300  0.921800  0.731400  1.0
  C  C177  1  0.693800  0.687700  0.226800  1.0
  C  C178  1  0.806200  0.085500  0.226800  1.0
  C  C179  1  0.306200  0.312300  0.773200  1.0
  C  C180  1  0.193800  0.914500  0.773200  1.0
  C  C181  1  0.696100  0.756000  0.212200  1.0
  C  C182  1  0.803900  0.031800  0.212200  1.0
  C  C183  1  0.303900  0.244000  0.787800  1.0
  C  C184  1  0.196100  0.968200  0.787800  1.0
  C  C185  1  0.673300  0.777600  0.252000  1.0
  C  C186  1  0.826700  0.970400  0.252000  1.0
  C  C187  1  0.326700  0.222400  0.748000  1.0
  C  C188  1  0.173300  0.029600  0.748000  1.0
  C  C189  1  0.648700  0.585100  0.279000  1.0
  C  C190  1  0.851300  0.135900  0.279000  1.0
  C  C191  1  0.351300  0.414900  0.721000  1.0
  C  C192  1  0.148700  0.864100  0.721000  1.0
  C  C193  1  0.409200  0.467900  0.870600  1.0
  C  C194  1  0.090800  0.661500  0.870600  1.0
  C  C195  1  0.590800  0.532100  0.129400  1.0
  C  C196  1  0.909200  0.338500  0.129400  1.0
  C  C197  1  0.399900  0.525500  0.826400  1.0
  C  C198  1  0.100100  0.648100  0.826400  1.0
  C  C199  1  0.600100  0.474500  0.173600  1.0
  C  C200  1  0.899900  0.351900  0.173600  1.0
  C  C201  1  0.429100  0.622900  0.767200  1.0
  C  C202  1  0.070900  0.609900  0.767200  1.0
  C  C203  1  0.570900  0.377100  0.232800  1.0
  C  C204  1  0.929100  0.390100  0.232800  1.0
  C  C205  1  0.377200  0.632100  0.739600  1.0
  C  C206  1  0.122800  0.628300  0.739600  1.0
  C  C207  1  0.622800  0.367900  0.260400  1.0
  C  C208  1  0.877200  0.371700  0.260400  1.0
  C  C209  1  0.336300  0.587700  0.760800  1.0
  C  C210  1  0.163700  0.651500  0.760800  1.0
  C  C211  1  0.663700  0.412300  0.239200  1.0
  C  C212  1  0.836300  0.348500  0.239200  1.0
  C  C213  1  0.350400  0.534000  0.800400  1.0
  C  C214  1  0.149600  0.665600  0.800400  1.0
  C  C215  1  0.649600  0.466000  0.199600  1.0
  C  C216  1  0.850400  0.334400  0.199600  1.0
  C  C217  1  0.476500  0.663900  0.752800  1.0
  C  C218  1  0.023500  0.583300  0.752800  1.0
  C  C219  1  0.523500  0.336100  0.247200  1.0
  C  C220  1  0.976500  0.416700  0.247200  1.0
  C  C221  1  0.569700  0.696500  0.766400  1.0
  C  C222  1  0.930300  0.537100  0.766400  1.0
  C  C223  1  0.430300  0.303500  0.233600  1.0
  C  C224  1  0.069700  0.462900  0.233600  1.0
  C  C225  1  0.606500  0.694100  0.805800  1.0
  C  C226  1  0.893500  0.500100  0.805800  1.0
  C  C227  1  0.393500  0.305900  0.194200  1.0
  C  C228  1  0.106500  0.499900  0.194200  1.0
  C  C229  1  0.651000  0.734100  0.797600  1.0
  C  C230  1  0.849000  0.468300  0.797600  1.0
  C  C231  1  0.349000  0.265900  0.202400  1.0
  C  C232  1  0.151000  0.531700  0.202400  1.0
  C  C233  1  0.669600  0.768700  0.745800  1.0
  C  C234  1  0.830400  0.485500  0.745800  1.0
  C  C235  1  0.330400  0.231300  0.254200  1.0
  C  C236  1  0.169600  0.514500  0.254200  1.0
  C  C237  1  0.693800  0.686700  0.877000  1.0
  C  C238  1  0.806200  0.436300  0.877000  1.0
  C  C239  1  0.306200  0.313300  0.123000  1.0
  C  C240  1  0.193800  0.563700  0.123000  1.0
  C  C241  1  0.636900  0.765000  0.705600  1.0
  C  C242  1  0.863100  0.529400  0.705600  1.0
  C  C243  1  0.363100  0.235000  0.294400  1.0
  C  C244  1  0.136900  0.470600  0.294400  1.0
  C  C245  1  0.586200  0.730700  0.716200  1.0
  C  C246  1  0.913800  0.553100  0.716200  1.0
  C  C247  1  0.413800  0.269300  0.283800  1.0
  C  C248  1  0.086200  0.446900  0.283800  1.0
  C  C249  1  0.724000  0.692600  0.916400  1.0
  C  C250  1  0.776000  0.391000  0.916400  1.0
  C  C251  1  0.276000  0.307400  0.083600  1.0
  C  C252  1  0.224000  0.609000  0.083600  1.0
  C  C253  1  0.784500  0.757300  0.941600  1.0
  C  C254  1  0.715500  0.301100  0.941600  1.0
  C  C255  1  0.215500  0.242700  0.058400  1.0
  C  C256  1  0.284500  0.698900  0.058400  1.0
  C  C257  1  0.800000  0.704400  0.991000  1.0
  C  C258  1  0.700000  0.304600  0.991000  1.0
  C  C259  1  0.200000  0.295600  0.009000  1.0
  C  C260  1  0.300000  0.695400  0.009000  1.0
  C  C261  1  0.774900  0.644300  0.998000  1.0
  C  C262  1  0.725100  0.357700  0.998000  1.0
  C  C263  1  0.225100  0.355700  0.002000  1.0
  C  C264  1  0.274900  0.642300  0.002000  1.0
  C  C265  1  0.738400  0.634500  0.964200  1.0
  C  C266  1  0.761600  0.401300  0.964200  1.0
  C  C267  1  0.261600  0.365500  0.035800  1.0
  C  C268  1  0.238400  0.598700  0.035800  1.0
  C  C269  1  0.811500  0.817800  0.926000  1.0
  C  C270  1  0.688500  0.256200  0.926000  1.0
  C  C271  1  0.188500  0.182200  0.074000  1.0
  C  C272  1  0.311500  0.743800  0.074000  1.0
  C  C273  1  0.655900  0.801300  0.654200  1.0
  C  C274  1  0.844100  0.544500  0.654200  1.0
  C  C275  1  0.344100  0.198700  0.345800  1.0
  C  C276  1  0.155900  0.455500  0.345800  1.0
  C  C277  1  0.645600  0.779700  0.618000  1.0
  C  C278  1  0.854400  0.602300  0.618000  1.0
  C  C279  1  0.354400  0.220300  0.382000  1.0
  C  C280  1  0.145600  0.397700  0.382000  1.0
  C  C281  1  0.662300  0.812500  0.570000  1.0
  C  C282  1  0.837700  0.617500  0.570000  1.0
  C  C283  1  0.337700  0.187500  0.430000  1.0
  C  C284  1  0.162300  0.382500  0.430000  1.0
  C  C285  1  0.694000  0.871900  0.554000  1.0
  C  C286  1  0.806000  0.574100  0.554000  1.0
  C  C287  1  0.306000  0.128100  0.446000  1.0
  C  C288  1  0.194000  0.425900  0.446000  1.0
  C  C289  1  0.703100  0.891800  0.593000  1.0
  C  C290  1  0.796900  0.515200  0.593000  1.0
  C  C291  1  0.296900  0.108200  0.407000  1.0
  C  C292  1  0.203100  0.484800  0.407000  1.0
  C  C293  1  0.687500  0.857400  0.640800  1.0
  C  C294  1  0.812500  0.501800  0.640800  1.0
  C  C295  1  0.312500  0.142600  0.359200  1.0
  C  C296  1  0.187500  0.498200  0.359200  1.0
  C  C297  1  0.709600  0.907100  0.503200  1.0
  C  C298  1  0.790400  0.589700  0.503200  1.0
  C  C299  1  0.290400  0.092900  0.496800  1.0
  C  C300  1  0.209600  0.410300  0.496800  1.0
  C  C301  1  0.672000  0.911700  0.462600  1.0
  C  C302  1  0.828000  0.625700  0.462600  1.0
  C  C303  1  0.328000  0.088300  0.537400  1.0
  C  C304  1  0.172000  0.374300  0.537400  1.0
  C  C305  1  0.689300  0.947000  0.412400  1.0
  C  C306  1  0.810700  0.640600  0.412400  1.0
  C  C307  1  0.310700  0.053000  0.587600  1.0
  C  C308  1  0.189300  0.359400  0.587600  1.0
  C  C309  1  0.746800  0.975300  0.402600  1.0
  C  C310  1  0.753200  0.622100  0.402600  1.0
  C  C311  1  0.253200  0.024700  0.597400  1.0
  C  C312  1  0.246800  0.377900  0.597400  1.0
  C  C313  1  0.776700  0.970800  0.441400  1.0
  C  C314  1  0.723300  0.587800  0.441400  1.0
  C  C315  1  0.223300  0.029200  0.558600  1.0
  C  C316  1  0.276700  0.412200  0.558600  1.0
  C  C317  1  0.762400  0.939800  0.489800  1.0
  C  C318  1  0.737600  0.570400  0.489800  1.0
  C  C319  1  0.237600  0.060200  0.510200  1.0
  C  C320  1  0.262400  0.429600  0.510200  1.0
  C  C321  1  0.671000  0.953000  0.330600  1.0
  C  C322  1  0.829000  0.716400  0.330600  1.0
  C  C323  1  0.329000  0.047000  0.669400  1.0
  C  C324  1  0.171000  0.283600  0.669400  1.0
  C  C325  1  0.635800  0.951100  0.293000  1.0
  C  C326  1  0.864200  0.755900  0.293000  1.0
  C  C327  1  0.364200  0.048900  0.707000  1.0
  C  C328  1  0.135800  0.244100  0.707000  1.0
  C  C329  1  0.535600  0.952900  0.270000  1.0
  C  C330  1  0.964400  0.777100  0.270000  1.0
  C  C331  1  0.464400  0.047100  0.730000  1.0
  C  C332  1  0.035600  0.222900  0.730000  1.0
  C  C333  1  0.551500  0.956000  0.223400  1.0
  C  C334  1  0.948500  0.820600  0.223400  1.0
  C  C335  1  0.448500  0.044000  0.776600  1.0
  C  C336  1  0.051500  0.179400  0.776600  1.0
  C  C337  1  0.615000  0.955900  0.212800  1.0
  C  C338  1  0.885000  0.831300  0.212800  1.0
  C  C339  1  0.385000  0.044100  0.787200  1.0
  C  C340  1  0.115000  0.168700  0.787200  1.0
  C  C341  1  0.654100  0.951200  0.248800  1.0
  C  C342  1  0.845900  0.800000  0.248800  1.0
  C  C343  1  0.345900  0.048800  0.751200  1.0
  C  C344  1  0.154100  0.200000  0.751200  1.0
  C  C345  1  0.472500  0.956000  0.284200  1.0
  C  C346  1  0.027500  0.759800  0.284200  1.0
  C  C347  1  0.527500  0.044000  0.715800  1.0
  C  C348  1  0.972500  0.240200  0.715800  1.0
  C  C349  1  0.858900  0.025700  0.457000  1.0
  C  C350  1  0.641100  0.517300  0.457000  1.0
  C  C351  1  0.141100  0.974300  0.543000  1.0
  C  C352  1  0.358900  0.482700  0.543000  1.0
  C  C353  1  0.917100  0.047500  0.446000  1.0
  C  C354  1  0.582900  0.506500  0.446000  1.0
  C  C355  1  0.082900  0.952500  0.554000  1.0
  C  C356  1  0.417100  0.493500  0.554000  1.0
  C  C357  1  0.995200  0.060400  0.390800  1.0
  C  C358  1  0.504800  0.548800  0.390800  1.0
  C  C359  1  0.004800  0.939600  0.609200  1.0
  C  C360  1  0.495200  0.451200  0.609200  1.0
  C  C361  1  0.025600  0.088700  0.414600  1.0
  C  C362  1  0.474400  0.496700  0.414600  1.0
  C  C363  1  0.974400  0.911300  0.585400  1.0
  C  C364  1  0.525600  0.503300  0.585400  1.0
  C  C365  1  0.005700  0.090400  0.459200  1.0
  C  C366  1  0.494300  0.450400  0.459200  1.0
  C  C367  1  0.994300  0.909600  0.540800  1.0
  C  C368  1  0.505700  0.549600  0.540800  1.0
  C  C369  1  0.950300  0.069200  0.475200  1.0
  C  C370  1  0.549700  0.455600  0.475200  1.0
  C  C371  1  0.049700  0.930800  0.524800  1.0
  C  C372  1  0.450300  0.544400  0.524800  1.0
  C  C373  1  0.017200  0.059500  0.341000  1.0
  C  C374  1  0.482800  0.599500  0.341000  1.0
  C  C375  1  0.982800  0.940500  0.659000  1.0
  C  C376  1  0.517200  0.400500  0.659000  1.0
  Cu  Cu377  1  0.519480  0.567380  0.835960  1.0
  Cu  Cu378  1  0.980520  0.596660  0.835960  1.0
  Cu  Cu379  1  0.480520  0.432620  0.164040  1.0
  Cu  Cu380  1  0.019480  0.403340  0.164040  1.0
  Cu  Cu381  1  0.766770  0.352800  0.837560  1.0
  Cu  Cu382  1  0.733230  0.809640  0.837560  1.0
  Cu  Cu383  1  0.233230  0.647200  0.162440  1.0
  Cu  Cu384  1  0.266770  0.190360  0.162440  1.0
  Cu  Cu385  1  0.562430  0.948250  0.373380  1.0
  Cu  Cu386  1  0.937570  0.678370  0.373380  1.0
  Cu  Cu387  1  0.437570  0.051750  0.626620  1.0
  Cu  Cu388  1  0.062430  0.321630  0.626620  1.0
  Cu  Cu389  1  0.615090  0.625790  0.372720  1.0
  Cu  Cu390  1  0.884910  0.001490  0.372720  1.0
  Cu  Cu391  1  0.384910  0.374210  0.627280  1.0
  Cu  Cu392  1  0.115090  0.998510  0.627280  1.0
  H  H393  1  0.723400  0.733900  0.473400  1
  H  H394  1  0.776600  0.792700  0.473400  1
  H  H395  1  0.276600  0.266100  0.526600  1
  H  H396  1  0.223400  0.207300  0.526600  1
  H  H397  1  0.737500  0.801200  0.473400  1
  H  H398  1  0.762500  0.725400  0.473400  1
  H  H399  1  0.262500  0.198800  0.526600  1
  H  H400  1  0.237500  0.274600  0.526600  1
  H  H401  1  0.789100  0.754800  0.473400  1
  H  H402  1  0.710900  0.771800  0.473400  1
  H  H403  1  0.210900  0.245200  0.526600  1
  H  H404  1  0.289100  0.228200  0.526600  1
  H  H405  1  0.711400  0.626500  0.727200  1
  H  H406  1  0.788600  0.646300  0.727200  1
  H  H407  1  0.288600  0.373500  0.272800  1
  H  H408  1  0.211400  0.353700  0.272800  1
  H  H409  1  0.778300  0.608000  0.727200  1
  H  H410  1  0.721700  0.664800  0.727200  1
  H  H411  1  0.221700  0.392000  0.272800  1
  H  H412  1  0.278300  0.335200  0.272800  1
  H  H413  1  0.760300  0.674700  0.727200  1
  H  H414  1  0.739700  0.598100  0.727200  1
  H  H415  1  0.239700  0.325300  0.272800  1
  H  H416  1  0.260300  0.401900  0.272800  1
  H  H417  1  0.478000  0.648300  0.890800  1.0
  H  H418  1  0.022000  0.460900  0.890800  1.0
  H  H419  1  0.522000  0.351700  0.109200  1.0
  H  H420  1  0.978000  0.539100  0.109200  1.0
  H  H421  1  0.465300  0.629300  0.949600  1.0
  H  H422  1  0.034700  0.421100  0.949600  1.0
  H  H423  1  0.534700  0.370700  0.050400  1.0
  H  H424  1  0.965300  0.578900  0.050400  1.0
  H  H425  1  0.441100  0.586900  0.922000  1.0
  H  H426  1  0.058900  0.491100  0.922000  1.0
  H  H427  1  0.558900  0.413100  0.078000  1.0
  H  H428  1  0.941100  0.508900  0.078000  1.0
  H  H429  1  0.659900  0.484300  0.970200  1.0
  H  H430  1  0.840100  0.545500  0.970200  1.0
  H  H431  1  0.340100  0.515700  0.029800  1.0
  H  H432  1  0.159900  0.454500  0.029800  1.0
  H  H433  1  0.620700  0.519000  0.028400  1.0
  H  H434  1  0.879300  0.452600  0.028400  1.0
  H  H435  1  0.379300  0.481000  0.971600  1.0
  H  H436  1  0.120700  0.547400  0.971600  1.0
  H  H437  1  0.533600  0.575800  0.009000  1.0
  H  H438  1  0.966400  0.415200  0.009000  1.0
  H  H439  1  0.466400  0.424200  0.991000  1.0
  H  H440  1  0.033600  0.584800  0.991000  1.0
  H  H441  1  0.655500  0.476000  0.885600  1.0
  H  H442  1  0.844500  0.638400  0.885600  1.0
  H  H443  1  0.344500  0.524000  0.114400  1.0
  H  H444  1  0.155500  0.361600  0.114400  1.0
  H  H445  1  0.659500  0.420100  0.841000  1.0
  H  H446  1  0.840500  0.738900  0.841000  1.0
  H  H447  1  0.340500  0.579900  0.159000  1.0
  H  H448  1  0.159500  0.261100  0.159000  1.0
  H  H449  1  0.679600  0.471600  0.692000  1.0
  H  H450  1  0.820400  0.836400  0.692000  1.0
  H  H451  1  0.320400  0.528400  0.308000  1.0
  H  H452  1  0.179600  0.163600  0.308000  1.0
  H  H453  1  0.577200  0.575000  0.742000  1.0
  H  H454  1  0.922800  0.683000  0.742000  1.0
  H  H455  1  0.422800  0.425000  0.258000  1.0
  H  H456  1  0.077200  0.317000  0.258000  1.0
  H  H457  1  0.695600  0.363700  0.721600  1.0
  H  H458  1  0.804400  0.914700  0.721600  1.0
  H  H459  1  0.304400  0.636300  0.278400  1.0
  H  H460  1  0.195600  0.085300  0.278400  1.0
  H  H461  1  0.855800  0.169400  0.808600  1.0
  H  H462  1  0.644200  0.022000  0.808600  1.0
  H  H463  1  0.144200  0.830600  0.191400  1.0
  H  H464  1  0.355800  0.978000  0.191400  1.0
  H  H465  1  0.808200  0.186900  0.739600  1.0
  H  H466  1  0.691800  0.073500  0.739600  1.0
  H  H467  1  0.191800  0.813100  0.260400  1.0
  H  H468  1  0.308200  0.926500  0.260400  1.0
  H  H469  1  0.725000  0.262500  0.715200  1.0
  H  H470  1  0.775000  0.022300  0.715200  1.0
  H  H471  1  0.275000  0.737500  0.284800  1.0
  H  H472  1  0.225000  0.977700  0.284800  1.0
  H  H473  1  0.879400  0.279500  0.862000  1.0
  H  H474  1  0.620600  0.858500  0.862000  1.0
  H  H475  1  0.120600  0.720500  0.138000  1.0
  H  H476  1  0.379400  0.141500  0.138000  1.0
  H  H477  1  0.891600  0.206900  0.874200  1.0
  H  H478  1  0.608400  0.918900  0.874200  1.0
  H  H479  1  0.108400  0.793100  0.125800  1.0
  H  H480  1  0.391600  0.081100  0.125800  1.0
  H  H481  1  0.839400  0.226400  0.901600  1.0
  H  H482  1  0.660600  0.872000  0.901600  1.0
  H  H483  1  0.160600  0.773600  0.098400  1.0
  H  H484  1  0.339400  0.128000  0.098400  1.0
  H  H485  1  0.544600  0.614000  0.665600  1.0
  H  H486  1  0.955400  0.720400  0.665600  1.0
  H  H487  1  0.455400  0.386000  0.334400  1.0
  H  H488  1  0.044600  0.279600  0.334400  1.0
  H  H489  1  0.523600  0.678300  0.584400  1.0
  H  H490  1  0.976400  0.737300  0.584400  1.0
  H  H491  1  0.476400  0.321700  0.415600  1.0
  H  H492  1  0.023600  0.262700  0.415600  1.0
  H  H493  1  0.677000  0.635600  0.545000  1.0
  H  H494  1  0.823000  0.819400  0.545000  1.0
  H  H495  1  0.323000  0.364400  0.455000  1.0
  H  H496  1  0.177000  0.180600  0.455000  1.0
  H  H497  1  0.696400  0.561100  0.626600  1.0
  H  H498  1  0.803600  0.812300  0.626600  1.0
  H  H499  1  0.303600  0.438900  0.373400  1.0
  H  H500  1  0.196400  0.187700  0.373400  1.0
  H  H501  1  0.555900  0.776700  0.517400  1.0
  H  H502  1  0.944100  0.705900  0.517400  1.0
  H  H503  1  0.444100  0.223300  0.482600  1.0
  H  H504  1  0.055900  0.294100  0.482600  1.0
  H  H505  1  0.564400  0.819400  0.369800  1.0
  H  H506  1  0.935600  0.810800  0.369800  1.0
  H  H507  1  0.435600  0.180600  0.630200  1.0
  H  H508  1  0.064400  0.189200  0.630200  1.0
  H  H509  1  0.620700  0.649300  0.470600  1.0
  H  H510  1  0.879300  0.880100  0.470600  1.0
  H  H511  1  0.379300  0.350700  0.529400  1.0
  H  H512  1  0.120700  0.119900  0.529400  1.0
  H  H513  1  0.482800  0.846700  0.487200  1.0
  H  H514  1  0.017200  0.666100  0.487200  1.0
  H  H515  1  0.517200  0.153300  0.512800  1.0
  H  H516  1  0.982800  0.333900  0.512800  1.0
  H  H517  1  0.443600  0.111500  0.408800  1.0
  H  H518  1  0.056400  0.479700  0.408800  1.0
  H  H519  1  0.556400  0.888500  0.591200  1.0
  H  H520  1  0.943600  0.520300  0.591200  1.0
  H  H521  1  0.404500  0.036100  0.484200  1.0
  H  H522  1  0.095500  0.479700  0.484200  1.0
  H  H523  1  0.595500  0.963900  0.515800  1.0
  H  H524  1  0.904500  0.520300  0.515800  1.0
  H  H525  1  0.423200  0.933300  0.504600  1.0
  H  H526  1  0.076800  0.562100  0.504600  1.0
  H  H527  1  0.576800  0.066700  0.495400  1.0
  H  H528  1  0.923200  0.437900  0.495400  1.0
  H  H529  1  0.555100  0.113100  0.354000  1.0
  H  H530  1  0.944900  0.532900  0.354000  1.0
  H  H531  1  0.444900  0.886900  0.646000  1.0
  H  H532  1  0.055100  0.467100  0.646000  1.0
  H  H533  1  0.493500  0.126600  0.326400  1.0
  H  H534  1  0.006500  0.547000  0.326400  1.0
  H  H535  1  0.506500  0.873400  0.673600  1.0
  H  H536  1  0.993500  0.453000  0.673600  1.0
  H  H537  1  0.535300  0.073400  0.322600  1.0
  H  H538  1  0.964700  0.604000  0.322600  1.0
  H  H539  1  0.464700  0.926600  0.677400  1.0
  H  H540  1  0.035300  0.396000  0.677400  1.0
  H  H541  1  0.631600  0.795900  0.330800  1.0
  H  H542  1  0.868400  0.873300  0.330800  1.0
  H  H543  1  0.368400  0.204100  0.669200  1.0
  H  H544  1  0.131600  0.126700  0.669200  1.0
  H  H545  1  0.714700  0.668100  0.208600  1.0
  H  H546  1  0.785300  0.123300  0.208600  1.0
  H  H547  1  0.285300  0.331900  0.791400  1.0
  H  H548  1  0.214700  0.876700  0.791400  1.0
  H  H549  1  0.710700  0.784200  0.180600  1.0
  H  H550  1  0.789300  0.035200  0.180600  1.0
  H  H551  1  0.289300  0.215800  0.819400  1.0
  H  H552  1  0.210700  0.964800  0.819400  1.0
  H  H553  1  0.672300  0.821100  0.245400  1.0
  H  H554  1  0.827700  0.933500  0.245400  1.0
  H  H555  1  0.327700  0.178900  0.754600  1.0
  H  H556  1  0.172300  0.066500  0.754600  1.0
  H  H557  1  0.665500  0.575500  0.251600  1.0
  H  H558  1  0.834500  0.172900  0.251600  1.0
  H  H559  1  0.334500  0.424500  0.748400  1.0
  H  H560  1  0.165500  0.827100  0.748400  1.0
  H  H561  1  0.607000  0.577500  0.280800  1.0
  H  H562  1  0.893000  0.141700  0.280800  1.0
  H  H563  1  0.393000  0.422500  0.719200  1.0
  H  H564  1  0.107000  0.858300  0.719200  1.0
  H  H565  1  0.666800  0.558200  0.311200  1.0
  H  H566  1  0.833200  0.130600  0.311200  1.0
  H  H567  1  0.333200  0.441800  0.688800  1.0
  H  H568  1  0.166800  0.869400  0.688800  1.0
  H  H569  1  0.423700  0.477800  0.898400  1.0
  H  H570  1  0.076300  0.623800  0.898400  1.0
  H  H571  1  0.576300  0.522200  0.101600  1.0
  H  H572  1  0.923700  0.376200  0.101600  1.0
  H  H573  1  0.437700  0.441600  0.862800  1.0
  H  H574  1  0.062300  0.695600  0.862800  1.0
  H  H575  1  0.562300  0.558400  0.137200  1.0
  H  H576  1  0.937700  0.304400  0.137200  1.0
  H  H577  1  0.372700  0.445200  0.880800  1.0
  H  H578  1  0.127300  0.674000  0.880800  1.0
  H  H579  1  0.627300  0.554800  0.119200  1.0
  H  H580  1  0.872700  0.326000  0.119200  1.0
  H  H581  1  0.371400  0.667100  0.708200  1.0
  H  H582  1  0.128600  0.624700  0.708200  1.0
  H  H583  1  0.628600  0.332900  0.291800  1.0
  H  H584  1  0.871400  0.375300  0.291800  1.0
  H  H585  1  0.298000  0.594600  0.747600  1.0
  H  H586  1  0.202000  0.657800  0.747600  1.0
  H  H587  1  0.702000  0.405400  0.252400  1.0
  H  H588  1  0.798000  0.342200  0.252400  1.0
  H  H589  1  0.323800  0.500300  0.810400  1.0
  H  H590  1  0.176200  0.689300  0.810400  1.0
  H  H591  1  0.676200  0.499700  0.189600  1.0
  H  H592  1  0.823800  0.310700  0.189600  1.0
  H  H593  1  0.474500  0.700000  0.721800  1.0
  H  H594  1  0.025500  0.578200  0.721800  1.0
  H  H595  1  0.525500  0.300000  0.278200  1.0
  H  H596  1  0.974500  0.421800  0.278200  1.0
  H  H597  1  0.599800  0.663600  0.839000  1.0
  H  H598  1  0.900200  0.497400  0.839000  1.0
  H  H599  1  0.400200  0.336400  0.161000  1.0
  H  H600  1  0.099800  0.502600  0.161000  1.0
  H  H601  1  0.703300  0.793700  0.738800  1.0
  H  H602  1  0.796700  0.467500  0.738800  1.0
  H  H603  1  0.296700  0.206300  0.261200  1.0
  H  H604  1  0.203300  0.532500  0.261200  1.0
  H  H605  1  0.679500  0.646800  0.880800  1.0
  H  H606  1  0.820500  0.472400  0.880800  1.0
  H  H607  1  0.320500  0.353200  0.119200  1.0
  H  H608  1  0.179500  0.527600  0.119200  1.0
  H  H609  1  0.562800  0.730500  0.689200  1.0
  H  H610  1  0.937200  0.580300  0.689200  1.0
  H  H611  1  0.437200  0.269500  0.310800  1.0
  H  H612  1  0.062800  0.419700  0.310800  1.0
  H  H613  1  0.824100  0.709700  0.015600  1.0
  H  H614  1  0.675900  0.274700  0.015600  1.0
  H  H615  1  0.175900  0.290300  0.984400  1.0
  H  H616  1  0.324100  0.725300  0.984400  1.0
  H  H617  1  0.784300  0.609000  0.028200  1.0
  H  H618  1  0.715700  0.362800  0.028200  1.0
  H  H619  1  0.215700  0.391000  0.971800  1.0
  H  H620  1  0.284300  0.637200  0.971800  1.0
  H  H621  1  0.723200  0.594300  0.970200  1.0
  H  H622  1  0.776800  0.435500  0.970200  1.0
  H  H623  1  0.276800  0.405700  0.029800  1.0
  H  H624  1  0.223200  0.564500  0.029800  1.0
  H  H625  1  0.818300  0.835100  0.889400  1.0
  H  H626  1  0.681700  0.275500  0.889400  1.0
  H  H627  1  0.181700  0.164900  0.110600  1.0
  H  H628  1  0.318300  0.724500  0.110600  1.0
  H  H629  1  0.848400  0.813200  0.943800  1.0
  H  H630  1  0.651600  0.243000  0.943800  1.0
  H  H631  1  0.151600  0.186800  0.056200  1.0
  H  H632  1  0.348400  0.757000  0.056200  1.0
  H  H633  1  0.786000  0.846400  0.934200  1.0
  H  H634  1  0.714000  0.219400  0.934200  1.0
  H  H635  1  0.214000  0.153600  0.065800  1.0
  H  H636  1  0.286000  0.780600  0.065800  1.0
  H  H637  1  0.626300  0.740900  0.626600  1.0
  H  H638  1  0.873700  0.632500  0.626600  1.0
  H  H639  1  0.373700  0.259100  0.373400  1.0
  H  H640  1  0.126300  0.367500  0.373400  1.0
  H  H641  1  0.653300  0.796700  0.545200  1.0
  H  H642  1  0.846700  0.658100  0.545200  1.0
  H  H643  1  0.346700  0.203300  0.454800  1.0
  H  H644  1  0.153300  0.341900  0.454800  1.0
  H  H645  1  0.721100  0.931200  0.585200  1.0
  H  H646  1  0.778900  0.483600  0.585200  1.0
  H  H647  1  0.278900  0.068800  0.414800  1.0
  H  H648  1  0.221100  0.516400  0.414800  1.0
  H  H649  1  0.697900  0.871000  0.666600  1.0
  H  H650  1  0.802100  0.462400  0.666600  1.0
  H  H651  1  0.302100  0.129000  0.333400  1.0
  H  H652  1  0.197900  0.537600  0.333400  1.0
  H  H653  1  0.635700  0.891100  0.469400  1.0
  H  H654  1  0.864300  0.639500  0.469400  1.0
  H  H655  1  0.364300  0.108900  0.530600  1.0
  H  H656  1  0.135700  0.360500  0.530600  1.0
  H  H657  1  0.761300  0.996100  0.369200  1.0
  H  H658  1  0.738700  0.634700  0.369200  1.0
  H  H659  1  0.238700  0.003900  0.630800  1.0
  H  H660  1  0.261300  0.365300  0.630800  1.0
  H  H661  1  0.787900  0.939500  0.515600  1.0
  H  H662  1  0.712100  0.544900  0.515600  1.0
  H  H663  1  0.212100  0.060500  0.484400  1.0
  H  H664  1  0.287900  0.455100  0.484400  1.0
  H  H665  1  0.711600  0.955900  0.324800  1.0
  H  H666  1  0.788400  0.719300  0.324800  1.0
  H  H667  1  0.288400  0.044100  0.675200  1.0
  H  H668  1  0.211600  0.280700  0.675200  1.0
  H  H669  1  0.523400  0.958300  0.198600  1.0
  H  H670  1  0.976600  0.843100  0.198600  1.0
  H  H671  1  0.476600  0.041700  0.801400  1.0
  H  H672  1  0.023400  0.156900  0.801400  1.0
  H  H673  1  0.627900  0.959100  0.180400  1.0
  H  H674  1  0.872100  0.860500  0.180400  1.0
  H  H675  1  0.372100  0.040900  0.819600  1.0
  H  H676  1  0.127900  0.139500  0.819600  1.0
  H  H677  1  0.694200  0.947900  0.243000  1.0
  H  H678  1  0.805800  0.809100  0.243000  1.0
  H  H679  1  0.305800  0.052100  0.757000  1.0
  H  H680  1  0.194200  0.190900  0.757000  1.0
  H  H681  1  0.460800  0.915000  0.309600  1.0
  H  H682  1  0.039200  0.775400  0.309600  1.0
  H  H683  1  0.539200  0.085000  0.690400  1.0
  H  H684  1  0.960800  0.224600  0.690400  1.0
  H  H685  1  0.448300  0.967100  0.254000  1.0
  H  H686  1  0.051700  0.778900  0.254000  1.0
  H  H687  1  0.551700  0.032900  0.746000  1.0
  H  H688  1  0.948300  0.221100  0.746000  1.0
  H  H689  1  0.467700  0.988000  0.298000  1.0
  H  H690  1  0.032300  0.714000  0.298000  1.0
  H  H691  1  0.532300  0.012000  0.702000  1.0
  H  H692  1  0.967700  0.286000  0.702000  1.0
  H  H693  1  0.839200  0.027900  0.485200  1.0
  H  H694  1  0.660800  0.486900  0.485200  1.0
  H  H695  1  0.160800  0.972100  0.514800  1.0
  H  H696  1  0.339200  0.513100  0.514800  1.0
  H  H697  1  0.061400  0.107900  0.400800  1.0
  H  H698  1  0.438600  0.491300  0.400800  1.0
  H  H699  1  0.938600  0.892100  0.599200  1.0
  H  H700  1  0.561400  0.508700  0.599200  1.0
  H  H701  1  0.029400  0.105800  0.478400  1.0
  H  H702  1  0.470600  0.415800  0.478400  1.0
  H  H703  1  0.970600  0.894200  0.521600  1.0
  H  H704  1  0.529400  0.584200  0.521600  1.0
  H  H705  1  0.935300  0.069600  0.505800  1.0
  H  H706  1  0.564700  0.424600  0.505800  1.0
  H  H707  1  0.064700  0.930400  0.494200  1.0
  H  H708  1  0.435300  0.575400  0.494200  1.0
  H  H709  1  0.031400  0.101400  0.319000  1.0
  H  H710  1  0.468600  0.579600  0.319000  1.0
  H  H711  1  0.968600  0.898600  0.681000  1.0
  H  H712  1  0.531400  0.420400  0.681000  1.0
  H  H713  1  0.985600  0.048200  0.323800  1.0
  H  H714  1  0.514400  0.628000  0.323800  1.0
  H  H715  1  0.014400  0.951800  0.676200  1.0
  H  H716  1  0.485600  0.372000  0.676200  1.0
  H  H717  1  0.048700  0.028700  0.348000  1.0
  H  H718  1  0.451300  0.623300  0.348000  1.0
  H  H719  1  0.951300  0.971300  0.652000  1.0
  H  H720  1  0.548700  0.376700  0.652000  1.0
  N  N721  1  0.750000  0.817700  0.364600  1
  N  N722  1  0.250000  0.182300  0.635400  1
  N  N723  1  0.750000  0.584200  0.831600  1
  N  N724  1  0.250000  0.415800  0.168400  1
  N  N725  1  0.545300  0.555400  0.904800  1.0
  N  N726  1  0.954700  0.539800  0.904800  1.0
  N  N727  1  0.454700  0.444600  0.095200  1.0
  N  N728  1  0.045300  0.460200  0.095200  1.0
  N  N729  1  0.593400  0.518300  0.838400  1.0
  N  N730  1  0.906600  0.643300  0.838400  1.0
  N  N731  1  0.406600  0.481700  0.161600  1.0
  N  N732  1  0.093400  0.356700  0.161600  1.0
  N  N733  1  0.708100  0.379300  0.782600  1.0
  N  N734  1  0.791900  0.838100  0.782600  1.0
  N  N735  1  0.291900  0.620700  0.217400  1.0
  N  N736  1  0.208100  0.161900  0.217400  1.0
  N  N737  1  0.785300  0.287800  0.808000  1.0
  N  N738  1  0.714700  0.904200  0.808000  1.0
  N  N739  1  0.214700  0.712200  0.192000  1.0
  N  N740  1  0.285300  0.095800  0.192000  1.0
  N  N741  1  0.531500  0.869830  0.430340  1.0
  N  N742  1  0.968500  0.699830  0.430340  1.0
  N  N743  1  0.468500  0.130170  0.569660  1.0
  N  N744  1  0.031500  0.300170  0.569660  1.0
  N  N745  1  0.505500  0.987700  0.407000  1.0
  N  N746  1  0.994500  0.605300  0.407000  1.0
  N  N747  1  0.494500  0.012300  0.593000  1.0
  N  N748  1  0.005500  0.394700  0.593000  1.0
  N  N749  1  0.613700  0.715000  0.373600  1.0
  N  N750  1  0.886300  0.911400  0.373600  1.0
  N  N751  1  0.386300  0.285000  0.626400  1.0
  N  N752  1  0.113700  0.088600  0.626400  1.0
  N  N753  1  0.645500  0.670500  0.305400  1.0
  N  N754  1  0.854500  0.024100  0.305400  1.0
  N  N755  1  0.354500  0.329500  0.694600  1.0
  N  N756  1  0.145500  0.975900  0.694600  1.0
  N  N757  1  0.441100  0.570200  0.808200  1.0
  N  N758  1  0.058900  0.621600  0.808200  1.0
  N  N759  1  0.558900  0.429800  0.191800  1.0
  N  N760  1  0.941100  0.378400  0.191800  1.0
  N  N761  1  0.519800  0.654790  0.778620  1.0
  N  N762  1  0.980200  0.566590  0.778620  1.0
  N  N763  1  0.480200  0.345210  0.221380  1.0
  N  N764  1  0.019800  0.433410  0.221380  1.0
  N  N765  1  0.685100  0.734800  0.835400  1.0
  N  N766  1  0.814900  0.429800  0.835400  1.0
  N  N767  1  0.314900  0.265200  0.164600  1.0
  N  N768  1  0.185100  0.570200  0.164600  1.0
  N  N769  1  0.750700  0.749400  0.906400  1.0
  N  N770  1  0.749300  0.344200  0.906400  1.0
  N  N771  1  0.249300  0.250600  0.093600  1.0
  N  N772  1  0.250700  0.655800  0.093600  1.0
  N  N773  1  0.575300  0.952400  0.304400  1.0
  N  N774  1  0.924700  0.743200  0.304400  1.0
  N  N775  1  0.424700  0.047600  0.695600  1.0
  N  N776  1  0.075300  0.256800  0.695600  1.0
  N  N777  1  0.651900  0.951200  0.372400  1.0
  N  N778  1  0.848100  0.676400  0.372400  1.0
  N  N779  1  0.348100  0.048800  0.627600  1.0
  N  N780  1  0.151900  0.323600  0.627600  1.0
  N  N781  1  0.834300  0.003620  0.429360  1.0
  N  N782  1  0.665700  0.567020  0.429360  1.0
  N  N783  1  0.165700  0.996380  0.570640  1.0
  N  N784  1  0.334300  0.432980  0.570640  1.0
  N  N785  1  0.938400  0.040900  0.405800  1.0
  N  N786  1  0.561600  0.553300  0.405800  1.0
  N  N787  1  0.061600  0.959100  0.594200  1.0
  N  N788  1  0.438400  0.446700  0.594200  1.0
