# generated using pymatgen
data_CrH12C12O5
_symmetry_space_group_name_H-M   'P 1'
_cell_length_a   29.16793093
_cell_length_b   29.16793093
_cell_length_c   29.16793093
_cell_angle_alpha   120.00211155
_cell_angle_beta   120.00211155
_cell_angle_gamma   89.99634273
_symmetry_Int_Tables_number   1
_chemical_formula_structural   CrH12C12O5
_chemical_formula_sum   'Cr24 H288 C288 O120'
_cell_volume   17546.39931757
_cell_formula_units_Z   24
loop_
 _symmetry_equiv_pos_site_id
 _symmetry_equiv_pos_as_xyz
  1  'x, y, z'
loop_
 _atom_site_type_symbol
 _atom_site_label
 _atom_site_symmetry_multiplicity
 _atom_site_fract_x
 _atom_site_fract_y
 _atom_site_fract_z
 _atom_site_occupancy
  C  C1  1  0.122700  0.364000  0.394500  1.0
  C  C2  1  0.728200  0.122700  0.758700  1.0
  C  C3  1  0.969500  0.728200  0.605500  1.0
  C  C4  1  0.364000  0.969500  0.241300  1.0
  C  C5  1  0.877300  0.636000  0.605500  1.0
  C  C6  1  0.271800  0.877300  0.241300  1.0
  C  C7  1  0.030500  0.271800  0.394500  1.0
  C  C8  1  0.636000  0.030500  0.758700  1.0
  C  C9  1  0.291100  0.356800  0.385300  1.0
  C  C10  1  0.905800  0.291100  0.934300  1.0
  C  C11  1  0.971500  0.905800  0.614700  1.0
  C  C12  1  0.356800  0.971500  0.065700  1.0
  C  C13  1  0.708900  0.643200  0.614700  1.0
  C  C14  1  0.094200  0.708900  0.065700  1.0
  C  C15  1  0.028500  0.094200  0.385300  1.0
  C  C16  1  0.643200  0.028500  0.934300  1.0
  C  C17  1  0.210450  0.363370  0.396320  1.0
  C  C18  1  0.814130  0.210450  0.847080  1.0
  C  C19  1  0.967050  0.814130  0.603680  1.0
  C  C20  1  0.363370  0.967050  0.152920  1.0
  C  C21  1  0.789550  0.636630  0.603680  1.0
  C  C22  1  0.185870  0.789550  0.152920  1.0
  C  C23  1  0.032950  0.185870  0.396320  1.0
  C  C24  1  0.636630  0.032950  0.847080  1.0
  C  C25  1  0.186890  0.388890  0.430000  1.0
  C  C26  1  0.756890  0.186890  0.798000  1.0
  C  C27  1  0.958890  0.756890  0.570000  1.0
  C  C28  1  0.388890  0.958890  0.202000  1.0
  C  C29  1  0.813110  0.611110  0.570000  1.0
  C  C30  1  0.243110  0.813110  0.202000  1.0
  C  C31  1  0.041110  0.243110  0.430000  1.0
  C  C32  1  0.611110  0.041110  0.798000  1.0
  C  C33  1  0.220070  0.437600  0.492730  1.0
  C  C34  1  0.727340  0.220070  0.782470  1.0
  C  C35  1  0.944870  0.727340  0.507270  1.0
  C  C36  1  0.437600  0.944870  0.217530  1.0
  C  C37  1  0.779930  0.562400  0.507270  1.0
  C  C38  1  0.272660  0.779930  0.217530  1.0
  C  C39  1  0.055130  0.272660  0.492730  1.0
  C  C40  1  0.562400  0.055130  0.782470  1.0
  C  C41  1  0.276620  0.460860  0.521640  1.0
  C  C42  1  0.754980  0.276620  0.815760  1.0
  C  C43  1  0.939220  0.754980  0.478360  1.0
  C  C44  1  0.460860  0.939220  0.184240  1.0
  C  C45  1  0.723380  0.539140  0.478360  1.0
  C  C46  1  0.245020  0.723380  0.184240  1.0
  C  C47  1  0.060780  0.245020  0.521640  1.0
  C  C48  1  0.539140  0.060780  0.815760  1.0
  C  C49  1  0.300180  0.435380  0.488000  1.0
  C  C50  1  0.812180  0.300180  0.864800  1.0
  C  C51  1  0.947380  0.812180  0.512000  1.0
  C  C52  1  0.435380  0.947380  0.135200  1.0
  C  C53  1  0.699820  0.564620  0.512000  1.0
  C  C54  1  0.187820  0.699820  0.135200  1.0
  C  C55  1  0.052620  0.187820  0.488000  1.0
  C  C56  1  0.564620  0.052620  0.864800  1.0
  C  C57  1  0.266990  0.386620  0.425230  1.0
  C  C58  1  0.841760  0.266990  0.880370  1.0
  C  C59  1  0.961390  0.841760  0.574770  1.0
  C  C60  1  0.386620  0.961390  0.119630  1.0
  C  C61  1  0.733010  0.613380  0.574770  1.0
  C  C62  1  0.158240  0.733010  0.119630  1.0
  C  C63  1  0.038610  0.158240  0.425230  1.0
  C  C64  1  0.613380  0.038610  0.880370  1.0
  C  C65  1  0.311520  0.515560  0.589640  1.0
  C  C66  1  0.721880  0.311520  0.795960  1.0
  C  C67  1  0.925920  0.721880  0.410360  1.0
  C  C68  1  0.515560  0.925920  0.204040  1.0
  C  C69  1  0.688480  0.484440  0.410360  1.0
  C  C70  1  0.278120  0.688480  0.204040  1.0
  C  C71  1  0.074080  0.278120  0.589640  1.0
  C  C72  1  0.484440  0.074080  0.795960  1.0
  C  C73  1  0.300300  0.564900  0.585400  1.0
  C  C74  1  0.714900  0.300300  0.735400  1.0
  C  C75  1  0.979500  0.714900  0.414600  1.0
  C  C76  1  0.564900  0.979500  0.264600  1.0
  C  C77  1  0.699700  0.435100  0.414600  1.0
  C  C78  1  0.285100  0.699700  0.264600  1.0
  C  C79  1  0.020500  0.285100  0.585400  1.0
  C  C80  1  0.435100  0.020500  0.735400  1.0
  C  C81  1  0.295300  0.513900  0.631200  1.0
  C  C82  1  0.664100  0.295300  0.781400  1.0
  C  C83  1  0.882700  0.664100  0.368800  1.0
  C  C84  1  0.513900  0.882700  0.218600  1.0
  C  C85  1  0.704700  0.486100  0.368800  1.0
  C  C86  1  0.335900  0.704700  0.218600  1.0
  C  C87  1  0.117300  0.335900  0.631200  1.0
  C  C88  1  0.486100  0.117300  0.781400  1.0
  C  C89  1  0.373800  0.522700  0.620300  1.0
  C  C90  1  0.753500  0.373800  0.851100  1.0
  C  C91  1  0.902400  0.753500  0.379700  1.0
  C  C92  1  0.522700  0.902400  0.148900  1.0
  C  C93  1  0.626200  0.477300  0.379700  1.0
  C  C94  1  0.246500  0.626200  0.148900  1.0
  C  C95  1  0.097600  0.246500  0.620300  1.0
  C  C96  1  0.477300  0.097600  0.851100  1.0
  C  C97  1  0.374100  0.263800  0.378300  1.0
  C  C98  1  0.995800  0.374100  0.110300  1.0
  C  C99  1  0.885500  0.995800  0.621700  1.0
  C  C100  1  0.263800  0.885500  0.889700  1.0
  C  C101  1  0.625900  0.736200  0.621700  1.0
  C  C102  1  0.004200  0.625900  0.889700  1.0
  C  C103  1  0.114500  0.004200  0.378300  1.0
  C  C104  1  0.736200  0.114500  0.110300  1.0
  C  C105  1  0.366700  0.084700  0.369400  1.0
  C  C106  1  0.997300  0.366700  0.282000  1.0
  C  C107  1  0.715300  0.997300  0.630600  1.0
  C  C108  1  0.084700  0.715300  0.718000  1.0
  C  C109  1  0.633300  0.915300  0.630600  1.0
  C  C110  1  0.002700  0.633300  0.718000  1.0
  C  C111  1  0.284700  0.002700  0.369400  1.0
  C  C112  1  0.915300  0.284700  0.282000  1.0
  C  C113  1  0.398980  0.234080  0.412700  1.0
  C  C114  1  0.986280  0.398980  0.164900  1.0
  C  C115  1  0.821380  0.986280  0.587300  1.0
  C  C116  1  0.234080  0.821380  0.835100  1.0
  C  C117  1  0.601020  0.765920  0.587300  1.0
  C  C118  1  0.013720  0.601020  0.835100  1.0
  C  C119  1  0.178620  0.013720  0.412700  1.0
  C  C120  1  0.765920  0.178620  0.164900  1.0
  C  C121  1  0.448350  0.262550  0.474800  1.0
  C  C122  1  0.973550  0.448350  0.185800  1.0
  C  C123  1  0.787750  0.973550  0.525200  1.0
  C  C124  1  0.262550  0.787750  0.814200  1.0
  C  C125  1  0.551650  0.737450  0.525200  1.0
  C  C126  1  0.026450  0.551650  0.814200  1.0
  C  C127  1  0.212250  0.026450  0.474800  1.0
  C  C128  1  0.737450  0.212250  0.185800  1.0
  C  C129  1  0.471990  0.233560  0.501830  1.0
  C  C130  1  0.970160  0.471990  0.238430  1.0
  C  C131  1  0.731730  0.970160  0.498170  1.0
  C  C132  1  0.233560  0.731730  0.761570  1.0
  C  C133  1  0.528010  0.766440  0.498170  1.0
  C  C134  1  0.029840  0.528010  0.761570  1.0
  C  C135  1  0.268270  0.029840  0.501830  1.0
  C  C136  1  0.766440  0.268270  0.238430  1.0
  C  C137  1  0.446210  0.176210  0.466800  1.0
  C  C138  1  0.979410  0.446210  0.270000  1.0
  C  C139  1  0.709410  0.979410  0.533200  1.0
  C  C140  1  0.176210  0.709410  0.730000  1.0
  C  C141  1  0.553790  0.823790  0.533200  1.0
  C  C142  1  0.020590  0.553790  0.730000  1.0
  C  C143  1  0.290590  0.020590  0.466800  1.0
  C  C144  1  0.823790  0.290590  0.270000  1.0
  C  C145  1  0.396830  0.147730  0.404700  1.0
  C  C146  1  0.992130  0.396830  0.249100  1.0
  C  C147  1  0.743030  0.992130  0.595300  1.0
  C  C148  1  0.147730  0.743030  0.750900  1.0
  C  C149  1  0.603170  0.852270  0.595300  1.0
  C  C150  1  0.007870  0.603170  0.750900  1.0
  C  C151  1  0.256970  0.007870  0.404700  1.0
  C  C152  1  0.852270  0.256970  0.249100  1.0
  C  C153  1  0.373200  0.176720  0.377680  1.0
  C  C154  1  0.995520  0.373200  0.196480  1.0
  C  C155  1  0.799040  0.995520  0.622320  1.0
  C  C156  1  0.176720  0.799040  0.803520  1.0
  C  C157  1  0.626800  0.823280  0.622320  1.0
  C  C158  1  0.004480  0.626800  0.803520  1.0
  C  C159  1  0.200960  0.004480  0.377680  1.0
  C  C160  1  0.823280  0.200960  0.196480  1.0
  C  C161  1  0.526400  0.267200  0.570400  1.0
  C  C162  1  0.956000  0.526400  0.259200  1.0
  C  C163  1  0.696800  0.956000  0.429600  1.0
  C  C164  1  0.267200  0.696800  0.740800  1.0
  C  C165  1  0.473600  0.732800  0.429600  1.0
  C  C166  1  0.044000  0.473600  0.740800  1.0
  C  C167  1  0.303200  0.044000  0.570400  1.0
  C  C168  1  0.732800  0.303200  0.259200  1.0
  C  C169  1  0.530200  0.327100  0.615700  1.0
  C  C170  1  0.914500  0.530200  0.203100  1.0
  C  C171  1  0.711400  0.914500  0.384300  1.0
  C  C172  1  0.327100  0.711400  0.796900  1.0
  C  C173  1  0.469800  0.672900  0.384300  1.0
  C  C174  1  0.085500  0.469800  0.796900  1.0
  C  C175  1  0.288600  0.085500  0.615700  1.0
  C  C176  1  0.672900  0.288600  0.203100  1.0
  C  C177  1  0.538100  0.237400  0.603900  1.0
  C  C178  1  0.934200  0.538100  0.300700  1.0
  C  C179  1  0.633500  0.934200  0.396100  1.0
  C  C180  1  0.237400  0.633500  0.699300  1.0
  C  C181  1  0.461900  0.762600  0.396100  1.0
  C  C182  1  0.065800  0.461900  0.699300  1.0
  C  C183  1  0.366500  0.065800  0.603900  1.0
  C  C184  1  0.762600  0.366500  0.300700  1.0
  C  C185  1  0.571800  0.270700  0.558900  1.0
  C  C186  1  0.012900  0.571800  0.301100  1.0
  C  C187  1  0.711800  0.012900  0.441100  1.0
  C  C188  1  0.270700  0.711800  0.698900  1.0
  C  C189  1  0.428200  0.729300  0.441100  1.0
  C  C190  1  0.987100  0.428200  0.698900  1.0
  C  C191  1  0.288200  0.987100  0.558900  1.0
  C  C192  1  0.729300  0.288200  0.301100  1.0
  C  C193  1  0.288800  0.357800  0.264600  1.0
  C  C194  1  0.024200  0.288800  0.931000  1.0
  C  C195  1  0.093200  0.024200  0.735400  1.0
  C  C196  1  0.357800  0.093200  0.069000  1.0
  C  C197  1  0.711200  0.642200  0.735400  1.0
  C  C198  1  0.975800  0.711200  0.069000  1.0
  C  C199  1  0.906800  0.975800  0.264600  1.0
  C  C200  1  0.642200  0.906800  0.931000  1.0
  C  C201  1  0.118000  0.371700  0.104100  1.0
  C  C202  1  0.013900  0.118000  0.746300  1.0
  C  C203  1  0.267600  0.013900  0.895900  1.0
  C  C204  1  0.371700  0.267600  0.253700  1.0
  C  C205  1  0.882000  0.628300  0.895900  1.0
  C  C206  1  0.986100  0.882000  0.253700  1.0
  C  C207  1  0.732400  0.986100  0.104100  1.0
  C  C208  1  0.628300  0.732400  0.746300  1.0
  C  C209  1  0.205070  0.367470  0.184400  1.0
  C  C210  1  0.020670  0.205070  0.837600  1.0
  C  C211  1  0.183070  0.020670  0.815600  1.0
  C  C212  1  0.367470  0.183070  0.162400  1.0
  C  C213  1  0.794930  0.632530  0.815600  1.0
  C  C214  1  0.979330  0.794930  0.162400  1.0
  C  C215  1  0.816930  0.979330  0.184400  1.0
  C  C216  1  0.632530  0.816930  0.837600  1.0
  C  C217  1  0.262690  0.388190  0.231100  1.0
  C  C218  1  0.031590  0.262690  0.874500  1.0
  C  C219  1  0.157090  0.031590  0.768900  1.0
  C  C220  1  0.388190  0.157090  0.125500  1.0
  C  C221  1  0.737310  0.611810  0.768900  1.0
  C  C222  1  0.968410  0.737310  0.125500  1.0
  C  C223  1  0.842910  0.968410  0.231100  1.0
  C  C224  1  0.611810  0.842910  0.874500  1.0
  C  C225  1  0.295510  0.436510  0.249200  1.0
  C  C226  1  0.046310  0.295510  0.859000  1.0
  C  C227  1  0.187310  0.046310  0.750800  1.0
  C  C228  1  0.436510  0.187310  0.141000  1.0
  C  C229  1  0.704490  0.563490  0.750800  1.0
  C  C230  1  0.953690  0.704490  0.141000  1.0
  C  C231  1  0.812690  0.953690  0.249200  1.0
  C  C232  1  0.563490  0.812690  0.859000  1.0
  C  C233  1  0.270710  0.464110  0.220600  1.0
  C  C234  1  0.050110  0.270710  0.806600  1.0
  C  C235  1  0.243510  0.050110  0.779400  1.0
  C  C236  1  0.464110  0.243510  0.193400  1.0
  C  C237  1  0.729290  0.535890  0.779400  1.0
  C  C238  1  0.949890  0.729290  0.193400  1.0
  C  C239  1  0.756490  0.949890  0.220600  1.0
  C  C240  1  0.535890  0.756490  0.806600  1.0
  C  C241  1  0.213090  0.443390  0.173900  1.0
  C  C242  1  0.039190  0.213090  0.769700  1.0
  C  C243  1  0.269490  0.039190  0.826100  1.0
  C  C244  1  0.443390  0.269490  0.230300  1.0
  C  C245  1  0.786910  0.556610  0.826100  1.0
  C  C246  1  0.960810  0.786910  0.230300  1.0
  C  C247  1  0.730510  0.960810  0.173900  1.0
  C  C248  1  0.556610  0.730510  0.769700  1.0
  C  C249  1  0.180270  0.395070  0.155800  1.0
  C  C250  1  0.024470  0.180270  0.785200  1.0
  C  C251  1  0.239270  0.024470  0.844200  1.0
  C  C252  1  0.395070  0.239270  0.214800  1.0
  C  C253  1  0.819730  0.604930  0.844200  1.0
  C  C254  1  0.975530  0.819730  0.214800  1.0
  C  C255  1  0.760730  0.975530  0.155800  1.0
  C  C256  1  0.604930  0.760730  0.785200  1.0
  C  C257  1  0.303460  0.520360  0.243100  1.0
  C  C258  1  0.060360  0.303460  0.783100  1.0
  C  C259  1  0.277260  0.060360  0.756900  1.0
  C  C260  1  0.520360  0.277260  0.216900  1.0
  C  C261  1  0.696540  0.479640  0.756900  1.0
  C  C262  1  0.939640  0.696540  0.216900  1.0
  C  C263  1  0.722740  0.939640  0.243100  1.0
  C  C264  1  0.479640  0.722740  0.783100  1.0
  C  C265  1  0.276400  0.564000  0.264400  1.0
  C  C266  1  0.012000  0.276400  0.712400  1.0
  C  C267  1  0.299600  0.012000  0.735600  1.0
  C  C268  1  0.564000  0.299600  0.287600  1.0
  C  C269  1  0.723600  0.436000  0.735600  1.0
  C  C270  1  0.988000  0.723600  0.287600  1.0
  C  C271  1  0.700400  0.988000  0.264400  1.0
  C  C272  1  0.436000  0.700400  0.712400  1.0
  C  C273  1  0.302500  0.513700  0.187200  1.0
  C  C274  1  0.115300  0.302500  0.788800  1.0
  C  C275  1  0.326500  0.115300  0.812800  1.0
  C  C276  1  0.513700  0.326500  0.211200  1.0
  C  C277  1  0.697500  0.486300  0.812800  1.0
  C  C278  1  0.884700  0.697500  0.211200  1.0
  C  C279  1  0.673500  0.884700  0.187200  1.0
  C  C280  1  0.486300  0.673500  0.788800  1.0
  C  C281  1  0.364000  0.539400  0.299800  1.0
  C  C282  1  0.064200  0.364000  0.824600  1.0
  C  C283  1  0.239600  0.064200  0.700200  1.0
  C  C284  1  0.539400  0.239600  0.175400  1.0
  C  C285  1  0.636000  0.460600  0.700200  1.0
  C  C286  1  0.935800  0.636000  0.175400  1.0
  C  C287  1  0.760400  0.935800  0.299800  1.0
  C  C288  1  0.460600  0.760400  0.824600  1.0
  Cr  Cr289  1  0.016370  0.280820  0.297190  1.0
  Cr  Cr290  1  0.719180  0.016370  0.735550  1.0
  Cr  Cr291  1  0.983630  0.719180  0.702810  1.0
  Cr  Cr292  1  0.280820  0.983630  0.264450  1.0
  Cr  Cr293  1  0.021600  0.362610  0.384210  1.0
  Cr  Cr294  1  0.637390  0.021600  0.658990  1.0
  Cr  Cr295  1  0.978400  0.637390  0.615790  1.0
  Cr  Cr296  1  0.362610  0.978400  0.341010  1.0
  Cr  Cr297  1  0.375010  0.351570  0.362220  1.0
  Cr  Cr298  1  0.012790  0.375010  0.023440  1.0
  Cr  Cr299  1  0.989350  0.012790  0.637780  1.0
  Cr  Cr300  1  0.351570  0.989350  0.976560  1.0
  Cr  Cr301  1  0.624990  0.648430  0.637780  1.0
  Cr  Cr302  1  0.987210  0.624990  0.976560  1.0
  Cr  Cr303  1  0.010650  0.987210  0.362220  1.0
  Cr  Cr304  1  0.648430  0.010650  0.023440  1.0
  Cr  Cr305  1  0.290050  0.272950  0.280820  1.0
  Cr  Cr306  1  0.009230  0.290050  0.017100  1.0
  Cr  Cr307  1  0.992130  0.009230  0.719180  1.0
  Cr  Cr308  1  0.272950  0.992130  0.982900  1.0
  Cr  Cr309  1  0.709950  0.727050  0.719180  1.0
  Cr  Cr310  1  0.990770  0.709950  0.982900  1.0
  Cr  Cr311  1  0.007870  0.990770  0.280820  1.0
  Cr  Cr312  1  0.727050  0.007870  0.017100  1.0
  H  H313  1  0.187800  0.330100  0.353500  1.0
  H  H314  1  0.834300  0.187800  0.857700  1.0
  H  H315  1  0.976600  0.834300  0.646500  1.0
  H  H316  1  0.330100  0.976600  0.142300  1.0
  H  H317  1  0.812200  0.669900  0.646500  1.0
  H  H318  1  0.165700  0.812200  0.142300  1.0
  H  H319  1  0.023400  0.165700  0.353500  1.0
  H  H320  1  0.669900  0.023400  0.857700  1.0
  H  H321  1  0.203900  0.455000  0.515700  1.0
  H  H322  1  0.688200  0.203900  0.748900  1.0
  H  H323  1  0.939300  0.688200  0.484300  1.0
  H  H324  1  0.455000  0.939300  0.251100  1.0
  H  H325  1  0.796100  0.545000  0.484300  1.0
  H  H326  1  0.311800  0.796100  0.251100  1.0
  H  H327  1  0.060700  0.311800  0.515700  1.0
  H  H328  1  0.545000  0.060700  0.748900  1.0
  H  H329  1  0.338800  0.451300  0.507700  1.0
  H  H330  1  0.831100  0.338800  0.887500  1.0
  H  H331  1  0.943600  0.831100  0.492300  1.0
  H  H332  1  0.451300  0.943600  0.112500  1.0
  H  H333  1  0.661200  0.548700  0.492300  1.0
  H  H334  1  0.168900  0.661200  0.112500  1.0
  H  H335  1  0.056400  0.168900  0.507700  1.0
  H  H336  1  0.548700  0.056400  0.887500  1.0
  H  H337  1  0.311000  0.566200  0.559000  1.0
  H  H338  1  0.752000  0.311000  0.744800  1.0
  H  H339  1  0.007200  0.752000  0.441000  1.0
  H  H340  1  0.566200  0.007200  0.255200  1.0
  H  H341  1  0.689000  0.433800  0.441000  1.0
  H  H342  1  0.248000  0.689000  0.255200  1.0
  H  H343  1  0.992800  0.248000  0.559000  1.0
  H  H344  1  0.433800  0.992800  0.744800  1.0
  H  H345  1  0.322400  0.600000  0.629000  1.0
  H  H346  1  0.693400  0.322400  0.722400  1.0
  H  H347  1  0.971000  0.693400  0.371000  1.0
  H  H348  1  0.600000  0.971000  0.277600  1.0
  H  H349  1  0.677600  0.400000  0.371000  1.0
  H  H350  1  0.306600  0.677600  0.277600  1.0
  H  H351  1  0.029000  0.306600  0.629000  1.0
  H  H352  1  0.400000  0.029000  0.722400  1.0
  H  H353  1  0.260200  0.560100  0.565300  1.0
  H  H354  1  0.694900  0.260200  0.700100  1.0
  H  H355  1  0.994800  0.694900  0.434700  1.0
  H  H356  1  0.560100  0.994800  0.299900  1.0
  H  H357  1  0.739800  0.439900  0.434700  1.0
  H  H358  1  0.305100  0.739800  0.299900  1.0
  H  H359  1  0.005200  0.305100  0.565300  1.0
  H  H360  1  0.439900  0.005200  0.700100  1.0
  H  H361  1  0.302400  0.482100  0.633900  1.0
  H  H362  1  0.668500  0.302400  0.820300  1.0
  H  H363  1  0.848200  0.668500  0.366100  1.0
  H  H364  1  0.482100  0.848200  0.179700  1.0
  H  H365  1  0.697600  0.517900  0.366100  1.0
  H  H366  1  0.331500  0.697600  0.179700  1.0
  H  H367  1  0.151800  0.331500  0.633900  1.0
  H  H368  1  0.517900  0.151800  0.820300  1.0
  H  H369  1  0.255400  0.509400  0.611600  1.0
  H  H370  1  0.643800  0.255400  0.746000  1.0
  H  H371  1  0.897800  0.643800  0.388400  1.0
  H  H372  1  0.509400  0.897800  0.254000  1.0
  H  H373  1  0.744600  0.490600  0.388400  1.0
  H  H374  1  0.356200  0.744600  0.254000  1.0
  H  H375  1  0.102200  0.356200  0.611600  1.0
  H  H376  1  0.490600  0.102200  0.746000  1.0
  H  H377  1  0.317800  0.548900  0.674900  1.0
  H  H378  1  0.642900  0.317800  0.768900  1.0
  H  H379  1  0.874000  0.642900  0.325100  1.0
  H  H380  1  0.548900  0.874000  0.231100  1.0
  H  H381  1  0.682200  0.451100  0.325100  1.0
  H  H382  1  0.357100  0.682200  0.231100  1.0
  H  H383  1  0.126000  0.357100  0.674900  1.0
  H  H384  1  0.451100  0.126000  0.768900  1.0
  H  H385  1  0.381300  0.492200  0.625300  1.0
  H  H386  1  0.756000  0.381300  0.889100  1.0
  H  H387  1  0.866900  0.756000  0.374700  1.0
  H  H388  1  0.492200  0.866900  0.110900  1.0
  H  H389  1  0.618700  0.507800  0.374700  1.0
  H  H390  1  0.244000  0.618700  0.110900  1.0
  H  H391  1  0.133100  0.244000  0.625300  1.0
  H  H392  1  0.507800  0.133100  0.889100  1.0
  H  H393  1  0.396200  0.558800  0.662800  1.0
  H  H394  1  0.733400  0.396200  0.837400  1.0
  H  H395  1  0.896000  0.733400  0.337200  1.0
  H  H396  1  0.558800  0.896000  0.162600  1.0
  H  H397  1  0.603800  0.441200  0.337200  1.0
  H  H398  1  0.266600  0.603800  0.162600  1.0
  H  H399  1  0.104000  0.266600  0.662800  1.0
  H  H400  1  0.441200  0.104000  0.837400  1.0
  H  H401  1  0.383700  0.521600  0.592300  1.0
  H  H402  1  0.791400  0.383700  0.862100  1.0
  H  H403  1  0.929300  0.791400  0.407700  1.0
  H  H404  1  0.521600  0.929300  0.137900  1.0
  H  H405  1  0.616300  0.478400  0.407700  1.0
  H  H406  1  0.208600  0.616300  0.137900  1.0
  H  H407  1  0.070700  0.208600  0.592300  1.0
  H  H408  1  0.478400  0.070700  0.862100  1.0
  H  H409  1  0.466000  0.301800  0.498800  1.0
  H  H410  1  0.967200  0.466000  0.164200  1.0
  H  H411  1  0.803000  0.967200  0.501200  1.0
  H  H412  1  0.301800  0.803000  0.835800  1.0
  H  H413  1  0.534000  0.698200  0.501200  1.0
  H  H414  1  0.032800  0.534000  0.835800  1.0
  H  H415  1  0.197000  0.032800  0.498800  1.0
  H  H416  1  0.698200  0.197000  0.164200  1.0
  H  H417  1  0.462300  0.156400  0.485300  1.0
  H  H418  1  0.977000  0.462300  0.305900  1.0
  H  H419  1  0.671100  0.977000  0.514700  1.0
  H  H420  1  0.156400  0.671100  0.694100  1.0
  H  H421  1  0.537700  0.843600  0.514700  1.0
  H  H422  1  0.023000  0.537700  0.694100  1.0
  H  H423  1  0.328900  0.023000  0.485300  1.0
  H  H424  1  0.843600  0.328900  0.305900  1.0
  H  H425  1  0.339400  0.157200  0.335200  1.0
  H  H426  1  0.004200  0.339400  0.182200  1.0
  H  H427  1  0.822000  0.004200  0.664800  1.0
  H  H428  1  0.157200  0.822000  0.817800  1.0
  H  H429  1  0.660600  0.842800  0.664800  1.0
  H  H430  1  0.995800  0.660600  0.817800  1.0
  H  H431  1  0.178000  0.995800  0.335200  1.0
  H  H432  1  0.842800  0.178000  0.182200  1.0
  H  H433  1  0.502700  0.325500  0.625200  1.0
  H  H434  1  0.877500  0.502700  0.177200  1.0
  H  H435  1  0.700300  0.877500  0.374800  1.0
  H  H436  1  0.325500  0.700300  0.822800  1.0
  H  H437  1  0.497300  0.674500  0.374800  1.0
  H  H438  1  0.122500  0.497300  0.822800  1.0
  H  H439  1  0.299700  0.122500  0.625200  1.0
  H  H440  1  0.674500  0.299700  0.177200  1.0
  H  H441  1  0.522500  0.346600  0.594700  1.0
  H  H442  1  0.927800  0.522500  0.175900  1.0
  H  H443  1  0.751900  0.927800  0.405300  1.0
  H  H444  1  0.346600  0.751900  0.824100  1.0
  H  H445  1  0.477500  0.653400  0.405300  1.0
  H  H446  1  0.072200  0.477500  0.824100  1.0
  H  H447  1  0.248100  0.072200  0.594700  1.0
  H  H448  1  0.653400  0.248100  0.175900  1.0
  H  H449  1  0.568100  0.347500  0.656200  1.0
  H  H450  1  0.911900  0.568100  0.220600  1.0
  H  H451  1  0.691300  0.911900  0.343800  1.0
  H  H452  1  0.347500  0.691300  0.779400  1.0
  H  H453  1  0.431900  0.652500  0.343800  1.0
  H  H454  1  0.088100  0.431900  0.779400  1.0
  H  H455  1  0.308700  0.088100  0.656200  1.0
  H  H456  1  0.652500  0.308700  0.220600  1.0
  H  H457  1  0.533700  0.198400  0.574500  1.0
  H  H458  1  0.959200  0.533700  0.335300  1.0
  H  H459  1  0.623900  0.959200  0.425500  1.0
  H  H460  1  0.198400  0.623900  0.664700  1.0
  H  H461  1  0.466300  0.801600  0.425500  1.0
  H  H462  1  0.040800  0.466300  0.664700  1.0
  H  H463  1  0.376100  0.040800  0.574500  1.0
  H  H464  1  0.801600  0.376100  0.335300  1.0
  H  H465  1  0.511600  0.238100  0.615300  1.0
  H  H466  1  0.896300  0.511600  0.273500  1.0
  H  H467  1  0.622800  0.896300  0.384700  1.0
  H  H468  1  0.238100  0.622800  0.726500  1.0
  H  H469  1  0.488400  0.761900  0.384700  1.0
  H  H470  1  0.103700  0.488400  0.726500  1.0
  H  H471  1  0.377200  0.103700  0.615300  1.0
  H  H472  1  0.761900  0.377200  0.273500  1.0
  H  H473  1  0.576600  0.256700  0.643500  1.0
  H  H474  1  0.933100  0.576600  0.319900  1.0
  H  H475  1  0.613200  0.933100  0.356500  1.0
  H  H476  1  0.256700  0.613200  0.680100  1.0
  H  H477  1  0.423400  0.743300  0.356500  1.0
  H  H478  1  0.066900  0.423400  0.680100  1.0
  H  H479  1  0.386800  0.066900  0.643500  1.0
  H  H480  1  0.743300  0.386800  0.319900  1.0
  H  H481  1  0.569300  0.232600  0.529300  1.0
  H  H482  1  0.040000  0.569300  0.336700  1.0
  H  H483  1  0.703300  0.040000  0.470700  1.0
  H  H484  1  0.232600  0.703300  0.663300  1.0
  H  H485  1  0.430700  0.767400  0.470700  1.0
  H  H486  1  0.960000  0.430700  0.663300  1.0
  H  H487  1  0.296700  0.960000  0.529300  1.0
  H  H488  1  0.767400  0.296700  0.336700  1.0
  H  H489  1  0.608900  0.290100  0.600200  1.0
  H  H490  1  0.008700  0.608900  0.318800  1.0
  H  H491  1  0.689900  0.008700  0.399800  1.0
  H  H492  1  0.290100  0.689900  0.681200  1.0
  H  H493  1  0.391100  0.709900  0.399800  1.0
  H  H494  1  0.991300  0.391100  0.681200  1.0
  H  H495  1  0.310100  0.991300  0.600200  1.0
  H  H496  1  0.709900  0.310100  0.318800  1.0
  H  H497  1  0.565900  0.291400  0.539500  1.0
  H  H498  1  0.026400  0.565900  0.274500  1.0
  H  H499  1  0.751900  0.026400  0.460500  1.0
  H  H500  1  0.291400  0.751900  0.725500  1.0
  H  H501  1  0.434100  0.708600  0.460500  1.0
  H  H502  1  0.973600  0.434100  0.725500  1.0
  H  H503  1  0.248100  0.973600  0.539500  1.0
  H  H504  1  0.708600  0.248100  0.274500  1.0
  H  H505  1  0.182600  0.334400  0.172000  1.0
  H  H506  1  0.010600  0.182600  0.848200  1.0
  H  H507  1  0.162400  0.010600  0.828000  1.0
  H  H508  1  0.334400  0.162400  0.151800  1.0
  H  H509  1  0.817400  0.665600  0.828000  1.0
  H  H510  1  0.989400  0.817400  0.151800  1.0
  H  H511  1  0.837600  0.989400  0.172000  1.0
  H  H512  1  0.665600  0.837600  0.848200  1.0
  H  H513  1  0.334800  0.450700  0.281100  1.0
  H  H514  1  0.053700  0.334800  0.884100  1.0
  H  H515  1  0.169600  0.053700  0.718900  1.0
  H  H516  1  0.450700  0.169600  0.115900  1.0
  H  H517  1  0.665200  0.549300  0.718900  1.0
  H  H518  1  0.946300  0.665200  0.115900  1.0
  H  H519  1  0.830400  0.946300  0.281100  1.0
  H  H520  1  0.549300  0.830400  0.884100  1.0
  H  H521  1  0.196200  0.462200  0.154400  1.0
  H  H522  1  0.041800  0.196200  0.734000  1.0
  H  H523  1  0.307800  0.041800  0.845600  1.0
  H  H524  1  0.462200  0.307800  0.266000  1.0
  H  H525  1  0.803800  0.537800  0.845600  1.0
  H  H526  1  0.958200  0.803800  0.266000  1.0
  H  H527  1  0.692200  0.958200  0.154400  1.0
  H  H528  1  0.537800  0.692200  0.734000  1.0
  H  H529  1  0.296700  0.599800  0.277700  1.0
  H  H530  1  0.019000  0.296700  0.696900  1.0
  H  H531  1  0.322100  0.019000  0.722300  1.0
  H  H532  1  0.599800  0.322100  0.303100  1.0
  H  H533  1  0.703300  0.400200  0.722300  1.0
  H  H534  1  0.981000  0.703300  0.303100  1.0
  H  H535  1  0.677900  0.981000  0.277700  1.0
  H  H536  1  0.400200  0.677900  0.696900  1.0
  H  H537  1  0.278100  0.569100  0.301200  1.0
  H  H538  1  0.976900  0.278100  0.709000  1.0
  H  H539  1  0.267900  0.976900  0.698800  1.0
  H  H540  1  0.569100  0.267900  0.291000  1.0
  H  H541  1  0.721900  0.430900  0.698800  1.0
  H  H542  1  0.023100  0.721900  0.291000  1.0
  H  H543  1  0.732100  0.023100  0.301200  1.0
  H  H544  1  0.430900  0.732100  0.709000  1.0
  H  H545  1  0.237200  0.551200  0.228400  1.0
  H  H546  1  0.008800  0.237200  0.686000  1.0
  H  H547  1  0.322800  0.008800  0.771600  1.0
  H  H548  1  0.551200  0.322800  0.314000  1.0
  H  H549  1  0.762800  0.448800  0.771600  1.0
  H  H550  1  0.991200  0.762800  0.314000  1.0
  H  H551  1  0.677200  0.991200  0.228400  1.0
  H  H552  1  0.448800  0.677200  0.686000  1.0
  H  H553  1  0.322500  0.550100  0.201200  1.0
  H  H554  1  0.121300  0.322500  0.772400  1.0
  H  H555  1  0.348900  0.121300  0.798800  1.0
  H  H556  1  0.550100  0.348900  0.227600  1.0
  H  H557  1  0.677500  0.449900  0.798800  1.0
  H  H558  1  0.878700  0.677500  0.227600  1.0
  H  H559  1  0.651100  0.878700  0.201200  1.0
  H  H560  1  0.449900  0.651100  0.772400  1.0
  H  H561  1  0.263600  0.500300  0.150300  1.0
  H  H562  1  0.113300  0.263600  0.763300  1.0
  H  H563  1  0.350000  0.113300  0.849700  1.0
  H  H564  1  0.500300  0.350000  0.236700  1.0
  H  H565  1  0.736400  0.499700  0.849700  1.0
  H  H566  1  0.886700  0.736400  0.236700  1.0
  H  H567  1  0.650000  0.886700  0.150300  1.0
  H  H568  1  0.499700  0.650000  0.763300  1.0
  H  H569  1  0.321000  0.486600  0.174400  1.0
  H  H570  1  0.146600  0.321000  0.834400  1.0
  H  H571  1  0.312200  0.146600  0.825600  1.0
  H  H572  1  0.486600  0.312200  0.165600  1.0
  H  H573  1  0.679000  0.513400  0.825600  1.0
  H  H574  1  0.853400  0.679000  0.165600  1.0
  H  H575  1  0.687800  0.853400  0.174400  1.0
  H  H576  1  0.513400  0.687800  0.834400  1.0
  H  H577  1  0.385100  0.575600  0.314300  1.0
  H  H578  1  0.070800  0.385100  0.809500  1.0
  H  H579  1  0.261300  0.070800  0.685700  1.0
  H  H580  1  0.575600  0.261300  0.190500  1.0
  H  H581  1  0.614900  0.424400  0.685700  1.0
  H  H582  1  0.929200  0.614900  0.190500  1.0
  H  H583  1  0.738700  0.929200  0.314300  1.0
  H  H584  1  0.424400  0.738700  0.809500  1.0
  H  H585  1  0.381400  0.511500  0.286100  1.0
  H  H586  1  0.095300  0.381400  0.869900  1.0
  H  H587  1  0.225400  0.095300  0.713900  1.0
  H  H588  1  0.511500  0.225400  0.130100  1.0
  H  H589  1  0.618600  0.488500  0.713900  1.0
  H  H590  1  0.904700  0.618600  0.130100  1.0
  H  H591  1  0.774600  0.904700  0.286100  1.0
  H  H592  1  0.488500  0.774600  0.869900  1.0
  H  H593  1  0.364700  0.543600  0.335700  1.0
  H  H594  1  0.029000  0.364700  0.821100  1.0
  H  H595  1  0.207900  0.029000  0.664300  1.0
  H  H596  1  0.543600  0.207900  0.178900  1.0
  H  H597  1  0.635300  0.456400  0.664300  1.0
  H  H598  1  0.971000  0.635300  0.178900  1.0
  H  H599  1  0.792100  0.971000  0.335700  1.0
  H  H600  1  0.456400  0.792100  0.821100  1.0
  O  O601  1  0.012500  0.203400  0.215900  1.0
  O  O602  1  0.796600  0.012500  0.809100  1.0
  O  O603  1  0.987500  0.796600  0.784100  1.0
  O  O604  1  0.203400  0.987500  0.190900  1.0
  O  O605  1  0.028500  0.437700  0.466200  1.0
  O  O606  1  0.562300  0.028500  0.590800  1.0
  O  O607  1  0.971500  0.562300  0.533800  1.0
  O  O608  1  0.437700  0.971500  0.409200  1.0
  O  O609  1  0.099540  0.315190  0.345490  1.0
  O  O610  1  0.754050  0.099540  0.784350  1.0
  O  O611  1  0.969700  0.754050  0.654510  1.0
  O  O612  1  0.315190  0.969700  0.215650  1.0
  O  O613  1  0.900460  0.684810  0.654510  1.0
  O  O614  1  0.245950  0.900460  0.215650  1.0
  O  O615  1  0.030300  0.245950  0.345490  1.0
  O  O616  1  0.684810  0.030300  0.784350  1.0
  O  O617  1  0.104400  0.391450  0.427050  1.0
  O  O618  1  0.677350  0.104400  0.712950  1.0
  O  O619  1  0.964400  0.677350  0.572950  1.0
  O  O620  1  0.391450  0.964400  0.287050  1.0
  O  O621  1  0.895600  0.608550  0.572950  1.0
  O  O622  1  0.322650  0.895600  0.287050  1.0
  O  O623  1  0.035600  0.322650  0.427050  1.0
  O  O624  1  0.608550  0.035600  0.712950  1.0
  O  O625  1  0.341550  0.384950  0.410600  1.0
  O  O626  1  0.930950  0.341550  0.956600  1.0
  O  O627  1  0.974350  0.930950  0.589400  1.0
  O  O628  1  0.384950  0.974350  0.043400  1.0
  O  O629  1  0.658450  0.615050  0.589400  1.0
  O  O630  1  0.069050  0.658450  0.043400  1.0
  O  O631  1  0.025650  0.069050  0.410600  1.0
  O  O632  1  0.615050  0.025650  0.956600  1.0
  O  O633  1  0.456430  0.424150  0.440520  1.0
  O  O634  1  0.015910  0.456430  0.032280  1.0
  O  O635  1  0.983630  0.015910  0.559480  1.0
  O  O636  1  0.424150  0.983630  0.967720  1.0
  O  O637  1  0.543570  0.575850  0.559480  1.0
  O  O638  1  0.984090  0.543570  0.967720  1.0
  O  O639  1  0.016370  0.984090  0.440520  1.0
  O  O640  1  0.575850  0.016370  0.032280  1.0
  O  O641  1  0.260650  0.310650  0.334900  1.0
  O  O642  1  0.925750  0.260650  0.950000  1.0
  O  O643  1  0.975750  0.925750  0.665100  1.0
  O  O644  1  0.310650  0.975750  0.050000  1.0
  O  O645  1  0.739350  0.689350  0.665100  1.0
  O  O646  1  0.074250  0.739350  0.050000  1.0
  O  O647  1  0.024250  0.074250  0.334900  1.0
  O  O648  1  0.689350  0.024250  0.950000  1.0
  O  O649  1  0.209040  0.197240  0.201200  1.0
  O  O650  1  0.007840  0.209040  0.011800  1.0
  O  O651  1  0.996040  0.007840  0.798800  1.0
  O  O652  1  0.197240  0.996040  0.988200  1.0
  O  O653  1  0.790960  0.802760  0.798800  1.0
  O  O654  1  0.992160  0.790960  0.988200  1.0
  O  O655  1  0.003960  0.992160  0.201200  1.0
  O  O656  1  0.802760  0.003960  0.011800  1.0
  O  O657  1  0.404560  0.311810  0.405110  1.0
  O  O658  1  0.999450  0.404560  0.092750  1.0
  O  O659  1  0.906700  0.999450  0.594890  1.0
  O  O660  1  0.311810  0.906700  0.907250  1.0
  O  O661  1  0.595440  0.688190  0.594890  1.0
  O  O662  1  0.000550  0.595440  0.907250  1.0
  O  O663  1  0.093300  0.000550  0.405110  1.0
  O  O664  1  0.688190  0.093300  0.092750  1.0
  O  O665  1  0.325010  0.236510  0.327760  1.0
  O  O666  1  0.997250  0.325010  0.088500  1.0
  O  O667  1  0.908750  0.997250  0.672240  1.0
  O  O668  1  0.236510  0.908750  0.911500  1.0
  O  O669  1  0.674990  0.763490  0.672240  1.0
  O  O670  1  0.002750  0.674990  0.911500  1.0
  O  O671  1  0.091250  0.002750  0.327760  1.0
  O  O672  1  0.763490  0.091250  0.088500  1.0
  O  O673  1  0.094340  0.404340  0.089200  1.0
  O  O674  1  0.005140  0.094340  0.690000  1.0
  O  O675  1  0.315140  0.005140  0.910800  1.0
  O  O676  1  0.404340  0.315140  0.310000  1.0
  O  O677  1  0.905660  0.595660  0.910800  1.0
  O  O678  1  0.994860  0.905660  0.310000  1.0
  O  O679  1  0.684860  0.994860  0.089200  1.0
  O  O680  1  0.595660  0.684860  0.690000  1.0
  O  O681  1  0.092640  0.323340  0.084340  1.0
  O  O682  1  0.008300  0.092640  0.769300  1.0
  O  O683  1  0.239000  0.008300  0.915660  1.0
  O  O684  1  0.323340  0.239000  0.230700  1.0
  O  O685  1  0.907360  0.676660  0.915660  1.0
  O  O686  1  0.991700  0.907360  0.230700  1.0
  O  O687  1  0.761000  0.991700  0.084340  1.0
  O  O688  1  0.676660  0.761000  0.769300  1.0
  O  O689  1  0.340590  0.385770  0.316580  1.0
  O  O690  1  0.024010  0.340590  0.954820  1.0
  O  O691  1  0.069190  0.024010  0.683420  1.0
  O  O692  1  0.385770  0.069190  0.045180  1.0
  O  O693  1  0.659410  0.614230  0.683420  1.0
  O  O694  1  0.975990  0.659410  0.045180  1.0
  O  O695  1  0.930810  0.975990  0.316580  1.0
  O  O696  1  0.614230  0.930810  0.954820  1.0
  O  O697  1  0.258130  0.310630  0.236700  1.0
  O  O698  1  0.021430  0.258130  0.947500  1.0
  O  O699  1  0.073930  0.021430  0.763300  1.0
  O  O700  1  0.310630  0.073930  0.052500  1.0
  O  O701  1  0.741870  0.689370  0.763300  1.0
  O  O702  1  0.978570  0.741870  0.052500  1.0
  O  O703  1  0.926070  0.978570  0.236700  1.0
  O  O704  1  0.689370  0.926070  0.947500  1.0
  O  O705  1  0.394430  0.057110  0.389320  1.0
  O  O706  1  0.005110  0.394430  0.337320  1.0
  O  O707  1  0.667790  0.005110  0.610680  1.0
  O  O708  1  0.057110  0.667790  0.662680  1.0
  O  O709  1  0.605570  0.942890  0.610680  1.0
  O  O710  1  0.994890  0.605570  0.662680  1.0
  O  O711  1  0.332210  0.994890  0.389320  1.0
  O  O712  1  0.942890  0.332210  0.337320  1.0
  O  O713  1  0.318350  0.065360  0.316610  1.0
  O  O714  1  0.001740  0.318350  0.252990  1.0
  O  O715  1  0.748750  0.001740  0.683390  1.0
  O  O716  1  0.065360  0.748750  0.747010  1.0
  O  O717  1  0.681650  0.934640  0.683390  1.0
  O  O718  1  0.998260  0.681650  0.747010  1.0
  O  O719  1  0.251250  0.998260  0.316610  1.0
  O  O720  1  0.934640  0.251250  0.252990  1.0
