# generated using pymatgen
data_CrH4C8O5
_symmetry_space_group_name_H-M   'P 1'
_cell_length_a   26.24181164
_cell_length_b   26.24181164
_cell_length_c   26.24181164
_cell_angle_alpha   90.93036152
_cell_angle_beta   119.46431710
_cell_angle_gamma   119.46431710
_symmetry_Int_Tables_number   1
_chemical_formula_structural   CrH4C8O5
_chemical_formula_sum   'Cr24 H96 C192 O120'
_cell_volume   12879.72889792
_cell_formula_units_Z   24
loop_
 _symmetry_equiv_pos_site_id
 _symmetry_equiv_pos_as_xyz
  1  'x, y, z'
loop_
 _atom_site_type_symbol
 _atom_site_label
 _atom_site_symmetry_multiplicity
 _atom_site_fract_x
 _atom_site_fract_y
 _atom_site_fract_z
 _atom_site_occupancy
  C  C1  1  0.576680  0.691040  0.594360  1.0
  C  C2  1  0.096680  0.114360  0.691040  1.0
  C  C3  1  0.423320  0.017680  0.114360  1.0
  C  C4  1  0.903320  0.594360  0.017680  1.0
  C  C5  1  0.423320  0.308960  0.405640  1.0
  C  C6  1  0.903320  0.885640  0.308960  1.0
  C  C7  1  0.576680  0.982320  0.885640  1.0
  C  C8  1  0.096680  0.405640  0.982320  1.0
  C  C9  1  0.515770  0.658080  0.602110  1.0
  C  C10  1  0.055970  0.142310  0.658080  1.0
  C  C11  1  0.484230  0.086340  0.142310  1.0
  C  C12  1  0.944030  0.602110  0.086340  1.0
  C  C13  1  0.484230  0.341920  0.397890  1.0
  C  C14  1  0.944030  0.857690  0.341920  1.0
  C  C15  1  0.515770  0.913660  0.857690  1.0
  C  C16  1  0.055970  0.397890  0.913660  1.0
  C  C17  1  0.529980  0.672440  0.660820  1.0
  C  C18  1  0.011620  0.142460  0.672440  1.0
  C  C19  1  0.470020  0.130840  0.142460  1.0
  C  C20  1  0.988380  0.660820  0.130840  1.0
  C  C21  1  0.470020  0.327560  0.339180  1.0
  C  C22  1  0.988380  0.857540  0.327560  1.0
  C  C23  1  0.529980  0.869160  0.857540  1.0
  C  C24  1  0.011620  0.339180  0.869160  1.0
  C  C25  1  0.474900  0.642720  0.668620  1.0
  C  C26  1  0.974100  0.167820  0.642720  1.0
  C  C27  1  0.525100  0.193720  0.167820  1.0
  C  C28  1  0.025900  0.668620  0.193720  1.0
  C  C29  1  0.525100  0.357280  0.331380  1.0
  C  C30  1  0.025900  0.832180  0.357280  1.0
  C  C31  1  0.474900  0.806280  0.832180  1.0
  C  C32  1  0.974100  0.331380  0.806280  1.0
  C  C33  1  0.405370  0.598510  0.617540  1.0
  C  C34  1  0.980970  0.193140  0.598510  1.0
  C  C35  1  0.594630  0.212170  0.193140  1.0
  C  C36  1  0.019030  0.617540  0.212170  1.0
  C  C37  1  0.594630  0.401490  0.382460  1.0
  C  C38  1  0.019030  0.806860  0.401490  1.0
  C  C39  1  0.405370  0.787830  0.806860  1.0
  C  C40  1  0.980970  0.382460  0.787830  1.0
  C  C41  1  0.390900  0.584000  0.558700  1.0
  C  C42  1  0.025300  0.193100  0.584000  1.0
  C  C43  1  0.609100  0.167800  0.193100  1.0
  C  C44  1  0.974700  0.558700  0.167800  1.0
  C  C45  1  0.609100  0.416000  0.441300  1.0
  C  C46  1  0.974700  0.806900  0.416000  1.0
  C  C47  1  0.390900  0.832200  0.806900  1.0
  C  C48  1  0.025300  0.441300  0.832200  1.0
  C  C49  1  0.446200  0.613870  0.551070  1.0
  C  C50  1  0.062800  0.167670  0.613870  1.0
  C  C51  1  0.553800  0.104870  0.167670  1.0
  C  C52  1  0.937200  0.551070  0.104870  1.0
  C  C53  1  0.553800  0.386130  0.448930  1.0
  C  C54  1  0.937200  0.832330  0.386130  1.0
  C  C55  1  0.446200  0.895130  0.832330  1.0
  C  C56  1  0.062800  0.448930  0.895130  1.0
  C  C57  1  0.489700  0.657800  0.730900  1.0
  C  C58  1  0.926900  0.168100  0.657800  1.0
  C  C59  1  0.510300  0.241200  0.168100  1.0
  C  C60  1  0.073100  0.730900  0.241200  1.0
  C  C61  1  0.510300  0.342200  0.269100  1.0
  C  C62  1  0.073100  0.831900  0.342200  1.0
  C  C63  1  0.489700  0.758800  0.831900  1.0
  C  C64  1  0.926900  0.269100  0.758800  1.0
  C  C65  1  0.555300  0.700200  0.956900  1.0
  C  C66  1  0.743300  0.144900  0.700200  1.0
  C  C67  1  0.444700  0.401600  0.144900  1.0
  C  C68  1  0.256700  0.956900  0.401600  1.0
  C  C69  1  0.444700  0.299800  0.043100  1.0
  C  C70  1  0.256700  0.855100  0.299800  1.0
  C  C71  1  0.555300  0.598400  0.855100  1.0
  C  C72  1  0.743300  0.043100  0.598400  1.0
  C  C73  1  0.569030  0.713820  0.019650  1.0
  C  C74  1  0.694170  0.144790  0.713820  1.0
  C  C75  1  0.430970  0.450620  0.144790  1.0
  C  C76  1  0.305830  0.019650  0.450620  1.0
  C  C77  1  0.430970  0.286180  0.980350  1.0
  C  C78  1  0.305830  0.855210  0.286180  1.0
  C  C79  1  0.569030  0.549380  0.855210  1.0
  C  C80  1  0.694170  0.980350  0.549380  1.0
  C  C81  1  0.636530  0.765970  0.066040  1.0
  C  C82  1  0.699930  0.129440  0.765970  1.0
  C  C83  1  0.363470  0.429510  0.129440  1.0
  C  C84  1  0.300070  0.066040  0.429510  1.0
  C  C85  1  0.363470  0.234030  0.933960  1.0
  C  C86  1  0.300070  0.870560  0.234030  1.0
  C  C87  1  0.636530  0.570490  0.870560  1.0
  C  C88  1  0.699930  0.933960  0.570490  1.0
  C  C89  1  0.655070  0.782920  0.126190  1.0
  C  C90  1  0.656730  0.127850  0.782920  1.0
  C  C91  1  0.344930  0.471120  0.127850  1.0
  C  C92  1  0.343270  0.126190  0.471120  1.0
  C  C93  1  0.344930  0.217080  0.873810  1.0
  C  C94  1  0.343270  0.872150  0.217080  1.0
  C  C95  1  0.655070  0.528880  0.872150  1.0
  C  C96  1  0.656730  0.873810  0.528880  1.0
  C  C97  1  0.606000  0.747750  0.139750  1.0
  C  C98  1  0.608000  0.141750  0.747750  1.0
  C  C99  1  0.394000  0.533750  0.141750  1.0
  C  C100  1  0.392000  0.139750  0.533750  1.0
  C  C101  1  0.394000  0.252250  0.860250  1.0
  C  C102  1  0.392000  0.858250  0.252250  1.0
  C  C103  1  0.606000  0.466250  0.858250  1.0
  C  C104  1  0.608000  0.860250  0.466250  1.0
  C  C105  1  0.538560  0.695660  0.093500  1.0
  C  C106  1  0.602160  0.157100  0.695660  1.0
  C  C107  1  0.461440  0.554940  0.157100  1.0
  C  C108  1  0.397840  0.093500  0.554940  1.0
  C  C109  1  0.461440  0.304340  0.906500  1.0
  C  C110  1  0.397840  0.842900  0.304340  1.0
  C  C111  1  0.538560  0.445060  0.842900  1.0
  C  C112  1  0.602160  0.906500  0.445060  1.0
  C  C113  1  0.520100  0.678700  0.033400  1.0
  C  C114  1  0.645300  0.158600  0.678700  1.0
  C  C115  1  0.479900  0.513300  0.158600  1.0
  C  C116  1  0.354700  0.033400  0.513300  1.0
  C  C117  1  0.479900  0.321300  0.966600  1.0
  C  C118  1  0.354700  0.841400  0.321300  1.0
  C  C119  1  0.520100  0.486700  0.841400  1.0
  C  C120  1  0.645300  0.966600  0.486700  1.0
  C  C121  1  0.725700  0.837800  0.180700  1.0
  C  C122  1  0.657100  0.112100  0.837800  1.0
  C  C123  1  0.274300  0.455000  0.112100  1.0
  C  C124  1  0.342900  0.180700  0.455000  1.0
  C  C125  1  0.274300  0.162200  0.819300  1.0
  C  C126  1  0.342900  0.887900  0.162200  1.0
  C  C127  1  0.725700  0.545000  0.887900  1.0
  C  C128  1  0.657100  0.819300  0.545000  1.0
  C  C129  1  0.963100  0.045200  0.349900  1.0
  C  C130  1  0.695300  0.082100  0.045200  1.0
  C  C131  1  0.036900  0.386800  0.082100  1.0
  C  C132  1  0.304700  0.349900  0.386800  1.0
  C  C133  1  0.036900  0.954800  0.650100  1.0
  C  C134  1  0.304700  0.917900  0.954800  1.0
  C  C135  1  0.963100  0.613200  0.917900  1.0
  C  C136  1  0.695300  0.650100  0.613200  1.0
  C  C137  1  0.035830  0.104080  0.397810  1.0
  C  C138  1  0.706270  0.068250  0.104080  1.0
  C  C139  1  0.964170  0.361980  0.068250  1.0
  C  C140  1  0.293730  0.397810  0.361980  1.0
  C  C141  1  0.964170  0.895920  0.602190  1.0
  C  C142  1  0.293730  0.931750  0.895920  1.0
  C  C143  1  0.035830  0.638020  0.931750  1.0
  C  C144  1  0.706270  0.602190  0.638020  1.0
  C  C145  1  0.091750  0.132230  0.390980  1.0
  C  C146  1  0.741250  0.040480  0.132230  1.0
  C  C147  1  0.908250  0.299230  0.040480  1.0
  C  C148  1  0.258750  0.390980  0.299230  1.0
  C  C149  1  0.908250  0.867770  0.609020  1.0
  C  C150  1  0.258750  0.959520  0.867770  1.0
  C  C151  1  0.091750  0.700770  0.959520  1.0
  C  C152  1  0.741250  0.609020  0.700770  1.0
  C  C153  1  0.157180  0.186290  0.436950  1.0
  C  C154  1  0.749340  0.029110  0.186290  1.0
  C  C155  1  0.842820  0.279770  0.029110  1.0
  C  C156  1  0.250660  0.436950  0.279770  1.0
  C  C157  1  0.842820  0.813710  0.563050  1.0
  C  C158  1  0.250660  0.970890  0.813710  1.0
  C  C159  1  0.157180  0.720230  0.970890  1.0
  C  C160  1  0.749340  0.563050  0.720230  1.0
  C  C161  1  0.166770  0.212360  0.490070  1.0
  C  C162  1  0.722290  0.045590  0.212360  1.0
  C  C163  1  0.833230  0.323300  0.045590  1.0
  C  C164  1  0.277710  0.490070  0.323300  1.0
  C  C165  1  0.833230  0.787640  0.509930  1.0
  C  C166  1  0.277710  0.954410  0.787640  1.0
  C  C167  1  0.166770  0.676700  0.954410  1.0
  C  C168  1  0.722290  0.509930  0.676700  1.0
  C  C169  1  0.111000  0.184360  0.497160  1.0
  C  C170  1  0.687200  0.073360  0.184360  1.0
  C  C171  1  0.889000  0.386160  0.073360  1.0
  C  C172  1  0.312800  0.497160  0.386160  1.0
  C  C173  1  0.889000  0.815640  0.502840  1.0
  C  C174  1  0.312800  0.926640  0.815640  1.0
  C  C175  1  0.111000  0.613840  0.926640  1.0
  C  C176  1  0.687200  0.502840  0.613840  1.0
  C  C177  1  0.045490  0.130200  0.450950  1.0
  C  C178  1  0.679250  0.084710  0.130200  1.0
  C  C179  1  0.954510  0.405460  0.084710  1.0
  C  C180  1  0.320750  0.450950  0.405460  1.0
  C  C181  1  0.954510  0.869800  0.549050  1.0
  C  C182  1  0.320750  0.915290  0.869800  1.0
  C  C183  1  0.045490  0.594540  0.915290  1.0
  C  C184  1  0.679250  0.549050  0.594540  1.0
  C  C185  1  0.215400  0.215200  0.428600  1.0
  C  C186  1  0.786600  0.999800  0.215200  1.0
  C  C187  1  0.784600  0.213200  0.999800  1.0
  C  C188  1  0.213400  0.428600  0.213200  1.0
  C  C189  1  0.784600  0.784800  0.571400  1.0
  C  C190  1  0.213400  0.000200  0.784800  1.0
  C  C191  1  0.215400  0.786800  0.000200  1.0
  C  C192  1  0.786600  0.571400  0.786800  1.0
  Cr  Cr193  1  0.580630  0.717480  0.863150  1.0
  Cr  Cr194  1  0.854330  0.136850  0.717480  1.0
  Cr  Cr195  1  0.419370  0.282520  0.136850  1.0
  Cr  Cr196  1  0.145670  0.863150  0.282520  1.0
  Cr  Cr197  1  0.460600  0.636720  0.823880  1.0
  Cr  Cr198  1  0.812840  0.176120  0.636720  1.0
  Cr  Cr199  1  0.539400  0.363280  0.176120  1.0
  Cr  Cr200  1  0.187160  0.823880  0.363280  1.0
  Cr  Cr201  1  0.863640  0.948510  0.230330  1.0
  Cr  Cr202  1  0.718180  0.084870  0.948510  1.0
  Cr  Cr203  1  0.136360  0.366690  0.084870  1.0
  Cr  Cr204  1  0.281820  0.230330  0.366690  1.0
  Cr  Cr205  1  0.136360  0.051490  0.769670  1.0
  Cr  Cr206  1  0.281820  0.915130  0.051490  1.0
  Cr  Cr207  1  0.863640  0.633310  0.915130  1.0
  Cr  Cr208  1  0.718180  0.769670  0.633310  1.0
  Cr  Cr209  1  0.824840  0.935850  0.296450  1.0
  Cr  Cr210  1  0.639400  0.111010  0.935850  1.0
  Cr  Cr211  1  0.175160  0.471610  0.111010  1.0
  Cr  Cr212  1  0.360600  0.296450  0.471610  1.0
  Cr  Cr213  1  0.175160  0.064150  0.703550  1.0
  Cr  Cr214  1  0.360600  0.888990  0.064150  1.0
  Cr  Cr215  1  0.824840  0.528390  0.888990  1.0
  Cr  Cr216  1  0.639400  0.703550  0.528390  1.0
  H  H217  1  0.577500  0.702600  0.695700  1.0
  H  H218  1  0.006900  0.125100  0.702600  1.0
  H  H219  1  0.422500  0.118200  0.125100  1.0
  H  H220  1  0.993100  0.695700  0.118200  1.0
  H  H221  1  0.422500  0.297400  0.304300  1.0
  H  H222  1  0.993100  0.874900  0.297400  1.0
  H  H223  1  0.577500  0.881800  0.874900  1.0
  H  H224  1  0.006900  0.304300  0.881800  1.0
  H  H225  1  0.367600  0.578200  0.622800  1.0
  H  H226  1  0.955400  0.210600  0.578200  1.0
  H  H227  1  0.632400  0.255200  0.210600  1.0
  H  H228  1  0.044600  0.622800  0.255200  1.0
  H  H229  1  0.632400  0.421800  0.377200  1.0
  H  H230  1  0.044600  0.789400  0.421800  1.0
  H  H231  1  0.367600  0.744800  0.789400  1.0
  H  H232  1  0.955400  0.377200  0.744800  1.0
  H  H233  1  0.343500  0.553900  0.524000  1.0
  H  H234  1  0.029900  0.210400  0.553900  1.0
  H  H235  1  0.656500  0.180500  0.210400  1.0
  H  H236  1  0.970100  0.524000  0.180500  1.0
  H  H237  1  0.656500  0.446100  0.476000  1.0
  H  H238  1  0.970100  0.789600  0.446100  1.0
  H  H239  1  0.343500  0.819500  0.789600  1.0
  H  H240  1  0.029900  0.476000  0.819500  1.0
  H  H241  1  0.436500  0.604100  0.511000  1.0
  H  H242  1  0.093100  0.167600  0.604100  1.0
  H  H243  1  0.563500  0.074500  0.167600  1.0
  H  H244  1  0.906900  0.511000  0.074500  1.0
  H  H245  1  0.563500  0.395900  0.489000  1.0
  H  H246  1  0.906900  0.832400  0.395900  1.0
  H  H247  1  0.436500  0.925500  0.832400  1.0
  H  H248  1  0.093100  0.489000  0.925500  1.0
  H  H249  1  0.670100  0.790000  0.056700  1.0
  H  H250  1  0.733300  0.119900  0.790000  1.0
  H  H251  1  0.329900  0.386600  0.119900  1.0
  H  H252  1  0.266700  0.056700  0.386600  1.0
  H  H253  1  0.329900  0.210000  0.943300  1.0
  H  H254  1  0.266700  0.880100  0.210000  1.0
  H  H255  1  0.670100  0.613400  0.880100  1.0
  H  H256  1  0.733300  0.943300  0.613400  1.0
  H  H257  1  0.618600  0.759300  0.180900  1.0
  H  H258  1  0.578400  0.140700  0.759300  1.0
  H  H259  1  0.381400  0.562300  0.140700  1.0
  H  H260  1  0.421600  0.180900  0.562300  1.0
  H  H261  1  0.381400  0.240700  0.819100  1.0
  H  H262  1  0.421600  0.859300  0.240700  1.0
  H  H263  1  0.618600  0.437700  0.859300  1.0
  H  H264  1  0.578400  0.819100  0.437700  1.0
  H  H265  1  0.505000  0.671600  0.102800  1.0
  H  H266  1  0.568800  0.166600  0.671600  1.0
  H  H267  1  0.495000  0.597800  0.166600  1.0
  H  H268  1  0.431200  0.102800  0.597800  1.0
  H  H269  1  0.495000  0.328400  0.897200  1.0
  H  H270  1  0.431200  0.833400  0.328400  1.0
  H  H271  1  0.505000  0.402200  0.833400  1.0
  H  H272  1  0.568800  0.897200  0.402200  1.0
  H  H273  1  0.473900  0.643100  0.001600  1.0
  H  H274  1  0.641500  0.169200  0.643100  1.0
  H  H275  1  0.526100  0.527700  0.169200  1.0
  H  H276  1  0.358500  0.001600  0.527700  1.0
  H  H277  1  0.526100  0.356900  0.998400  1.0
  H  H278  1  0.358500  0.830800  0.356900  1.0
  H  H279  1  0.473900  0.472300  0.830800  1.0
  H  H280  1  0.641500  0.998400  0.472300  1.0
  H  H281  1  0.085200  0.114400  0.354600  1.0
  H  H282  1  0.759800  0.029200  0.114400  1.0
  H  H283  1  0.914800  0.269400  0.029200  1.0
  H  H284  1  0.240200  0.354600  0.269400  1.0
  H  H285  1  0.914800  0.885600  0.645400  1.0
  H  H286  1  0.240200  0.970800  0.885600  1.0
  H  H287  1  0.085200  0.730600  0.970800  1.0
  H  H288  1  0.759800  0.645400  0.730600  1.0
  H  H289  1  0.211500  0.249300  0.521600  1.0
  H  H290  1  0.727700  0.037800  0.249300  1.0
  H  H291  1  0.788500  0.310100  0.037800  1.0
  H  H292  1  0.272300  0.521600  0.310100  1.0
  H  H293  1  0.788500  0.750700  0.478400  1.0
  H  H294  1  0.272300  0.962200  0.750700  1.0
  H  H295  1  0.211500  0.689900  0.962200  1.0
  H  H296  1  0.727700  0.478400  0.689900  1.0
  H  H297  1  0.117500  0.202200  0.533500  1.0
  H  H298  1  0.668700  0.084700  0.202200  1.0
  H  H299  1  0.882500  0.416000  0.084700  1.0
  H  H300  1  0.331300  0.533500  0.416000  1.0
  H  H301  1  0.882500  0.797800  0.466500  1.0
  H  H302  1  0.331300  0.915300  0.797800  1.0
  H  H303  1  0.117500  0.584000  0.915300  1.0
  H  H304  1  0.668700  0.466500  0.584000  1.0
  H  H305  1  0.007300  0.111000  0.455700  1.0
  H  H306  1  0.655300  0.103700  0.111000  1.0
  H  H307  1  0.992700  0.448400  0.103700  1.0
  H  H308  1  0.344700  0.455700  0.448400  1.0
  H  H309  1  0.992700  0.889000  0.544300  1.0
  H  H310  1  0.344700  0.896300  0.889000  1.0
  H  H311  1  0.007300  0.551600  0.896300  1.0
  H  H312  1  0.655300  0.544300  0.551600  1.0
  O  O313  1  0.696100  0.793500  0.902600  1.0
  O  O314  1  0.890900  0.097400  0.793500  1.0
  O  O315  1  0.303900  0.206500  0.097400  1.0
  O  O316  1  0.109100  0.902600  0.206500  1.0
  O  O317  1  0.346900  0.559300  0.787600  1.0
  O  O318  1  0.771700  0.212400  0.559300  1.0
  O  O319  1  0.653100  0.440700  0.212400  1.0
  O  O320  1  0.228300  0.787600  0.440700  1.0
  O  O321  1  0.559540  0.669070  0.539970  1.0
  O  O322  1  0.129100  0.109530  0.669070  1.0
  O  O323  1  0.440460  0.980430  0.109530  1.0
  O  O324  1  0.870900  0.539970  0.980430  1.0
  O  O325  1  0.440460  0.330930  0.460030  1.0
  O  O326  1  0.870900  0.890470  0.330930  1.0
  O  O327  1  0.559540  0.019570  0.890470  1.0
  O  O328  1  0.129100  0.460030  0.019570  1.0
  O  O329  1  0.634880  0.731520  0.639560  1.0
  O  O330  1  0.091960  0.096640  0.731520  1.0
  O  O331  1  0.365120  0.004680  0.096640  1.0
  O  O332  1  0.908040  0.639560  0.004680  1.0
  O  O333  1  0.365120  0.268480  0.360440  1.0
  O  O334  1  0.908040  0.903360  0.268480  1.0
  O  O335  1  0.634880  0.995320  0.903360  1.0
  O  O336  1  0.091960  0.360440  0.995320  1.0
  O  O337  1  0.552160  0.699810  0.774990  1.0
  O  O338  1  0.924820  0.147650  0.699810  1.0
  O  O339  1  0.447840  0.222830  0.147650  1.0
  O  O340  1  0.075180  0.774990  0.222830  1.0
  O  O341  1  0.447840  0.300190  0.225010  1.0
  O  O342  1  0.075180  0.852350  0.300190  1.0
  O  O343  1  0.552160  0.777170  0.852350  1.0
  O  O344  1  0.924820  0.225010  0.777170  1.0
  O  O345  1  0.439780  0.624150  0.738470  1.0
  O  O346  1  0.885680  0.184370  0.624150  1.0
  O  O347  1  0.560220  0.298690  0.184370  1.0
  O  O348  1  0.114320  0.738470  0.298690  1.0
  O  O349  1  0.560220  0.375850  0.261530  1.0
  O  O350  1  0.114320  0.815630  0.375850  1.0
  O  O351  1  0.439780  0.701310  0.815630  1.0
  O  O352  1  0.885680  0.261530  0.701310  1.0
  O  O353  1  0.602430  0.730520  0.949090  1.0
  O  O354  1  0.781430  0.128090  0.730520  1.0
  O  O355  1  0.397570  0.346660  0.128090  1.0
  O  O356  1  0.218570  0.949090  0.346660  1.0
  O  O357  1  0.397570  0.269480  0.050910  1.0
  O  O358  1  0.218570  0.871910  0.269480  1.0
  O  O359  1  0.602430  0.653340  0.871910  1.0
  O  O360  1  0.781430  0.050910  0.653340  1.0
  O  O361  1  0.490330  0.654840  0.912510  1.0
  O  O362  1  0.742330  0.164510  0.654840  1.0
  O  O363  1  0.509670  0.422180  0.164510  1.0
  O  O364  1  0.257670  0.912510  0.422180  1.0
  O  O365  1  0.509670  0.345160  0.087490  1.0
  O  O366  1  0.257670  0.835490  0.345160  1.0
  O  O367  1  0.490330  0.577820  0.835490  1.0
  O  O368  1  0.742330  0.087490  0.577820  1.0
  O  O369  1  0.769760  0.866460  0.166980  1.0
  O  O370  1  0.699480  0.096700  0.866460  1.0
  O  O371  1  0.230240  0.397220  0.096700  1.0
  O  O372  1  0.300520  0.166980  0.397220  1.0
  O  O373  1  0.230240  0.133540  0.833020  1.0
  O  O374  1  0.300520  0.903300  0.133540  1.0
  O  O375  1  0.769760  0.602780  0.903300  1.0
  O  O376  1  0.699480  0.833020  0.602780  1.0
  O  O377  1  0.733150  0.852920  0.230130  1.0
  O  O378  1  0.622790  0.119770  0.852920  1.0
  O  O379  1  0.266850  0.496980  0.119770  1.0
  O  O380  1  0.377210  0.230130  0.496980  1.0
  O  O381  1  0.266850  0.147080  0.769870  1.0
  O  O382  1  0.377210  0.880230  0.147080  1.0
  O  O383  1  0.733150  0.503020  0.880230  1.0
  O  O384  1  0.622790  0.769870  0.503020  1.0
  O  O385  1  0.955800  0.030320  0.298700  1.0
  O  O386  1  0.731620  0.074520  0.030320  1.0
  O  O387  1  0.044200  0.342900  0.074520  1.0
  O  O388  1  0.268380  0.298700  0.342900  1.0
  O  O389  1  0.044200  0.969680  0.701300  1.0
  O  O390  1  0.268380  0.925480  0.969680  1.0
  O  O391  1  0.955800  0.657100  0.925480  1.0
  O  O392  1  0.731620  0.701300  0.657100  1.0
  O  O393  1  0.920400  0.019770  0.361570  1.0
  O  O394  1  0.658200  0.099370  0.019770  1.0
  O  O395  1  0.079600  0.441170  0.099370  1.0
  O  O396  1  0.341800  0.361570  0.441170  1.0
  O  O397  1  0.079600  0.980230  0.638430  1.0
  O  O398  1  0.341800  0.900630  0.980230  1.0
  O  O399  1  0.920400  0.558830  0.900630  1.0
  O  O400  1  0.658200  0.638430  0.558830  1.0
  O  O401  1  0.200960  0.194800  0.376560  1.0
  O  O402  1  0.818240  0.993840  0.194800  1.0
  O  O403  1  0.799040  0.175600  0.993840  1.0
  O  O404  1  0.181760  0.376560  0.175600  1.0
  O  O405  1  0.799040  0.805200  0.623440  1.0
  O  O406  1  0.181760  0.006160  0.805200  1.0
  O  O407  1  0.200960  0.824400  0.006160  1.0
  O  O408  1  0.818240  0.623440  0.824400  1.0
  O  O409  1  0.276820  0.260740  0.476720  1.0
  O  O410  1  0.784020  0.983920  0.260740  1.0
  O  O411  1  0.723180  0.199900  0.983920  1.0
  O  O412  1  0.215980  0.476720  0.199900  1.0
  O  O413  1  0.723180  0.739260  0.523280  1.0
  O  O414  1  0.215980  0.016080  0.739260  1.0
  O  O415  1  0.276820  0.800100  0.016080  1.0
  O  O416  1  0.784020  0.523280  0.800100  1.0
  O  O417  1  0.899310  0.960580  0.166350  1.0
  O  O418  1  0.794230  0.061270  0.960580  1.0
  O  O419  1  0.100690  0.267040  0.061270  1.0
  O  O420  1  0.205770  0.166350  0.267040  1.0
  O  O421  1  0.100690  0.039420  0.833650  1.0
  O  O422  1  0.205770  0.938730  0.039420  1.0
  O  O423  1  0.899310  0.732960  0.938730  1.0
  O  O424  1  0.794230  0.833650  0.732960  1.0
  O  O425  1  0.797030  0.931840  0.370130  1.0
  O  O426  1  0.561710  0.134810  0.931840  1.0
  O  O427  1  0.202970  0.573100  0.134810  1.0
  O  O428  1  0.438290  0.370130  0.573100  1.0
  O  O429  1  0.202970  0.068160  0.629870  1.0
  O  O430  1  0.438290  0.865190  0.068160  1.0
  O  O431  1  0.797030  0.426900  0.865190  1.0
  O  O432  1  0.561710  0.629870  0.426900  1.0
