# generated using pymatgen
data_CdH33C36S2N5Cl3O10
_symmetry_space_group_name_H-M   'P 1'
_cell_length_a   11.87400000
_cell_length_b   12.59900000
_cell_length_c   14.68400000
_cell_angle_alpha   74.05800000
_cell_angle_beta   89.67900000
_cell_angle_gamma   63.44000000
_symmetry_Int_Tables_number   1
_chemical_formula_structural   CdH33C36S2N5Cl3O10
_chemical_formula_sum   'Cd2 H66 C72 S4 N10 Cl6 O20'
_cell_volume   1871.70880598
_cell_formula_units_Z   2
loop_
 _symmetry_equiv_pos_site_id
 _symmetry_equiv_pos_as_xyz
  1  'x, y, z'
loop_
 _atom_site_type_symbol
 _atom_site_label
 _atom_site_symmetry_multiplicity
 _atom_site_fract_x
 _atom_site_fract_y
 _atom_site_fract_z
 _atom_site_occupancy
  Cd  Cd1  1  0.207630  0.631760  0.773700  1.0
  Cd  Cd2  1  0.792370  0.368240  0.226300  1.0
  H  H3  1  0.225100  0.470400  0.536700  1.0
  H  H4  1  0.774900  0.529600  0.463300  1.0
  H  H5  1  0.305400  0.107800  0.629300  1.0
  H  H6  1  0.694600  0.892200  0.370700  1.0
  H  H7  1  0.132300  0.158300  0.713400  1.0
  H  H8  1  0.867700  0.841700  0.286600  1.0
  H  H9  1  0.006300  0.362600  0.712000  1.0
  H  H10  1  0.993700  0.637400  0.288000  1.0
  H  H11  1  0.073500  0.616400  0.598900  1.0
  H  H12  1  0.926500  0.383600  0.401100  1.0
  H  H13  1  0.953300  0.608500  0.559500  1.0
  H  H14  1  0.046700  0.391500  0.440500  1.0
  H  H15  1  0.786700  0.604200  0.676500  1.0
  H  H16  1  0.213300  0.395800  0.323500  1.0
  H  H17  1  0.747100  0.660400  0.828500  1.0
  H  H18  1  0.252900  0.339600  0.171500  1.0
  H  H19  1  0.758800  0.805300  0.896500  1.0
  H  H20  1  0.241200  0.194700  0.103500  1.0
  H  H21  1  0.763700  0.874900  0.026000  1.0
  H  H22  1  0.236300  0.125100  0.974000  1.0
  H  H23  1  0.953700  0.792100  0.125800  1.0
  H  H24  1  0.046300  0.207900  0.874200  1.0
  H  H25  1  0.138900  0.642700  0.094400  1.0
  H  H26  1  0.861100  0.357300  0.905600  1.0
  H  H27  1  0.317300  0.607800  0.999800  1.0
  H  H28  1  0.682700  0.392200  0.000200  1.0
  H  H29  1  0.410000  0.465800  0.006800  1.0
  H  H30  1  0.590000  0.534200  0.993200  1.0
  H  H31  1  0.320600  0.497600  0.087600  1.0
  H  H32  1  0.679400  0.502400  0.912400  1.0
  H  H33  1  0.455100  0.367300  0.545900  1.0
  H  H34  1  0.544900  0.632700  0.454100  1.0
  H  H35  1  0.650400  0.188400  0.361500  1.0
  H  H36  1  0.349600  0.811600  0.638500  1.0
  H  H37  1  0.517200  0.095900  0.367800  1.0
  H  H38  1  0.482800  0.904100  0.632200  1.0
  H  H39  1  0.357700  0.134300  0.464800  1.0
  H  H40  1  0.642300  0.865700  0.535200  1.0
  H  H41  1  0.384100  0.578800  0.618900  1.0
  H  H42  1  0.615900  0.421200  0.381100  1.0
  H  H43  1  0.378500  0.598200  0.506400  1.0
  H  H44  1  0.621500  0.401800  0.493600  1.0
  H  H45  1  0.167200  0.779400  0.397600  1.0
  H  H46  1  0.832800  0.220600  0.602400  1.0
  H  H47  1  0.951100  0.914400  0.433700  1.0
  H  H48  1  0.048900  0.085600  0.566300  1.0
  H  H49  1  0.799400  0.923700  0.535800  1.0
  H  H50  1  0.200600  0.076300  0.464200  1.0
  H  H51  1  0.626400  0.027300  0.607400  1.0
  H  H52  1  0.373600  0.972700  0.392600  1.0
  H  H53  1  0.658900  0.074700  0.745200  1.0
  H  H54  1  0.341100  0.925300  0.254800  1.0
  H  H55  1  0.865000  0.009000  0.813600  1.0
  H  H56  1  0.135000  0.991000  0.186400  1.0
  H  H57  1  0.047200  0.887000  0.912900  1.0
  H  H58  1  0.952800  0.113000  0.087100  1.0
  H  H59  1  0.176500  0.897700  0.906700  1.0
  H  H60  1  0.823500  0.102300  0.093300  1.0
  H  H61  1  0.044300  0.016200  0.855100  1.0
  H  H62  1  0.955700  0.983800  0.144900  1.0
  H  H63  1  0.428100  0.162100  0.800500  1.0
  H  H64  1  0.571900  0.837900  0.199500  1.0
  H  H65  1  0.398100  0.183400  0.902300  1.0
  H  H66  1  0.601900  0.816600  0.097700  1.0
  H  H67  1  0.529300  0.170800  0.865600  1.0
  H  H68  1  0.470700  0.829200  0.134400  1.0
  C  C69  1  0.206400  0.406500  0.572700  1.0
  C  C70  1  0.793600  0.593500  0.427300  1.0
  C  C71  1  0.281600  0.284800  0.573000  1.0
  C  C72  1  0.718400  0.715200  0.427000  1.0
  C  C73  1  0.253700  0.192100  0.627100  1.0
  C  C74  1  0.746300  0.807900  0.372900  1.0
  C  C75  1  0.151400  0.222100  0.677500  1.0
  C  C76  1  0.848600  0.777900  0.322500  1.0
  C  C77  1  0.076400  0.343200  0.676800  1.0
  C  C78  1  0.923600  0.656800  0.323200  1.0
  C  C79  1  0.103600  0.436600  0.624400  1.0
  C  C80  1  0.896400  0.563400  0.375600  1.0
  C  C81  1  0.020900  0.572800  0.614300  1.0
  C  C82  1  0.979100  0.427200  0.385700  1.0
  C  C83  1  0.843400  0.613500  0.715300  1.0
  C  C84  1  0.156600  0.386500  0.284700  1.0
  C  C85  1  0.821400  0.644100  0.798200  1.0
  C  C86  1  0.178600  0.355900  0.201800  1.0
  C  C87  1  0.930900  0.646500  0.829200  1.0
  C  C88  1  0.069100  0.353500  0.170800  1.0
  C  C89  1  0.946900  0.684000  0.913600  1.0
  C  C90  1  0.053100  0.316000  0.086400  1.0
  C  C91  1  0.837300  0.772400  0.935800  1.0
  C  C92  1  0.162700  0.227600  0.064200  1.0
  C  C93  1  0.839500  0.813300  0.013200  1.0
  C  C94  1  0.160500  0.186700  0.986800  1.0
  C  C95  1  0.952100  0.764500  0.072000  1.0
  C  C96  1  0.047900  0.235500  0.928000  1.0
  C  C97  1  0.061800  0.676300  0.053300  1.0
  C  C98  1  0.938200  0.323700  0.946700  1.0
  C  C99  1  0.060900  0.635400  0.973800  1.0
  C  C100  1  0.939100  0.364600  0.026200  1.0
  C  C101  1  0.326800  0.522900  0.019200  1.0
  C  C102  1  0.673200  0.477100  0.980800  1.0
  C  C103  1  0.388800  0.254900  0.515200  1.0
  C  C104  1  0.611200  0.745100  0.484800  1.0
  C  C105  1  0.467600  0.311900  0.509700  1.0
  C  C106  1  0.532400  0.688100  0.490300  1.0
  C  C107  1  0.563700  0.288600  0.452200  1.0
  C  C108  1  0.436300  0.711400  0.547800  1.0
  C  C109  1  0.583700  0.206300  0.400000  1.0
  C  C110  1  0.416300  0.793700  0.600000  1.0
  C  C111  1  0.505200  0.150700  0.404500  1.0
  C  C112  1  0.494800  0.849300  0.595500  1.0
  C  C113  1  0.409800  0.174200  0.461800  1.0
  C  C114  1  0.590200  0.825800  0.538200  1.0
  C  C115  1  0.358700  0.642300  0.555300  1.0
  C  C116  1  0.641300  0.357700  0.444700  1.0
  C  C117  1  0.144300  0.785700  0.458700  1.0
  C  C118  1  0.855700  0.214300  0.541300  1.0
  C  C119  1  0.026100  0.860500  0.478200  1.0
  C  C120  1  0.973900  0.139500  0.521800  1.0
  C  C121  1  0.039200  0.840800  0.577200  1.0
  C  C122  1  0.960800  0.159200  0.422800  1.0
  C  C123  1  0.938400  0.898700  0.631500  1.0
  C  C124  1  0.061600  0.101300  0.368500  1.0
  C  C125  1  0.813600  0.939800  0.593100  1.0
  C  C126  1  0.186400  0.060200  0.406900  1.0
  C  C127  1  0.710000  0.002700  0.634700  1.0
  C  C128  1  0.290000  0.997300  0.365300  1.0
  C  C129  1  0.729500  0.029600  0.716600  1.0
  C  C130  1  0.270500  0.970400  0.283400  1.0
  C  C131  1  0.852300  0.990700  0.757000  1.0
  C  C132  1  0.147700  0.009300  0.243000  1.0
  C  C133  1  0.956500  0.925600  0.716200  1.0
  C  C134  1  0.043500  0.074400  0.283800  1.0
  C  C135  1  0.093100  0.925300  0.872100  1.0
  C  C136  1  0.906900  0.074700  0.127900  1.0
  C  C137  1  0.380600  0.334000  0.801700  1.0
  C  C138  1  0.619400  0.666000  0.198300  1.0
  C  C139  1  0.438600  0.202200  0.846000  1.0
  C  C140  1  0.561400  0.797800  0.154000  1.0
  S  S141  1  0.202780  0.518770  0.951820  1.0
  S  S142  1  0.797220  0.481230  0.048180  1.0
  S  S143  1  0.113680  0.879310  0.765050  1.0
  S  S144  1  0.886320  0.120690  0.234950  1.0
  N  N145  1  0.017400  0.617800  0.767700  1.0
  N  N146  1  0.982600  0.382200  0.232300  1.0
  N  N147  1  0.960800  0.598700  0.698500  1.0
  N  N148  1  0.039200  0.401300  0.301500  1.0
  N  N149  1  0.220700  0.723500  0.542500  1.0
  N  N150  1  0.779300  0.276500  0.457500  1.0
  N  N151  1  0.159100  0.756200  0.616200  1.0
  N  N152  1  0.840900  0.243800  0.383800  1.0
  N  N153  1  0.333900  0.437100  0.760100  1.0
  N  N154  1  0.666100  0.562900  0.239900  1.0
  Cl  Cl155  1  0.685200  0.360300  0.747300  1
  Cl  Cl156  1  0.314800  0.639700  0.252700  1
  Cl  Cl157  1  0.454480  0.877420  0.866800  1
  Cl  Cl158  1  0.545520  0.122580  0.133200  1
  Cl  Cl159  1  0.694900  0.391100  0.714400  1
  Cl  Cl160  1  0.305100  0.608900  0.285600  1
  O  O161  1  0.679300  0.282400  0.835400  1
  O  O162  1  0.320700  0.717600  0.164600  1
  O  O163  1  0.608800  0.360600  0.673900  1
  O  O164  1  0.391200  0.639400  0.326100  1
  O  O165  1  0.635800  0.485000  0.754300  1
  O  O166  1  0.364200  0.515000  0.245700  1
  O  O167  1  0.812800  0.304600  0.744200  1
  O  O168  1  0.187200  0.695400  0.255800  1
  O  O169  1  0.383500  0.849000  0.807500  1
  O  O170  1  0.616500  0.151000  0.192500  1
  O  O171  1  0.374400  0.953600  0.915200  1
  O  O172  1  0.625600  0.046400  0.084800  1
  O  O173  1  0.517200  0.939100  0.803400  1
  O  O174  1  0.482800  0.060900  0.196600  1
  O  O175  1  0.551600  0.765300  0.928300  1
  O  O176  1  0.448400  0.234700  0.071700  1
  O  O177  1  0.746600  0.438400  0.634600  1
  O  O178  1  0.253400  0.561600  0.365400  1
  O  O179  1  0.402300  0.619900  0.810900  1.0
  O  O180  1  0.597700  0.380100  0.189100  1.0
