# generated using pymatgen
data_H112Pt7C60Br6(N11O15)4
_symmetry_space_group_name_H-M   'P 1'
_cell_length_a   16.20500000
_cell_length_b   19.39700000
_cell_length_c   20.64800000
_cell_angle_alpha   111.03100000
_cell_angle_beta   90.00000000
_cell_angle_gamma   90.00000000
_symmetry_Int_Tables_number   1
_chemical_formula_structural   H112Pt7C60Br6(N11O15)4
_chemical_formula_sum   'H224 Pt14 C120 Br12 N88 O120'
_cell_volume   6057.91337194
_cell_formula_units_Z   2
loop_
 _symmetry_equiv_pos_site_id
 _symmetry_equiv_pos_as_xyz
  1  'x, y, z'
loop_
 _atom_site_type_symbol
 _atom_site_label
 _atom_site_symmetry_multiplicity
 _atom_site_fract_x
 _atom_site_fract_y
 _atom_site_fract_z
 _atom_site_occupancy
  H  H1  1  0.608700  0.676700  0.372100  1
  H  H2  1  0.891300  0.176700  0.372100  1
  H  H3  1  0.391300  0.323300  0.627900  1
  H  H4  1  0.108700  0.823300  0.627900  1
  H  H5  1  0.549100  0.731700  0.371700  1
  H  H6  1  0.950900  0.231700  0.371700  1
  H  H7  1  0.450900  0.268300  0.628300  1
  H  H8  1  0.049100  0.768300  0.628300  1
  H  H9  1  0.587300  0.694500  0.469000  1
  H  H10  1  0.912700  0.194500  0.469000  1
  H  H11  1  0.412700  0.305500  0.531000  1
  H  H12  1  0.087300  0.805500  0.531000  1
  H  H13  1  0.520100  0.752800  0.468000  1
  H  H14  1  0.979900  0.252800  0.468000  1
  H  H15  1  0.479900  0.247200  0.532000  1
  H  H16  1  0.020100  0.747200  0.532000  1
  H  H17  1  0.430000  0.682800  0.473700  1
  H  H18  1  0.070000  0.182800  0.473700  1
  H  H19  1  0.570000  0.317200  0.526300  1
  H  H20  1  0.930000  0.817200  0.526300  1
  H  H21  1  0.496500  0.625300  0.475300  1
  H  H22  1  0.003500  0.125300  0.475300  1
  H  H23  1  0.503500  0.374700  0.524700  1
  H  H24  1  0.996500  0.874700  0.524700  1
  H  H25  1  0.388200  0.606700  0.380200  1
  H  H26  1  0.111800  0.106700  0.380200  1
  H  H27  1  0.611800  0.393300  0.619800  1
  H  H28  1  0.888200  0.893300  0.619800  1
  H  H29  1  0.452500  0.553700  0.380500  1
  H  H30  1  0.047500  0.053700  0.380500  1
  H  H31  1  0.547500  0.446300  0.619500  1
  H  H32  1  0.952500  0.946300  0.619500  1
  H  H33  1  0.458400  0.499700  0.224700  1
  H  H34  1  0.041600  0.999700  0.224700  1
  H  H35  1  0.541600  0.500300  0.775300  1
  H  H36  1  0.958400  0.000300  0.775300  1
  H  H37  1  0.387100  0.548900  0.237300  1
  H  H38  1  0.112900  0.048900  0.237300  1
  H  H39  1  0.612900  0.451100  0.762700  1
  H  H40  1  0.887100  0.951100  0.762700  1
  H  H41  1  0.446700  0.516200  0.124500  1
  H  H42  1  0.053300  0.016200  0.124500  1
  H  H43  1  0.553300  0.483800  0.875500  1
  H  H44  1  0.946700  0.983800  0.875500  1
  H  H45  1  0.427300  0.600600  0.163000  1
  H  H46  1  0.072700  0.100600  0.163000  1
  H  H47  1  0.572700  0.399400  0.837000  1
  H  H48  1  0.927300  0.899400  0.837000  1
  H  H49  1  0.557000  0.588500  0.123900  1
  H  H50  1  0.943000  0.088500  0.123900  1
  H  H51  1  0.443000  0.411500  0.876100  1
  H  H52  1  0.057000  0.911500  0.876100  1
  H  H53  1  0.577100  0.533200  0.161900  1
  H  H54  1  0.922900  0.033200  0.161900  1
  H  H55  1  0.422900  0.466800  0.838100  1
  H  H56  1  0.077100  0.966800  0.838100  1
  H  H57  1  0.547100  0.682500  0.225800  1
  H  H58  1  0.952900  0.182500  0.225800  1
  H  H59  1  0.452900  0.317500  0.774200  1
  H  H60  1  0.047100  0.817500  0.774200  1
  H  H61  1  0.618600  0.642600  0.237600  1
  H  H62  1  0.881400  0.142600  0.237600  1
  H  H63  1  0.381400  0.357400  0.762400  1
  H  H64  1  0.118600  0.857400  0.762400  1
  H  H65  1  0.069000  0.806700  0.272800  1.0
  H  H66  1  0.431000  0.306700  0.272800  1.0
  H  H67  1  0.931000  0.193300  0.727200  1.0
  H  H68  1  0.569000  0.693300  0.727200  1.0
  H  H69  1  0.965400  0.726300  0.270900  1.0
  H  H70  1  0.534600  0.226300  0.270900  1.0
  H  H71  1  0.034600  0.273700  0.729100  1.0
  H  H72  1  0.465400  0.773700  0.729100  1.0
  H  H73  1  0.130600  0.605200  0.324200  1.0
  H  H74  1  0.369400  0.105200  0.324200  1.0
  H  H75  1  0.869400  0.394800  0.675800  1.0
  H  H76  1  0.630600  0.894800  0.675800  1.0
  H  H77  1  0.228700  0.686100  0.320000  1.0
  H  H78  1  0.271300  0.186100  0.320000  1.0
  H  H79  1  0.771300  0.313900  0.680000  1.0
  H  H80  1  0.728700  0.813900  0.680000  1.0
  H  H81  1  0.824600  0.150400  0.836800  1.0
  H  H82  1  0.675400  0.650400  0.836800  1.0
  H  H83  1  0.175400  0.849600  0.163200  1.0
  H  H84  1  0.324600  0.349600  0.163200  1.0
  H  H85  1  0.828000  0.194900  0.952000  1.0
  H  H86  1  0.672000  0.694900  0.952000  1.0
  H  H87  1  0.172000  0.805100  0.048000  1.0
  H  H88  1  0.328000  0.305100  0.048000  1.0
  H  H89  1  0.686500  0.361200  0.947700  1.0
  H  H90  1  0.813500  0.861200  0.947700  1.0
  H  H91  1  0.313500  0.638800  0.052300  1.0
  H  H92  1  0.186500  0.138800  0.052300  1.0
  H  H93  1  0.687300  0.307500  0.830700  1.0
  H  H94  1  0.812700  0.807500  0.830700  1.0
  H  H95  1  0.312700  0.692500  0.169300  1.0
  H  H96  1  0.187300  0.192500  0.169300  1.0
  H  H97  1  0.802200  0.281000  0.179700  1.0
  H  H98  1  0.697800  0.781000  0.179700  1.0
  H  H99  1  0.197800  0.719000  0.820300  1.0
  H  H100  1  0.302200  0.219000  0.820300  1.0
  H  H101  1  0.801100  0.227800  0.062000  1.0
  H  H102  1  0.698900  0.727800  0.062000  1.0
  H  H103  1  0.198900  0.772200  0.938000  1.0
  H  H104  1  0.301100  0.272200  0.938000  1.0
  H  H105  1  0.711600  0.416100  0.054000  1.0
  H  H106  1  0.788400  0.916100  0.054000  1.0
  H  H107  1  0.288400  0.583900  0.946000  1.0
  H  H108  1  0.211600  0.083900  0.946000  1.0
  H  H109  1  0.716900  0.464400  0.172700  1.0
  H  H110  1  0.783100  0.964400  0.172700  1.0
  H  H111  1  0.283100  0.535600  0.827300  1.0
  H  H112  1  0.216900  0.035600  0.827300  1.0
  H  H113  1  0.777700  0.585100  0.332400  1.0
  H  H114  1  0.722300  0.085100  0.332400  1.0
  H  H115  1  0.222300  0.414900  0.667600  1.0
  H  H116  1  0.277700  0.914900  0.667600  1.0
  H  H117  1  0.877200  0.673600  0.342200  1.0
  H  H118  1  0.622800  0.173600  0.342200  1.0
  H  H119  1  0.122800  0.326400  0.657800  1.0
  H  H120  1  0.377200  0.826400  0.657800  1.0
  H  H121  1  0.035900  0.510300  0.249400  1.0
  H  H122  1  0.464100  0.010300  0.249400  1.0
  H  H123  1  0.964100  0.489700  0.750600  1.0
  H  H124  1  0.535900  0.989700  0.750600  1.0
  H  H125  1  0.934900  0.428600  0.252600  1.0
  H  H126  1  0.565100  0.928600  0.252600  1.0
  H  H127  1  0.065100  0.571400  0.747400  1.0
  H  H128  1  0.434900  0.071400  0.747400  1.0
  H  H129  1  0.808700  0.452800  0.415700  1.0
  H  H130  1  0.691300  0.952800  0.415700  1.0
  H  H131  1  0.191300  0.547200  0.584300  1.0
  H  H132  1  0.308700  0.047200  0.584300  1.0
  H  H133  1  0.752300  0.511300  0.415500  1.0
  H  H134  1  0.747700  0.011300  0.415500  1.0
  H  H135  1  0.247700  0.488700  0.584500  1.0
  H  H136  1  0.252300  0.988700  0.584500  1.0
  H  H137  1  0.790700  0.112300  0.595000  1.0
  H  H138  1  0.709300  0.612300  0.595000  1.0
  H  H139  1  0.209300  0.887700  0.405000  1.0
  H  H140  1  0.290700  0.387700  0.405000  1.0
  H  H141  1  0.720700  0.159400  0.594700  1.0
  H  H142  1  0.779300  0.659400  0.594700  1.0
  H  H143  1  0.279300  0.840600  0.405300  1.0
  H  H144  1  0.220700  0.340600  0.405300  1.0
  H  H145  1  0.619900  0.128700  0.746300  1.0
  H  H146  1  0.880100  0.628700  0.746300  1.0
  H  H147  1  0.380100  0.871300  0.253700  1.0
  H  H148  1  0.119900  0.371300  0.253700  1.0
  H  H149  1  0.683000  0.072300  0.736800  1.0
  H  H150  1  0.817000  0.572300  0.736800  1.0
  H  H151  1  0.317000  0.927700  0.263200  1.0
  H  H152  1  0.183000  0.427700  0.263200  1.0
  H  H153  1  0.627400  0.361500  0.289700  1.0
  H  H154  1  0.872600  0.861500  0.289700  1.0
  H  H155  1  0.372600  0.638500  0.710300  1.0
  H  H156  1  0.127400  0.138500  0.710300  1.0
  H  H157  1  0.690500  0.304700  0.276200  1.0
  H  H158  1  0.809500  0.804700  0.276200  1.0
  H  H159  1  0.309500  0.695300  0.723800  1.0
  H  H160  1  0.190500  0.195300  0.723800  1.0
  H  H161  1  0.581700  0.089200  0.644400  1.0
  H  H162  1  0.918300  0.589200  0.644400  1.0
  H  H163  1  0.418300  0.910800  0.355600  1.0
  H  H164  1  0.081700  0.410800  0.355600  1.0
  H  H165  1  0.620500  0.016000  0.646000  1.0
  H  H166  1  0.879500  0.516000  0.646000  1.0
  H  H167  1  0.379500  0.984000  0.354000  1.0
  H  H168  1  0.120500  0.484000  0.354000  1.0
  H  H169  1  0.704800  0.316000  0.380800  1.0
  H  H170  1  0.795200  0.816000  0.380800  1.0
  H  H171  1  0.295200  0.684000  0.619200  1.0
  H  H172  1  0.204800  0.184000  0.619200  1.0
  H  H173  1  0.613000  0.342900  0.383200  1.0
  H  H174  1  0.887000  0.842900  0.383200  1.0
  H  H175  1  0.387000  0.657100  0.616800  1.0
  H  H176  1  0.113000  0.157100  0.616800  1.0
  H  H177  1  0.718800  0.020000  0.585600  1.0
  H  H178  1  0.781200  0.520000  0.585600  1.0
  H  H179  1  0.281200  0.980000  0.414400  1.0
  H  H180  1  0.218800  0.480000  0.414400  1.0
  H  H181  1  0.653000  0.061100  0.557400  1.0
  H  H182  1  0.847000  0.561100  0.557400  1.0
  H  H183  1  0.347000  0.938900  0.442600  1.0
  H  H184  1  0.153000  0.438900  0.442600  1.0
  H  H185  1  0.710500  0.421500  0.467100  1.0
  H  H186  1  0.789500  0.921500  0.467100  1.0
  H  H187  1  0.289500  0.578500  0.532900  1.0
  H  H188  1  0.210500  0.078500  0.532900  1.0
  H  H189  1  0.645400  0.458800  0.434100  1.0
  H  H190  1  0.854600  0.958800  0.434100  1.0
  H  H191  1  0.354600  0.541200  0.565900  1.0
  H  H192  1  0.145400  0.041200  0.565900  1.0
  H  H193  1  0.093500  0.402000  0.921200  1.0
  H  H194  1  0.406500  0.902000  0.921200  1.0
  H  H195  1  0.906500  0.598000  0.078800  1.0
  H  H196  1  0.593500  0.098000  0.078800  1.0
  H  H197  1  0.059400  0.372600  0.971900  1.0
  H  H198  1  0.440600  0.872600  0.971900  1.0
  H  H199  1  0.940600  0.627400  0.028100  1.0
  H  H200  1  0.559400  0.127400  0.028100  1.0
  H  H201  1  0.997700  0.354200  0.848700  1.0
  H  H202  1  0.502300  0.854200  0.848700  1.0
  H  H203  1  0.002300  0.645800  0.151300  1.0
  H  H204  1  0.497700  0.145800  0.151300  1.0
  H  H205  1  0.967300  0.315600  0.898500  1.0
  H  H206  1  0.532700  0.815600  0.898500  1.0
  H  H207  1  0.032700  0.684400  0.101500  1.0
  H  H208  1  0.467300  0.184400  0.101500  1.0
  H  H209  1  0.878600  0.361000  0.914900  1.0
  H  H210  1  0.621400  0.861000  0.914900  1.0
  H  H211  1  0.121400  0.639000  0.085100  1.0
  H  H212  1  0.378600  0.139000  0.085100  1.0
  H  H213  1  0.900400  0.381000  0.850600  1.0
  H  H214  1  0.599600  0.881000  0.850600  1.0
  H  H215  1  0.099600  0.619000  0.149400  1.0
  H  H216  1  0.400400  0.119000  0.149400  1.0
  H  H217  1  0.852800  0.465400  0.959300  1.0
  H  H218  1  0.647200  0.965400  0.959300  1.0
  H  H219  1  0.147200  0.534600  0.040700  1.0
  H  H220  1  0.352800  0.034600  0.040700  1.0
  H  H221  1  0.893600  0.486600  0.906000  1.0
  H  H222  1  0.606400  0.986600  0.906000  1.0
  H  H223  1  0.106400  0.513400  0.094000  1.0
  H  H224  1  0.393600  0.013400  0.094000  1.0
  Pt  Pt225  1  0.000000  0.500000  0.000000  1
  Pt  Pt226  1  0.500000  1.000000  0.000000  1
  Pt  Pt227  1  0.503230  0.622344  0.308121  1
  Pt  Pt228  1  0.996770  0.122344  0.308121  1
  Pt  Pt229  1  0.496770  0.377656  0.691879  1
  Pt  Pt230  1  0.003230  0.877656  0.691879  1
  Pt  Pt231  1  0.762727  0.422944  0.293300  1.0
  Pt  Pt232  1  0.737273  0.922944  0.293300  1.0
  Pt  Pt233  1  0.237273  0.577056  0.706700  1.0
  Pt  Pt234  1  0.262727  0.077056  0.706700  1.0
  Pt  Pt235  1  0.751330  0.178730  0.716990  1.0
  Pt  Pt236  1  0.748670  0.678730  0.716990  1.0
  Pt  Pt237  1  0.248670  0.821270  0.283010  1.0
  Pt  Pt238  1  0.251330  0.321270  0.283010  1.0
  C  C239  1  0.538200  0.702100  0.445500  1
  C  C240  1  0.961800  0.202100  0.445500  1
  C  C241  1  0.461800  0.297900  0.554500  1
  C  C242  1  0.038200  0.797900  0.554500  1
  C  C243  1  0.475900  0.653300  0.448100  1
  C  C244  1  0.024100  0.153300  0.448100  1
  C  C245  1  0.524100  0.346700  0.551900  1
  C  C246  1  0.975900  0.846700  0.551900  1
  C  C247  1  0.460100  0.559400  0.164700  1
  C  C248  1  0.039900  0.059400  0.164700  1
  C  C249  1  0.539900  0.440600  0.835300  1
  C  C250  1  0.960100  0.940600  0.835300  1
  C  C251  1  0.544200  0.575800  0.164200  1
  C  C252  1  0.955800  0.075800  0.164200  1
  C  C253  1  0.455800  0.424200  0.835800  1
  C  C254  1  0.044200  0.924200  0.835800  1
  C  C255  1  0.082300  0.764100  0.281300  1.0
  C  C256  1  0.417700  0.264100  0.281300  1.0
  C  C257  1  0.917700  0.235900  0.718700  1.0
  C  C258  1  0.582300  0.735900  0.718700  1.0
  C  C259  1  0.018900  0.717300  0.282300  1.0
  C  C260  1  0.481100  0.217300  0.282300  1.0
  C  C261  1  0.981100  0.282700  0.717700  1.0
  C  C262  1  0.518900  0.782700  0.717700  1.0
  C  C263  1  0.035700  0.657700  0.300100  1.0
  C  C264  1  0.464300  0.157700  0.300100  1.0
  C  C265  1  0.964300  0.342300  0.699900  1.0
  C  C266  1  0.535700  0.842300  0.699900  1.0
  C  C267  1  0.116200  0.646000  0.313100  1.0
  C  C268  1  0.383800  0.146000  0.313100  1.0
  C  C269  1  0.883800  0.354000  0.686900  1.0
  C  C270  1  0.616200  0.854000  0.686900  1.0
  C  C271  1  0.174600  0.694200  0.309400  1.0
  C  C272  1  0.325400  0.194200  0.309400  1.0
  C  C273  1  0.825400  0.305800  0.690600  1.0
  C  C274  1  0.674600  0.805800  0.690600  1.0
  C  C275  1  0.796100  0.194000  0.859800  1.0
  C  C276  1  0.703900  0.694000  0.859800  1.0
  C  C277  1  0.203900  0.806000  0.140200  1.0
  C  C278  1  0.296100  0.306000  0.140200  1.0
  C  C279  1  0.798300  0.220000  0.928800  1.0
  C  C280  1  0.701700  0.720000  0.928800  1.0
  C  C281  1  0.201700  0.780000  0.071200  1.0
  C  C282  1  0.298300  0.280000  0.071200  1.0
  C  C283  1  0.757600  0.282400  0.965300  1.0
  C  C284  1  0.742400  0.782400  0.965300  1.0
  C  C285  1  0.242400  0.717600  0.034700  1.0
  C  C286  1  0.257600  0.217600  0.034700  1.0
  C  C287  1  0.715100  0.317300  0.926200  1.0
  C  C288  1  0.784900  0.817300  0.926200  1.0
  C  C289  1  0.284900  0.682700  0.073800  1.0
  C  C290  1  0.215100  0.182700  0.073800  1.0
  C  C291  1  0.717100  0.284700  0.855900  1.0
  C  C292  1  0.782900  0.784700  0.855900  1.0
  C  C293  1  0.282900  0.715300  0.144100  1.0
  C  C294  1  0.217100  0.215300  0.144100  1.0
  C  C295  1  0.784600  0.308900  0.153900  1.0
  C  C296  1  0.715400  0.808900  0.153900  1.0
  C  C297  1  0.215400  0.691100  0.846100  1.0
  C  C298  1  0.284600  0.191100  0.846100  1.0
  C  C299  1  0.783800  0.276400  0.083500  1.0
  C  C300  1  0.716200  0.776400  0.083500  1.0
  C  C301  1  0.216200  0.723600  0.916500  1.0
  C  C302  1  0.283800  0.223600  0.916500  1.0
  C  C303  1  0.756900  0.317000  0.044600  1.0
  C  C304  1  0.743100  0.817000  0.044600  1.0
  C  C305  1  0.243100  0.683000  0.955400  1.0
  C  C306  1  0.256900  0.183000  0.955400  1.0
  C  C307  1  0.731100  0.387700  0.078600  1.0
  C  C308  1  0.768900  0.887700  0.078600  1.0
  C  C309  1  0.268900  0.612300  0.921400  1.0
  C  C310  1  0.231100  0.112300  0.921400  1.0
  C  C311  1  0.734400  0.416100  0.149800  1.0
  C  C312  1  0.765600  0.916100  0.149800  1.0
  C  C313  1  0.265600  0.583900  0.850200  1.0
  C  C314  1  0.234400  0.083900  0.850200  1.0
  C  C315  1  0.831200  0.570400  0.317300  1.0
  C  C316  1  0.668800  0.070400  0.317300  1.0
  C  C317  1  0.168800  0.429600  0.682700  1.0
  C  C318  1  0.331200  0.929600  0.682700  1.0
  C  C319  1  0.890300  0.623700  0.322300  1.0
  C  C320  1  0.609700  0.123700  0.322300  1.0
  C  C321  1  0.109700  0.376300  0.677700  1.0
  C  C322  1  0.390300  0.876300  0.677700  1.0
  C  C323  1  0.968400  0.601900  0.297600  1.0
  C  C324  1  0.531600  0.101900  0.297600  1.0
  C  C325  1  0.031600  0.398100  0.702400  1.0
  C  C326  1  0.468400  0.898100  0.702400  1.0
  C  C327  1  0.984600  0.527400  0.268700  1.0
  C  C328  1  0.515400  0.027400  0.268700  1.0
  C  C329  1  0.015400  0.472600  0.731300  1.0
  C  C330  1  0.484600  0.972600  0.731300  1.0
  C  C331  1  0.922800  0.478900  0.269300  1.0
  C  C332  1  0.577200  0.978900  0.269300  1.0
  C  C333  1  0.077200  0.521100  0.730700  1.0
  C  C334  1  0.422800  0.021100  0.730700  1.0
  C  C335  1  0.633000  0.066400  0.650500  1.0
  C  C336  1  0.867000  0.566400  0.650500  1.0
  C  C337  1  0.367000  0.933600  0.349500  1.0
  C  C338  1  0.133000  0.433600  0.349500  1.0
  C  C339  1  0.669500  0.353500  0.374400  1.0
  C  C340  1  0.830500  0.853500  0.374400  1.0
  C  C341  1  0.330500  0.646500  0.625600  1.0
  C  C342  1  0.169500  0.146500  0.625600  1.0
  C  C343  1  0.685700  0.064400  0.597800  1.0
  C  C344  1  0.814300  0.564400  0.597800  1.0
  C  C345  1  0.314300  0.935600  0.402200  1.0
  C  C346  1  0.185700  0.435600  0.402200  1.0
  C  C347  1  0.693300  0.426700  0.424100  1.0
  C  C348  1  0.806700  0.926700  0.424100  1.0
  C  C349  1  0.306700  0.573300  0.575900  1.0
  C  C350  1  0.193300  0.073300  0.575900  1.0
  C  C351  1  0.977100  0.363600  0.895200  1.0
  C  C352  1  0.522900  0.863600  0.895200  1.0
  C  C353  1  0.022900  0.636400  0.104800  1.0
  C  C354  1  0.477100  0.136400  0.104800  1.0
  C  C355  1  0.916400  0.389500  0.898100  1.0
  C  C356  1  0.583600  0.889500  0.898100  1.0
  C  C357  1  0.083600  0.610500  0.101900  1.0
  C  C358  1  0.416400  0.110500  0.101900  1.0
  Br  Br359  1  0.608770  0.532060  0.304510  1
  Br  Br360  1  0.891230  0.032060  0.304510  1
  Br  Br361  1  0.391230  0.467940  0.695490  1
  Br  Br362  1  0.108770  0.967940  0.695490  1
  Br  Br363  1  0.399270  0.713730  0.308650  1
  Br  Br364  1  0.100730  0.213730  0.308650  1
  Br  Br365  1  0.600730  0.286270  0.691350  1
  Br  Br366  1  0.899270  0.786270  0.691350  1
  Br  Br367  1  0.941420  0.452130  0.083690  1.0
  Br  Br368  1  0.558580  0.952130  0.083690  1.0
  Br  Br369  1  0.058580  0.547870  0.916310  1.0
  Br  Br370  1  0.441420  0.047870  0.916310  1.0
  N  N371  1  0.554800  0.688300  0.377900  1
  N  N372  1  0.945200  0.188300  0.377900  1
  N  N373  1  0.445200  0.311700  0.622100  1
  N  N374  1  0.054800  0.811700  0.622100  1
  N  N375  1  0.442900  0.600400  0.383300  1
  N  N376  1  0.057100  0.100400  0.383300  1
  N  N377  1  0.557100  0.399600  0.616700  1
  N  N378  1  0.942900  0.899600  0.616700  1
  N  N379  1  0.441700  0.545400  0.229000  1
  N  N380  1  0.058300  0.045400  0.229000  1
  N  N381  1  0.558300  0.454600  0.771000  1
  N  N382  1  0.941700  0.954600  0.771000  1
  N  N383  1  0.563900  0.639900  0.229600  1
  N  N384  1  0.936100  0.139900  0.229600  1
  N  N385  1  0.436100  0.360100  0.770400  1
  N  N386  1  0.063900  0.860100  0.770400  1
  N  N387  1  0.930200  0.393600  0.495300  1
  N  N388  1  0.569800  0.893600  0.495300  1
  N  N389  1  0.069800  0.606400  0.504700  1
  N  N390  1  0.430200  0.106400  0.504700  1
  N  N391  1  0.726500  0.154900  0.203100  1
  N  N392  1  0.773500  0.654900  0.203100  1
  N  N393  1  0.273500  0.845100  0.796900  1
  N  N394  1  0.226500  0.345100  0.796900  1
  N  N395  1  0.273500  0.015000  0.194450  1
  N  N396  1  0.226500  0.515000  0.194450  1
  N  N397  1  0.726500  0.985000  0.805550  1
  N  N398  1  0.773500  0.485000  0.805550  1
  N  N399  1  0.982900  0.861900  0.172000  1
  N  N400  1  0.517100  0.361900  0.172000  1
  N  N401  1  0.017100  0.138100  0.828000  1
  N  N402  1  0.482900  0.638100  0.828000  1
  N  N403  1  0.005500  0.282100  0.170200  1
  N  N404  1  0.494500  0.782100  0.170200  1
  N  N405  1  0.994500  0.717900  0.829800  1
  N  N406  1  0.505500  0.217900  0.829800  1
  N  N407  1  0.071600  0.937600  0.415000  1
  N  N408  1  0.428400  0.437600  0.415000  1
  N  N409  1  0.928400  0.062400  0.585000  1
  N  N410  1  0.571600  0.562400  0.585000  1
  N  N411  1  0.763900  0.683600  0.476900  1
  N  N412  1  0.736100  0.183600  0.476900  1
  N  N413  1  0.236100  0.316400  0.523100  1
  N  N414  1  0.263900  0.816400  0.523100  1
  N  N415  1  0.977600  0.857400  0.165400  1
  N  N416  1  0.522400  0.357400  0.165400  1
  N  N417  1  0.022400  0.142600  0.834600  1
  N  N418  1  0.477600  0.642600  0.834600  1
  N  N419  1  0.159400  0.752800  0.291470  1.0
  N  N420  1  0.340600  0.252800  0.291470  1.0
  N  N421  1  0.840600  0.247200  0.708530  1.0
  N  N422  1  0.659400  0.747200  0.708530  1.0
  N  N423  1  0.756300  0.225200  0.821100  1.0
  N  N424  1  0.743700  0.725200  0.821100  1.0
  N  N425  1  0.243700  0.774800  0.178900  1.0
  N  N426  1  0.256300  0.274800  0.178900  1.0
  N  N427  1  0.761700  0.377600  0.187500  1.0
  N  N428  1  0.738300  0.877600  0.187500  1.0
  N  N429  1  0.238300  0.622400  0.812500  1.0
  N  N430  1  0.261700  0.122400  0.812500  1.0
  N  N431  1  0.849000  0.499200  0.291650  1.0
  N  N432  1  0.651000  0.999200  0.291650  1.0
  N  N433  1  0.151000  0.500800  0.708350  1.0
  N  N434  1  0.349000  0.000800  0.708350  1.0
  N  N435  1  0.760000  0.462000  0.399400  1.0
  N  N436  1  0.740000  0.962000  0.399400  1.0
  N  N437  1  0.240000  0.538000  0.600600  1.0
  N  N438  1  0.260000  0.038000  0.600600  1.0
  N  N439  1  0.740600  0.127500  0.613600  1.0
  N  N440  1  0.759400  0.627500  0.613600  1.0
  N  N441  1  0.259400  0.872500  0.386400  1.0
  N  N442  1  0.240600  0.372500  0.386400  1.0
  N  N443  1  0.662000  0.104700  0.719100  1.0
  N  N444  1  0.838000  0.604700  0.719100  1.0
  N  N445  1  0.338000  0.895300  0.280900  1.0
  N  N446  1  0.162000  0.395300  0.280900  1.0
  N  N447  1  0.676800  0.350900  0.303900  1.0
  N  N448  1  0.823200  0.850900  0.303900  1.0
  N  N449  1  0.323200  0.649100  0.696100  1.0
  N  N450  1  0.176800  0.149100  0.696100  1.0
  N  N451  1  0.047800  0.398300  0.944400  1.0
  N  N452  1  0.452200  0.898300  0.944400  1.0
  N  N453  1  0.952200  0.601700  0.055600  1.0
  N  N454  1  0.547800  0.101700  0.055600  1.0
  N  N455  1  0.899500  0.461200  0.934600  1.0
  N  N456  1  0.600500  0.961200  0.934600  1.0
  N  N457  1  0.100500  0.538800  0.065400  1.0
  N  N458  1  0.399500  0.038800  0.065400  1.0
  O  O459  1  0.990200  0.385900  0.461200  1
  O  O460  1  0.509800  0.885900  0.461200  1
  O  O461  1  0.009800  0.614100  0.538800  1
  O  O462  1  0.490200  0.114100  0.538800  1
  O  O463  1  0.857500  0.397800  0.500500  1
  O  O464  1  0.642500  0.897800  0.500500  1
  O  O465  1  0.142500  0.602200  0.499500  1
  O  O466  1  0.357500  0.102200  0.499500  1
  O  O467  1  0.961700  0.410400  0.557100  1
  O  O468  1  0.538300  0.910400  0.557100  1
  O  O469  1  0.038300  0.589600  0.442900  1
  O  O470  1  0.461700  0.089600  0.442900  1
  O  O471  1  0.757600  0.095500  0.171000  1
  O  O472  1  0.742400  0.595500  0.171000  1
  O  O473  1  0.242400  0.904500  0.829000  1
  O  O474  1  0.257600  0.404500  0.829000  1
  O  O475  1  0.660500  0.175600  0.187200  1
  O  O476  1  0.839500  0.675600  0.187200  1
  O  O477  1  0.339500  0.824400  0.812800  1
  O  O478  1  0.160500  0.324400  0.812800  1
  O  O479  1  0.765000  0.196600  0.253600  1
  O  O480  1  0.735000  0.696600  0.253600  1
  O  O481  1  0.235000  0.803400  0.746400  1
  O  O482  1  0.265000  0.303400  0.746400  1
  O  O483  1  0.341000  0.987500  0.177800  1
  O  O484  1  0.159000  0.487500  0.177800  1
  O  O485  1  0.659000  0.012500  0.822200  1
  O  O486  1  0.841000  0.512500  0.822200  1
  O  O487  1  0.233000  0.004900  0.240190  1
  O  O488  1  0.267000  0.504900  0.240190  1
  O  O489  1  0.767000  0.995100  0.759810  1
  O  O490  1  0.733000  0.495100  0.759810  1
  O  O491  1  0.243500  0.055700  0.165300  1
  O  O492  1  0.256500  0.555700  0.165300  1
  O  O493  1  0.756500  0.944300  0.834700  1
  O  O494  1  0.743500  0.444300  0.834700  1
  O  O495  1  0.981400  0.881900  0.124100  1
  O  O496  1  0.518600  0.381900  0.124100  1
  O  O497  1  0.018600  0.118100  0.875900  1
  O  O498  1  0.481400  0.618100  0.875900  1
  O  O499  1  0.030100  0.897000  0.222500  1
  O  O500  1  0.469900  0.397000  0.222500  1
  O  O501  1  0.969900  0.103000  0.777500  1
  O  O502  1  0.530100  0.603000  0.777500  1
  O  O503  1  0.936300  0.814900  0.176800  1
  O  O504  1  0.563700  0.314900  0.176800  1
  O  O505  1  0.063700  0.185100  0.823200  1
  O  O506  1  0.436300  0.685100  0.823200  1
  O  O507  1  0.053700  0.322200  0.155600  1
  O  O508  1  0.446300  0.822200  0.155600  1
  O  O509  1  0.946300  0.677800  0.844400  1
  O  O510  1  0.553700  0.177800  0.844400  1
  O  O511  1  0.974900  0.297100  0.228200  1
  O  O512  1  0.525100  0.797100  0.228200  1
  O  O513  1  0.025100  0.702900  0.771800  1
  O  O514  1  0.474900  0.202900  0.771800  1
  O  O515  1  0.992700  0.220800  0.128600  1
  O  O516  1  0.507300  0.720800  0.128600  1
  O  O517  1  0.007300  0.779200  0.871400  1
  O  O518  1  0.492700  0.279200  0.871400  1
  O  O519  1  0.122200  0.974300  0.403200  1
  O  O520  1  0.377800  0.474300  0.403200  1
  O  O521  1  0.877800  0.025700  0.596800  1
  O  O522  1  0.622200  0.525700  0.596800  1
  O  O523  1  0.084500  0.883600  0.431300  1
  O  O524  1  0.415500  0.383600  0.431300  1
  O  O525  1  0.915500  0.116400  0.568700  1
  O  O526  1  0.584500  0.616400  0.568700  1
  O  O527  1  0.008800  0.956300  0.400100  1
  O  O528  1  0.491200  0.456300  0.400100  1
  O  O529  1  0.991200  0.043700  0.599900  1
  O  O530  1  0.508800  0.543700  0.599900  1
  O  O531  1  0.729300  0.624300  0.463500  1
  O  O532  1  0.770700  0.124300  0.463500  1
  O  O533  1  0.270700  0.375700  0.536500  1
  O  O534  1  0.229300  0.875700  0.536500  1
  O  O535  1  0.748900  0.722400  0.439100  1
  O  O536  1  0.751100  0.222400  0.439100  1
  O  O537  1  0.251100  0.277600  0.560900  1
  O  O538  1  0.248900  0.777600  0.560900  1
  O  O539  1  0.795500  0.725400  0.531400  1
  O  O540  1  0.704500  0.225400  0.531400  1
  O  O541  1  0.204500  0.274600  0.468600  1
  O  O542  1  0.295500  0.774600  0.468600  1
  O  O543  1  0.763100  0.861800  0.565900  1
  O  O544  1  0.736900  0.361800  0.565900  1
  O  O545  1  0.236900  0.138200  0.434100  1
  O  O546  1  0.263100  0.638200  0.434100  1
  O  O547  1  0.570200  0.008400  0.446500  1
  O  O548  1  0.929800  0.508400  0.446500  1
  O  O549  1  0.429800  0.991600  0.553500  1
  O  O550  1  0.070200  0.491600  0.553500  1
  O  O551  1  0.589500  0.832500  0.354500  1
  O  O552  1  0.910500  0.332500  0.354500  1
  O  O553  1  0.410500  0.167500  0.645500  1
  O  O554  1  0.089500  0.667500  0.645500  1
  O  O555  1  0.075400  0.294100  0.003000  1
  O  O556  1  0.424600  0.794100  0.003000  1
  O  O557  1  0.924600  0.705900  0.997000  1
  O  O558  1  0.575400  0.205900  0.997000  1
  O  O559  1  0.238400  0.468100  0.981700  1
  O  O560  1  0.261600  0.968100  0.981700  1
  O  O561  1  0.761600  0.531900  0.018300  1
  O  O562  1  0.738400  0.031900  0.018300  1
  O  O563  1  0.377900  0.422200  0.006700  1
  O  O564  1  0.122100  0.922200  0.006700  1
  O  O565  1  0.622100  0.577800  0.993300  1
  O  O566  1  0.877900  0.077800  0.993300  1
  O  O567  1  0.031100  0.892300  0.152300  1
  O  O568  1  0.468900  0.392300  0.152300  1
  O  O569  1  0.968900  0.107700  0.847700  1
  O  O570  1  0.531100  0.607700  0.847700  1
  O  O571  1  0.962600  0.856100  0.223300  1
  O  O572  1  0.537400  0.356100  0.223300  1
  O  O573  1  0.037400  0.143900  0.776700  1
  O  O574  1  0.462600  0.643900  0.776700  1
  O  O575  1  0.941000  0.809900  0.118100  1
  O  O576  1  0.559000  0.309900  0.118100  1
  O  O577  1  0.059000  0.190100  0.881900  1
  O  O578  1  0.441000  0.690100  0.881900  1
