# generated using pymatgen
data_Mn4H47C67N21(Cl3O2)2
_symmetry_space_group_name_H-M   'P 1'
_cell_length_a   13.96800000
_cell_length_b   21.80600000
_cell_length_c   25.92100000
_cell_angle_alpha   93.12600000
_cell_angle_beta   90.00000000
_cell_angle_gamma   90.00000000
_symmetry_Int_Tables_number   1
_chemical_formula_structural   Mn4H47C67N21(Cl3O2)2
_chemical_formula_sum   'Mn16 H188 C268 N84 Cl24 O16'
_cell_volume   7883.43128685
_cell_formula_units_Z   4
loop_
 _symmetry_equiv_pos_site_id
 _symmetry_equiv_pos_as_xyz
  1  'x, y, z'
loop_
 _atom_site_type_symbol
 _atom_site_label
 _atom_site_symmetry_multiplicity
 _atom_site_fract_x
 _atom_site_fract_y
 _atom_site_fract_z
 _atom_site_occupancy
  Mn  Mn1  1  0.587960  0.668730  0.296380  1.0
  Mn  Mn2  1  0.587960  0.831270  0.203620  1.0
  Mn  Mn3  1  0.412040  0.331270  0.703620  1.0
  Mn  Mn4  1  0.412040  0.168730  0.796380  1.0
  Mn  Mn5  1  0.895090  0.652590  0.286160  1.0
  Mn  Mn6  1  0.895090  0.847410  0.213840  1.0
  Mn  Mn7  1  0.104910  0.347410  0.713840  1.0
  Mn  Mn8  1  0.104910  0.152590  0.786160  1.0
  Mn  Mn9  1  0.760780  0.812930  0.363400  1.0
  Mn  Mn10  1  0.760780  0.687070  0.136600  1.0
  Mn  Mn11  1  0.239220  0.187070  0.636600  1.0
  Mn  Mn12  1  0.239220  0.312930  0.863400  1.0
  Mn  Mn13  1  0.756020  0.637040  0.441140  1.0
  Mn  Mn14  1  0.756020  0.862960  0.058860  1.0
  Mn  Mn15  1  0.243980  0.362960  0.558860  1.0
  Mn  Mn16  1  0.243980  0.137040  0.941140  1.0
  H  H17  1  0.689600  0.483100  0.696600  1
  H  H18  1  0.689600  0.016900  0.803400  1
  H  H19  1  0.310400  0.516900  0.303400  1
  H  H20  1  0.310400  0.983100  0.196600  1
  H  H21  1  0.802400  0.473800  0.705300  1
  H  H22  1  0.802400  0.026200  0.794700  1
  H  H23  1  0.197600  0.526200  0.294700  1
  H  H24  1  0.197600  0.973800  0.205300  1
  H  H25  1  0.827500  0.581700  0.698200  1
  H  H26  1  0.827500  0.918300  0.801800  1
  H  H27  1  0.172500  0.418300  0.301800  1
  H  H28  1  0.172500  0.081700  0.198200  1
  H  H29  1  0.758200  0.569600  0.745500  1
  H  H30  1  0.758200  0.930400  0.754500  1
  H  H31  1  0.241800  0.430400  0.254500  1
  H  H32  1  0.241800  0.069600  0.245500  1
  H  H33  1  0.973900  0.537500  0.783900  1
  H  H34  1  0.973900  0.962500  0.716100  1
  H  H35  1  0.026100  0.462500  0.216100  1
  H  H36  1  0.026100  0.037500  0.283900  1
  H  H37  1  0.923200  0.572600  0.831900  1
  H  H38  1  0.923200  0.927400  0.668100  1
  H  H39  1  0.076800  0.427400  0.168100  1
  H  H40  1  0.076800  0.072600  0.331900  1
  H  H41  1  0.071400  0.544300  0.857800  1
  H  H42  1  0.071400  0.955700  0.642200  1
  H  H43  1  0.928600  0.455700  0.142200  1
  H  H44  1  0.928600  0.044300  0.357800  1
  H  H45  1  0.055700  0.474800  0.836500  1
  H  H46  1  0.055700  0.025200  0.663500  1
  H  H47  1  0.944300  0.525200  0.163500  1
  H  H48  1  0.944300  0.974800  0.336500  1
  H  H49  1  0.894000  0.551500  0.516900  1.0
  H  H50  1  0.894000  0.948500  0.983100  1.0
  H  H51  1  0.106000  0.448500  0.483100  1.0
  H  H52  1  0.106000  0.051500  0.016900  1.0
  H  H53  1  0.918100  0.445600  0.531500  1.0
  H  H54  1  0.918100  0.054400  0.968500  1.0
  H  H55  1  0.081900  0.554400  0.468500  1.0
  H  H56  1  0.081900  0.945600  0.031500  1.0
  H  H57  1  0.834100  0.372700  0.483500  1.0
  H  H58  1  0.834100  0.127300  0.016500  1.0
  H  H59  1  0.165900  0.627300  0.516500  1.0
  H  H60  1  0.165900  0.872700  0.983500  1.0
  H  H61  1  0.740600  0.402100  0.411700  1.0
  H  H62  1  0.740600  0.097900  0.088300  1.0
  H  H63  1  0.259400  0.597900  0.588300  1.0
  H  H64  1  0.259400  0.902100  0.911700  1.0
  H  H65  1  0.641900  0.441500  0.343500  1.0
  H  H66  1  0.641900  0.058500  0.156500  1.0
  H  H67  1  0.358100  0.558500  0.656500  1.0
  H  H68  1  0.358100  0.941500  0.843500  1.0
  H  H69  1  0.516300  0.436100  0.269500  1.0
  H  H70  1  0.516300  0.063900  0.230500  1.0
  H  H71  1  0.483700  0.563900  0.730500  1.0
  H  H72  1  0.483700  0.936100  0.769500  1.0
  H  H73  1  0.400700  0.443800  0.202400  1.0
  H  H74  1  0.400700  0.056200  0.297600  1.0
  H  H75  1  0.599300  0.556200  0.797600  1.0
  H  H76  1  0.599300  0.943800  0.702400  1.0
  H  H77  1  0.383400  0.538400  0.164000  1.0
  H  H78  1  0.383400  0.961600  0.336000  1.0
  H  H79  1  0.616600  0.461600  0.836000  1.0
  H  H80  1  0.616600  0.038400  0.664000  1.0
  H  H81  1  0.372500  0.652000  0.132000  1.0
  H  H82  1  0.372500  0.848000  0.368000  1.0
  H  H83  1  0.627500  0.348000  0.868000  1.0
  H  H84  1  0.627500  0.152000  0.632000  1.0
  H  H85  1  0.350800  0.734000  0.064600  1.0
  H  H86  1  0.350800  0.766000  0.435400  1.0
  H  H87  1  0.649200  0.266000  0.935400  1.0
  H  H88  1  0.649200  0.234000  0.564600  1.0
  H  H89  1  0.319300  0.822200  0.017300  1.0
  H  H90  1  0.319300  0.677800  0.482700  1.0
  H  H91  1  0.680700  0.177800  0.982700  1.0
  H  H92  1  0.680700  0.322200  0.517300  1.0
  H  H93  1  0.380600  0.917100  0.044500  1.0
  H  H94  1  0.380600  0.582900  0.455500  1.0
  H  H95  1  0.619400  0.082900  0.955500  1.0
  H  H96  1  0.619400  0.417100  0.544500  1.0
  H  H97  1  0.478000  0.922500  0.117600  1.0
  H  H98  1  0.478000  0.577500  0.382400  1.0
  H  H99  1  0.522000  0.077500  0.882400  1.0
  H  H100  1  0.522000  0.422500  0.617600  1.0
  H  H101  1  0.744900  0.659900  0.572500  1.0
  H  H102  1  0.744900  0.840100  0.927500  1.0
  H  H103  1  0.255100  0.340100  0.427500  1.0
  H  H104  1  0.255100  0.159900  0.072500  1.0
  H  H105  1  0.844900  0.689700  0.642100  1.0
  H  H106  1  0.844900  0.810300  0.857900  1.0
  H  H107  1  0.155100  0.310300  0.357900  1.0
  H  H108  1  0.155100  0.189700  0.142100  1.0
  H  H109  1  0.006000  0.718200  0.625000  1.0
  H  H110  1  0.006000  0.781800  0.875000  1.0
  H  H111  1  0.994000  0.281800  0.375000  1.0
  H  H112  1  0.994000  0.218200  0.125000  1.0
  H  H113  1  0.062000  0.710500  0.539800  1.0
  H  H114  1  0.062000  0.789500  0.960200  1.0
  H  H115  1  0.938000  0.289500  0.460200  1.0
  H  H116  1  0.938000  0.210500  0.039800  1.0
  H  H117  1  0.112100  0.691200  0.448900  1.0
  H  H118  1  0.112100  0.808800  0.051100  1.0
  H  H119  1  0.887900  0.308800  0.551100  1.0
  H  H120  1  0.887900  0.191200  0.948900  1.0
  H  H121  1  0.233100  0.674000  0.368400  1.0
  H  H122  1  0.233100  0.826000  0.131600  1.0
  H  H123  1  0.766900  0.326000  0.631600  1.0
  H  H124  1  0.766900  0.174000  0.868400  1.0
  H  H125  1  0.318800  0.676400  0.292800  1.0
  H  H126  1  0.318800  0.823600  0.207200  1.0
  H  H127  1  0.681200  0.323600  0.707200  1.0
  H  H128  1  0.681200  0.176400  0.792800  1.0
  H  H129  1  0.241900  0.670800  0.212500  1.0
  H  H130  1  0.241900  0.829200  0.287500  1.0
  H  H131  1  0.758100  0.329200  0.787500  1.0
  H  H132  1  0.758100  0.170800  0.712500  1.0
  H  H133  1  0.128200  0.658600  0.130700  1.0
  H  H134  1  0.128200  0.841400  0.369300  1.0
  H  H135  1  0.871800  0.341400  0.869300  1.0
  H  H136  1  0.871800  0.158600  0.630700  1.0
  H  H137  1  0.085800  0.657900  0.035400  1.0
  H  H138  1  0.085800  0.842100  0.464600  1.0
  H  H139  1  0.914200  0.342100  0.964600  1.0
  H  H140  1  0.914200  0.157900  0.535400  1.0
  H  H141  1  0.033600  0.646200  0.950000  1.0
  H  H142  1  0.033600  0.853800  0.550000  1.0
  H  H143  1  0.966400  0.353800  0.050000  1.0
  H  H144  1  0.966400  0.146200  0.450000  1.0
  H  H145  1  0.871300  0.653800  0.932700  1.0
  H  H146  1  0.871300  0.846200  0.567300  1.0
  H  H147  1  0.128700  0.346200  0.067300  1.0
  H  H148  1  0.128700  0.153800  0.432700  1.0
  H  H149  1  0.763800  0.669000  0.001300  1.0
  H  H150  1  0.763800  0.831000  0.498700  1.0
  H  H151  1  0.236200  0.331000  0.998700  1.0
  H  H152  1  0.236200  0.169000  0.501300  1.0
  H  H153  1  0.639800  0.529500  0.512300  1.0
  H  H154  1  0.639800  0.970500  0.987700  1.0
  H  H155  1  0.360200  0.470500  0.487700  1.0
  H  H156  1  0.360200  0.029500  0.012300  1.0
  H  H157  1  0.524000  0.525700  0.575200  1.0
  H  H158  1  0.524000  0.974300  0.924800  1.0
  H  H159  1  0.476000  0.474300  0.424800  1.0
  H  H160  1  0.476000  0.025700  0.075200  1.0
  H  H161  1  0.450200  0.618900  0.606400  1.0
  H  H162  1  0.450200  0.881100  0.893600  1.0
  H  H163  1  0.549800  0.381100  0.393600  1.0
  H  H164  1  0.549800  0.118900  0.106400  1.0
  H  H165  1  0.479200  0.707600  0.561900  1.0
  H  H166  1  0.479200  0.792400  0.938100  1.0
  H  H167  1  0.520800  0.292400  0.438100  1.0
  H  H168  1  0.520800  0.207600  0.061900  1.0
  H  H169  1  0.517200  0.797500  0.512900  1.0
  H  H170  1  0.517200  0.702500  0.987100  1.0
  H  H171  1  0.482800  0.202500  0.487100  1.0
  H  H172  1  0.482800  0.297500  0.012900  1.0
  H  H173  1  0.496700  0.907500  0.481900  1.0
  H  H174  1  0.496700  0.592500  0.018100  1.0
  H  H175  1  0.503300  0.092500  0.518100  1.0
  H  H176  1  0.503300  0.407500  0.981900  1.0
  H  H177  1  0.491300  0.006000  0.447200  1.0
  H  H178  1  0.491300  0.494000  0.052800  1.0
  H  H179  1  0.508700  0.994000  0.552800  1.0
  H  H180  1  0.508700  0.506000  0.947200  1.0
  H  H181  1  0.595100  0.025800  0.378700  1.0
  H  H182  1  0.595100  0.474200  0.121300  1.0
  H  H183  1  0.404900  0.974200  0.621300  1.0
  H  H184  1  0.404900  0.525800  0.878700  1.0
  H  H185  1  0.733400  0.035600  0.306900  1.0
  H  H186  1  0.733400  0.464400  0.193100  1.0
  H  H187  1  0.266600  0.964400  0.693100  1.0
  H  H188  1  0.266600  0.535600  0.806900  1.0
  H  H189  1  0.817000  0.083100  0.231000  1.0
  H  H190  1  0.817000  0.416900  0.269000  1.0
  H  H191  1  0.183000  0.916900  0.769000  1.0
  H  H192  1  0.183000  0.583100  0.731000  1.0
  H  H193  1  0.920700  0.119800  0.169300  1.0
  H  H194  1  0.920700  0.380200  0.330700  1.0
  H  H195  1  0.079300  0.880200  0.830700  1.0
  H  H196  1  0.079300  0.619800  0.669300  1.0
  H  H197  1  0.010800  0.050500  0.118200  1.0
  H  H198  1  0.010800  0.449500  0.381800  1.0
  H  H199  1  0.989200  0.949500  0.881800  1.0
  H  H200  1  0.989200  0.550500  0.618200  1.0
  H  H201  1  0.012500  0.950300  0.138600  1.0
  H  H202  1  0.012500  0.549700  0.361400  1.0
  H  H203  1  0.987500  0.049700  0.861400  1.0
  H  H204  1  0.987500  0.450300  0.638600  1.0
  C  C205  1  0.753900  0.498800  0.688200  1
  C  C206  1  0.753900  0.001200  0.811800  1
  C  C207  1  0.246100  0.501200  0.311800  1
  C  C208  1  0.246100  0.998800  0.188200  1
  C  C209  1  0.763100  0.566900  0.707400  1
  C  C210  1  0.763100  0.933100  0.792600  1
  C  C211  1  0.236900  0.433100  0.292600  1
  C  C212  1  0.236900  0.066900  0.207400  1
  C  C213  1  0.945000  0.531700  0.818200  1
  C  C214  1  0.945000  0.968300  0.681800  1
  C  C215  1  0.055000  0.468300  0.181800  1
  C  C216  1  0.055000  0.031700  0.318200  1
  C  C217  1  0.023000  0.511000  0.853200  1
  C  C218  1  0.023000  0.989000  0.646800  1
  C  C219  1  0.977000  0.489000  0.146800  1
  C  C220  1  0.977000  0.011000  0.353200  1
  C  C221  1  0.862700  0.521000  0.495400  1.0
  C  C222  1  0.862700  0.979000  0.004600  1.0
  C  C223  1  0.137300  0.479000  0.504600  1.0
  C  C224  1  0.137300  0.021000  0.995400  1.0
  C  C225  1  0.876200  0.457300  0.504900  1.0
  C  C226  1  0.876200  0.042700  0.995100  1.0
  C  C227  1  0.123800  0.542700  0.495100  1.0
  C  C228  1  0.123800  0.957300  0.004900  1.0
  C  C229  1  0.829100  0.414700  0.475900  1.0
  C  C230  1  0.829100  0.085300  0.024100  1.0
  C  C231  1  0.170900  0.585300  0.524100  1.0
  C  C232  1  0.170900  0.914700  0.975900  1.0
  C  C233  1  0.771900  0.431700  0.434000  1.0
  C  C234  1  0.771900  0.068300  0.066000  1.0
  C  C235  1  0.228100  0.568300  0.566000  1.0
  C  C236  1  0.228100  0.931700  0.934000  1.0
  C  C237  1  0.764200  0.495300  0.427300  1.0
  C  C238  1  0.764200  0.004700  0.072700  1.0
  C  C239  1  0.235800  0.504700  0.572700  1.0
  C  C240  1  0.235800  0.995300  0.927300  1.0
  C  C241  1  0.706100  0.516500  0.385000  1.0
  C  C242  1  0.706100  0.983500  0.115000  1.0
  C  C243  1  0.293900  0.483500  0.615000  1.0
  C  C244  1  0.293900  0.016500  0.885000  1.0
  C  C245  1  0.650900  0.484700  0.347900  1.0
  C  C246  1  0.650900  0.015300  0.152100  1.0
  C  C247  1  0.349100  0.515300  0.652100  1.0
  C  C248  1  0.349100  0.984700  0.847900  1.0
  C  C249  1  0.611900  0.529900  0.318600  1.0
  C  C250  1  0.611900  0.970100  0.181400  1.0
  C  C251  1  0.388100  0.470100  0.681400  1.0
  C  C252  1  0.388100  0.029900  0.818600  1.0
  C  C253  1  0.543900  0.527300  0.275300  1.0
  C  C254  1  0.543900  0.972700  0.224700  1.0
  C  C255  1  0.456100  0.472700  0.724700  1.0
  C  C256  1  0.456100  0.027300  0.775300  1.0
  C  C257  1  0.501800  0.474600  0.255800  1.0
  C  C258  1  0.501800  0.025400  0.244200  1.0
  C  C259  1  0.498200  0.525400  0.744200  1.0
  C  C260  1  0.498200  0.974600  0.755800  1.0
  C  C261  1  0.436200  0.478800  0.214800  1.0
  C  C262  1  0.436200  0.021200  0.285200  1.0
  C  C263  1  0.563800  0.521200  0.785200  1.0
  C  C264  1  0.563800  0.978800  0.714800  1.0
  C  C265  1  0.424400  0.535000  0.193000  1.0
  C  C266  1  0.424400  0.965000  0.307000  1.0
  C  C267  1  0.575600  0.465000  0.807000  1.0
  C  C268  1  0.575600  0.035000  0.693000  1.0
  C  C269  1  0.472600  0.586000  0.213600  1.0
  C  C270  1  0.472600  0.914000  0.286400  1.0
  C  C271  1  0.527400  0.414000  0.786400  1.0
  C  C272  1  0.527400  0.086000  0.713600  1.0
  C  C273  1  0.472200  0.646600  0.193300  1.0
  C  C274  1  0.472200  0.853400  0.306700  1.0
  C  C275  1  0.527800  0.353400  0.806700  1.0
  C  C276  1  0.527800  0.146600  0.693300  1.0
  C  C277  1  0.420800  0.671100  0.153100  1.0
  C  C278  1  0.420800  0.828900  0.346900  1.0
  C  C279  1  0.579200  0.328900  0.846900  1.0
  C  C280  1  0.579200  0.171100  0.653100  1.0
  C  C281  1  0.457600  0.730800  0.151600  1.0
  C  C282  1  0.457600  0.769200  0.348400  1.0
  C  C283  1  0.542400  0.269200  0.848400  1.0
  C  C284  1  0.542400  0.230800  0.651600  1.0
  C  C285  1  0.434700  0.782000  0.119200  1.0
  C  C286  1  0.434700  0.718000  0.380800  1.0
  C  C287  1  0.565300  0.218000  0.880800  1.0
  C  C288  1  0.565300  0.282000  0.619200  1.0
  C  C289  1  0.376300  0.773100  0.075100  1.0
  C  C290  1  0.376300  0.726900  0.424900  1.0
  C  C291  1  0.623700  0.226900  0.924900  1.0
  C  C292  1  0.623700  0.273100  0.575100  1.0
  C  C293  1  0.357900  0.825900  0.047500  1.0
  C  C294  1  0.357900  0.674100  0.452500  1.0
  C  C295  1  0.642100  0.174100  0.952500  1.0
  C  C296  1  0.642100  0.325900  0.547500  1.0
  C  C297  1  0.393900  0.881500  0.062800  1.0
  C  C298  1  0.393900  0.618500  0.437200  1.0
  C  C299  1  0.606100  0.118500  0.937200  1.0
  C  C300  1  0.606100  0.381500  0.562800  1.0
  C  C301  1  0.451200  0.884000  0.106600  1.0
  C  C302  1  0.451200  0.616000  0.393400  1.0
  C  C303  1  0.548800  0.116000  0.893400  1.0
  C  C304  1  0.548800  0.384000  0.606600  1.0
  C  C305  1  0.809600  0.670500  0.566000  1.0
  C  C306  1  0.809600  0.829500  0.934000  1.0
  C  C307  1  0.190400  0.329500  0.434000  1.0
  C  C308  1  0.190400  0.170500  0.066000  1.0
  C  C309  1  0.868700  0.688400  0.607700  1.0
  C  C310  1  0.868700  0.811600  0.892300  1.0
  C  C311  1  0.131300  0.311600  0.392300  1.0
  C  C312  1  0.131300  0.188400  0.107700  1.0
  C  C313  1  0.964600  0.704800  0.597500  1.0
  C  C314  1  0.964600  0.795200  0.902500  1.0
  C  C315  1  0.035400  0.295200  0.402500  1.0
  C  C316  1  0.035400  0.204800  0.097500  1.0
  C  C317  1  0.997200  0.700900  0.547200  1.0
  C  C318  1  0.997200  0.799100  0.952800  1.0
  C  C319  1  0.002800  0.299100  0.452800  1.0
  C  C320  1  0.002800  0.200900  0.047200  1.0
  C  C321  1  0.934100  0.682600  0.507100  1.0
  C  C322  1  0.934100  0.817400  0.992900  1.0
  C  C323  1  0.065900  0.317400  0.492900  1.0
  C  C324  1  0.065900  0.182600  0.007100  1.0
  C  C325  1  0.962500  0.679700  0.453000  1.0
  C  C326  1  0.962500  0.820300  0.047000  1.0
  C  C327  1  0.037500  0.320300  0.547000  1.0
  C  C328  1  0.037500  0.179700  0.953000  1.0
  C  C329  1  0.053000  0.684200  0.431500  1.0
  C  C330  1  0.053000  0.815800  0.068500  1.0
  C  C331  1  0.947000  0.315800  0.568500  1.0
  C  C332  1  0.947000  0.184200  0.931500  1.0
  C  C333  1  0.037100  0.676000  0.378200  1.0
  C  C334  1  0.037100  0.824000  0.121800  1.0
  C  C335  1  0.962900  0.324000  0.621800  1.0
  C  C336  1  0.962900  0.176000  0.878200  1.0
  C  C337  1  0.098800  0.674300  0.334100  1.0
  C  C338  1  0.098800  0.825700  0.165900  1.0
  C  C339  1  0.901200  0.325700  0.665900  1.0
  C  C340  1  0.901200  0.174300  0.834100  1.0
  C  C341  1  0.200800  0.674200  0.336200  1.0
  C  C342  1  0.200800  0.825800  0.163800  1.0
  C  C343  1  0.799200  0.325800  0.663800  1.0
  C  C344  1  0.799200  0.174200  0.836200  1.0
  C  C345  1  0.250900  0.674400  0.291400  1.0
  C  C346  1  0.250900  0.825600  0.208600  1.0
  C  C347  1  0.749100  0.325600  0.708600  1.0
  C  C348  1  0.749100  0.174400  0.791400  1.0
  C  C349  1  0.206400  0.671900  0.243800  1.0
  C  C350  1  0.206400  0.828100  0.256200  1.0
  C  C351  1  0.793600  0.328100  0.756200  1.0
  C  C352  1  0.793600  0.171900  0.743800  1.0
  C  C353  1  0.104800  0.671200  0.244100  1.0
  C  C354  1  0.104800  0.828800  0.255900  1.0
  C  C355  1  0.895200  0.328800  0.755900  1.0
  C  C356  1  0.895200  0.171200  0.744100  1.0
  C  C357  1  0.045000  0.672400  0.197600  1.0
  C  C358  1  0.045000  0.827600  0.302400  1.0
  C  C359  1  0.955000  0.327600  0.802400  1.0
  C  C360  1  0.955000  0.172400  0.697600  1.0
  C  C361  1  0.067100  0.665600  0.146000  1.0
  C  C362  1  0.067100  0.834400  0.354000  1.0
  C  C363  1  0.932900  0.334400  0.854000  1.0
  C  C364  1  0.932900  0.165600  0.646000  1.0
  C  C365  1  0.980500  0.671400  0.121700  1.0
  C  C366  1  0.980500  0.828600  0.378300  1.0
  C  C367  1  0.019500  0.328600  0.878300  1.0
  C  C368  1  0.019500  0.171400  0.621700  1.0
  C  C369  1  0.952000  0.666900  0.066900  1.0
  C  C370  1  0.952000  0.833100  0.433100  1.0
  C  C371  1  0.048000  0.333100  0.933100  1.0
  C  C372  1  0.048000  0.166900  0.566900  1.0
  C  C373  1  0.019400  0.659000  0.027500  1.0
  C  C374  1  0.019400  0.841000  0.472500  1.0
  C  C375  1  0.980600  0.341000  0.972500  1.0
  C  C376  1  0.980600  0.159000  0.527500  1.0
  C  C377  1  0.988900  0.653000  0.977400  1.0
  C  C378  1  0.988900  0.847000  0.522600  1.0
  C  C379  1  0.011100  0.347000  0.022600  1.0
  C  C380  1  0.011100  0.153000  0.477400  1.0
  C  C381  1  0.894000  0.656900  0.967300  1.0
  C  C382  1  0.894000  0.843100  0.532700  1.0
  C  C383  1  0.106000  0.343100  0.032700  1.0
  C  C384  1  0.106000  0.156900  0.467300  1.0
  C  C385  1  0.830200  0.665600  0.008500  1.0
  C  C386  1  0.830200  0.834400  0.491500  1.0
  C  C387  1  0.169800  0.334400  0.991500  1.0
  C  C388  1  0.169800  0.165600  0.508500  1.0
  C  C389  1  0.606700  0.566100  0.522700  1.0
  C  C390  1  0.606700  0.933900  0.977300  1.0
  C  C391  1  0.393300  0.433900  0.477300  1.0
  C  C392  1  0.393300  0.066100  0.022700  1.0
  C  C393  1  0.539400  0.563600  0.560700  1.0
  C  C394  1  0.539400  0.936400  0.939300  1.0
  C  C395  1  0.460600  0.436400  0.439300  1.0
  C  C396  1  0.460600  0.063600  0.060700  1.0
  C  C397  1  0.493300  0.618200  0.578000  1.0
  C  C398  1  0.493300  0.881800  0.922000  1.0
  C  C399  1  0.506700  0.381800  0.422000  1.0
  C  C400  1  0.506700  0.118200  0.078000  1.0
  C  C401  1  0.512300  0.670500  0.552700  1.0
  C  C402  1  0.512300  0.829500  0.947300  1.0
  C  C403  1  0.487700  0.329500  0.447300  1.0
  C  C404  1  0.487700  0.170500  0.052700  1.0
  C  C405  1  0.580100  0.668700  0.513700  1.0
  C  C406  1  0.580100  0.831300  0.986300  1.0
  C  C407  1  0.419900  0.331300  0.486300  1.0
  C  C408  1  0.419900  0.168700  0.013700  1.0
  C  C409  1  0.600100  0.722800  0.484100  1.0
  C  C410  1  0.600100  0.777200  0.015900  1.0
  C  C411  1  0.399900  0.277200  0.515900  1.0
  C  C412  1  0.399900  0.222800  0.984100  1.0
  C  C413  1  0.562100  0.781100  0.488200  1.0
  C  C414  1  0.562100  0.718900  0.011800  1.0
  C  C415  1  0.437900  0.218900  0.511800  1.0
  C  C416  1  0.437900  0.281100  0.988200  1.0
  C  C417  1  0.604900  0.810400  0.447800  1.0
  C  C418  1  0.604900  0.689600  0.052200  1.0
  C  C419  1  0.395100  0.189600  0.552200  1.0
  C  C420  1  0.395100  0.310400  0.947800  1.0
  C  C421  1  0.597200  0.872700  0.431800  1.0
  C  C422  1  0.597200  0.627300  0.068200  1.0
  C  C423  1  0.402800  0.127300  0.568200  1.0
  C  C424  1  0.402800  0.372700  0.931800  1.0
  C  C425  1  0.536300  0.916600  0.453500  1.0
  C  C426  1  0.536300  0.583400  0.046500  1.0
  C  C427  1  0.463700  0.083400  0.546500  1.0
  C  C428  1  0.463700  0.416600  0.953500  1.0
  C  C429  1  0.533300  0.975100  0.433300  1.0
  C  C430  1  0.533300  0.524900  0.066700  1.0
  C  C431  1  0.466700  0.024900  0.566700  1.0
  C  C432  1  0.466700  0.475100  0.933300  1.0
  C  C433  1  0.593800  0.986300  0.392400  1.0
  C  C434  1  0.593800  0.513700  0.107600  1.0
  C  C435  1  0.406200  0.013700  0.607600  1.0
  C  C436  1  0.406200  0.486300  0.892400  1.0
  C  C437  1  0.652100  0.940200  0.371300  1.0
  C  C438  1  0.652100  0.559800  0.128700  1.0
  C  C439  1  0.347900  0.059800  0.628700  1.0
  C  C440  1  0.347900  0.440200  0.871300  1.0
  C  C441  1  0.713900  0.943800  0.326000  1.0
  C  C442  1  0.713900  0.556200  0.174000  1.0
  C  C443  1  0.286100  0.056200  0.674000  1.0
  C  C444  1  0.286100  0.443800  0.826000  1.0
  C  C445  1  0.746900  0.993300  0.299700  1.0
  C  C446  1  0.746900  0.506700  0.200300  1.0
  C  C447  1  0.253100  0.006700  0.700300  1.0
  C  C448  1  0.253100  0.493300  0.799700  1.0
  C  C449  1  0.803300  0.967500  0.260900  1.0
  C  C450  1  0.803300  0.532500  0.239100  1.0
  C  C451  1  0.196700  0.032500  0.739100  1.0
  C  C452  1  0.196700  0.467500  0.760900  1.0
  C  C453  1  0.861700  0.995000  0.221300  1.0
  C  C454  1  0.861700  0.505000  0.278700  1.0
  C  C455  1  0.138300  0.005000  0.778700  1.0
  C  C456  1  0.138300  0.495000  0.721300  1.0
  C  C457  1  0.858900  0.056000  0.212100  1.0
  C  C458  1  0.858900  0.444000  0.287900  1.0
  C  C459  1  0.141100  0.944000  0.787900  1.0
  C  C460  1  0.141100  0.556000  0.712100  1.0
  C  C461  1  0.918000  0.077100  0.174800  1.0
  C  C462  1  0.918000  0.422900  0.325200  1.0
  C  C463  1  0.082000  0.922900  0.825200  1.0
  C  C464  1  0.082000  0.577100  0.674800  1.0
  C  C465  1  0.972800  0.037100  0.145800  1.0
  C  C466  1  0.972800  0.462900  0.354200  1.0
  C  C467  1  0.027200  0.962900  0.854200  1.0
  C  C468  1  0.027200  0.537100  0.645800  1.0
  C  C469  1  0.971200  0.977800  0.157600  1.0
  C  C470  1  0.971200  0.522200  0.342400  1.0
  C  C471  1  0.028800  0.022200  0.842400  1.0
  C  C472  1  0.028800  0.477800  0.657600  1.0
  N  N473  1  0.807700  0.537900  0.457400  1.0
  N  N474  1  0.807700  0.962100  0.042600  1.0
  N  N475  1  0.192300  0.462100  0.542600  1.0
  N  N476  1  0.192300  0.037900  0.957400  1.0
  N  N477  1  0.702000  0.577400  0.377500  1.0
  N  N478  1  0.702000  0.922600  0.122500  1.0
  N  N479  1  0.298000  0.422600  0.622500  1.0
  N  N480  1  0.298000  0.077400  0.877500  1.0
  N  N481  1  0.644600  0.586300  0.336900  1.0
  N  N482  1  0.644600  0.913700  0.163100  1.0
  N  N483  1  0.355400  0.413700  0.663100  1.0
  N  N484  1  0.355400  0.086300  0.836900  1.0
  N  N485  1  0.529100  0.582800  0.256000  1.0
  N  N486  1  0.529100  0.917200  0.244000  1.0
  N  N487  1  0.470900  0.417200  0.744000  1.0
  N  N488  1  0.470900  0.082800  0.756000  1.0
  N  N489  1  0.534600  0.688800  0.213900  1.0
  N  N490  1  0.534600  0.811200  0.286100  1.0
  N  N491  1  0.465400  0.311200  0.786100  1.0
  N  N492  1  0.465400  0.188800  0.713900  1.0
  N  N493  1  0.525200  0.740100  0.187700  1.0
  N  N494  1  0.525200  0.759900  0.312300  1.0
  N  N495  1  0.474800  0.259900  0.812300  1.0
  N  N496  1  0.474800  0.240100  0.687700  1.0
  N  N497  1  0.471100  0.835600  0.134300  1.0
  N  N498  1  0.471100  0.664400  0.365700  1.0
  N  N499  1  0.528900  0.164400  0.865700  1.0
  N  N500  1  0.528900  0.335600  0.634300  1.0
  N  N501  1  0.841400  0.667600  0.516900  1.0
  N  N502  1  0.841400  0.832400  0.983100  1.0
  N  N503  1  0.158600  0.332400  0.483100  1.0
  N  N504  1  0.158600  0.167600  0.016900  1.0
  N  N505  1  0.896000  0.668600  0.416300  1.0
  N  N506  1  0.896000  0.831400  0.083700  1.0
  N  N507  1  0.104000  0.331400  0.583700  1.0
  N  N508  1  0.104000  0.168600  0.916300  1.0
  N  N509  1  0.941200  0.667700  0.370500  1.0
  N  N510  1  0.941200  0.832300  0.129500  1.0
  N  N511  1  0.058800  0.332300  0.629500  1.0
  N  N512  1  0.058800  0.167700  0.870500  1.0
  N  N513  1  0.053400  0.671300  0.288500  1.0
  N  N514  1  0.053400  0.828700  0.211500  1.0
  N  N515  1  0.946600  0.328700  0.711500  1.0
  N  N516  1  0.946600  0.171300  0.788500  1.0
  N  N517  1  0.950600  0.683100  0.205100  1.0
  N  N518  1  0.950600  0.816900  0.294900  1.0
  N  N519  1  0.049400  0.316900  0.794900  1.0
  N  N520  1  0.049400  0.183100  0.705100  1.0
  N  N521  1  0.909600  0.681000  0.157800  1.0
  N  N522  1  0.909600  0.819000  0.342200  1.0
  N  N523  1  0.090400  0.319000  0.842200  1.0
  N  N524  1  0.090400  0.181000  0.657800  1.0
  N  N525  1  0.859200  0.669200  0.057800  1.0
  N  N526  1  0.859200  0.830800  0.442200  1.0
  N  N527  1  0.140800  0.330800  0.942200  1.0
  N  N528  1  0.140800  0.169200  0.557800  1.0
  N  N529  1  0.628700  0.617700  0.499300  1.0
  N  N530  1  0.628700  0.882300  0.000700  1.0
  N  N531  1  0.371300  0.382300  0.500700  1.0
  N  N532  1  0.371300  0.117700  0.999300  1.0
  N  N533  1  0.661900  0.717400  0.444600  1.0
  N  N534  1  0.661900  0.782600  0.055400  1.0
  N  N535  1  0.338100  0.282600  0.555400  1.0
  N  N536  1  0.338100  0.217400  0.944600  1.0
  N  N537  1  0.666100  0.771500  0.422400  1.0
  N  N538  1  0.666100  0.728500  0.077600  1.0
  N  N539  1  0.333900  0.228500  0.577600  1.0
  N  N540  1  0.333900  0.271500  0.922400  1.0
  N  N541  1  0.654000  0.884300  0.391700  1.0
  N  N542  1  0.654000  0.615700  0.108300  1.0
  N  N543  1  0.346000  0.115700  0.608300  1.0
  N  N544  1  0.346000  0.384300  0.891700  1.0
  N  N545  1  0.749200  0.892300  0.305800  1.0
  N  N546  1  0.749200  0.607700  0.194200  1.0
  N  N547  1  0.250800  0.107700  0.694200  1.0
  N  N548  1  0.250800  0.392300  0.805800  1.0
  N  N549  1  0.805100  0.906200  0.264600  1.0
  N  N550  1  0.805100  0.593800  0.235400  1.0
  N  N551  1  0.194900  0.093800  0.735400  1.0
  N  N552  1  0.194900  0.406200  0.764600  1.0
  N  N553  1  0.916500  0.954600  0.193600  1.0
  N  N554  1  0.916500  0.545400  0.306400  1.0
  N  N555  1  0.083500  0.045400  0.806400  1.0
  N  N556  1  0.083500  0.454600  0.693600  1.0
  Cl  Cl557  1  0.731600  0.207470  0.391250  1
  Cl  Cl558  1  0.731600  0.292530  0.108750  1
  Cl  Cl559  1  0.268400  0.792530  0.608750  1
  Cl  Cl560  1  0.268400  0.707470  0.891250  1
  Cl  Cl561  1  0.772100  0.494000  0.619270  1
  Cl  Cl562  1  0.772100  0.006000  0.880730  1
  Cl  Cl563  1  0.227900  0.506000  0.380730  1
  Cl  Cl564  1  0.227900  0.994000  0.119270  1
  Cl  Cl565  1  0.676000  0.616500  0.681900  1
  Cl  Cl566  1  0.676000  0.883500  0.818100  1
  Cl  Cl567  1  0.324000  0.383500  0.318100  1
  Cl  Cl568  1  0.324000  0.116500  0.181900  1
  Cl  Cl569  1  0.840700  0.484500  0.808100  1
  Cl  Cl570  1  0.840700  0.015500  0.691900  1
  Cl  Cl571  1  0.159300  0.515500  0.191900  1
  Cl  Cl572  1  0.159300  0.984500  0.308100  1
  Cl  Cl573  1  0.979700  0.492000  0.915000  1
  Cl  Cl574  1  0.979700  0.008000  0.585000  1
  Cl  Cl575  1  0.020300  0.508000  0.085000  1
  Cl  Cl576  1  0.020300  0.992000  0.415000  1
  Cl  Cl577  1  0.749970  0.715790  0.308220  1.0
  Cl  Cl578  1  0.749970  0.784210  0.191780  1.0
  Cl  Cl579  1  0.250030  0.284210  0.691780  1.0
  Cl  Cl580  1  0.250030  0.215790  0.808220  1.0
  O  O581  1  0.574600  0.152700  0.399480  1
  O  O582  1  0.574600  0.347300  0.100520  1
  O  O583  1  0.425400  0.847300  0.600520  1
  O  O584  1  0.425400  0.652700  0.899480  1
  O  O585  1  0.777300  0.230700  0.475200  1
  O  O586  1  0.777300  0.269300  0.024800  1
  O  O587  1  0.222700  0.769300  0.524800  1
  O  O588  1  0.222700  0.730700  0.975200  1
  O  O589  1  0.716900  0.305100  0.352600  1
  O  O590  1  0.716900  0.194900  0.147400  1
  O  O591  1  0.283100  0.694900  0.647400  1
  O  O592  1  0.283100  0.805100  0.852600  1
  O  O593  1  0.851300  0.147700  0.350200  1
  O  O594  1  0.851300  0.352300  0.149800  1
  O  O595  1  0.148700  0.852300  0.649800  1
  O  O596  1  0.148700  0.647700  0.850200  1
