# generated using pymatgen
data_P5H60Pd3C76N12Cl2(O8F15)2
_symmetry_space_group_name_H-M   'P 1'
_cell_length_a   11.83100000
_cell_length_b   12.19050000
_cell_length_c   21.72930000
_cell_angle_alpha   88.86000000
_cell_angle_beta   87.60300000
_cell_angle_gamma   73.86900000
_symmetry_Int_Tables_number   1
_chemical_formula_structural   P5H60Pd3C76N12Cl2(O8F15)2
_chemical_formula_sum   'P5 H60 Pd3 C76 N12 Cl2 O16 F30'
_cell_volume   3007.79394747
_cell_formula_units_Z   1
loop_
 _symmetry_equiv_pos_site_id
 _symmetry_equiv_pos_as_xyz
  1  'x, y, z'
loop_
 _atom_site_type_symbol
 _atom_site_label
 _atom_site_symmetry_multiplicity
 _atom_site_fract_x
 _atom_site_fract_y
 _atom_site_fract_z
 _atom_site_occupancy
  P  P1  1  0.241800  0.685300  0.450060  1
  P  P2  1  0.758200  0.314700  0.549940  1
  P  P3  1  0.413600  0.136300  0.342700  1
  P  P4  1  0.586400  0.863700  0.657300  1
  P  P5  1  0.500000  0.500000  0.000000  1
  H  H6  1  0.895600  0.836900  0.816600  1.0
  H  H7  1  0.104400  0.163100  0.183400  1.0
  H  H8  1  0.672600  0.127400  0.759400  1.0
  H  H9  1  0.327400  0.872600  0.240600  1.0
  H  H10  1  0.804200  0.132800  0.678400  1.0
  H  H11  1  0.195800  0.867200  0.321600  1.0
  H  H12  1  0.976200  0.992000  0.669100  1.0
  H  H13  1  0.023800  0.008000  0.330900  1.0
  H  H14  1  0.644200  0.046500  0.861600  1.0
  H  H15  1  0.355800  0.953500  0.138400  1.0
  H  H16  1  0.615500  0.949500  0.823900  1.0
  H  H17  1  0.384500  0.050500  0.176100  1.0
  H  H18  1  0.852400  0.709800  0.938700  1.0
  H  H19  1  0.147600  0.290200  0.061300  1.0
  H  H20  1  0.806600  0.566600  0.098700  1.0
  H  H21  1  0.193400  0.433400  0.901300  1.0
  H  H22  1  0.564500  0.849500  0.043800  1.0
  H  H23  1  0.435500  0.150500  0.956200  1.0
  H  H24  1  0.481600  0.636600  0.220000  1.0
  H  H25  1  0.518400  0.363400  0.780000  1.0
  H  H26  1  0.565000  0.695100  0.253000  1.0
  H  H27  1  0.435000  0.304900  0.747000  1.0
  H  H28  1  0.183900  0.798000  0.855100  1.0
  H  H29  1  0.816100  0.202000  0.144900  1.0
  H  H30  1  0.370900  0.025300  0.850000  1.0
  H  H31  1  0.629100  0.974700  0.150000  1.0
  H  H32  1  0.339300  0.049900  0.746100  1.0
  H  H33  1  0.660700  0.950100  0.253900  1.0
  H  H34  1  0.225400  0.953400  0.699600  1.0
  H  H35  1  0.774600  0.046600  0.300400  1.0
  H  H36  1  0.392900  0.859400  0.933800  1.0
  H  H37  1  0.607100  0.140600  0.066200  1.0
  H  H38  1  0.285300  0.965300  0.949600  1.0
  H  H39  1  0.714700  0.034700  0.050400  1.0
  H  H40  1  0.130300  0.675200  0.976600  1.0
  H  H41  1  0.869700  0.324800  0.023400  1.0
  H  H42  1  0.079700  0.513200  0.128800  1.0
  H  H43  1  0.920300  0.486800  0.871200  1.0
  H  H44  1  0.470500  0.566700  0.330800  1.0
  H  H45  1  0.529500  0.433300  0.669200  1.0
  H  H46  1  0.535700  0.409900  0.394100  1.0
  H  H47  1  0.464300  0.590100  0.605900  1.0
  H  H48  1  0.705000  0.272300  0.367100  1.0
  H  H49  1  0.295000  0.727700  0.632900  1.0
  H  H50  1  0.050300  0.377200  0.250100  1.0
  H  H51  1  0.949700  0.622800  0.749900  1.0
  H  H52  1  0.141300  0.464900  0.412900  1.0
  H  H53  1  0.858700  0.535100  0.587100  1.0
  H  H54  1  0.030100  0.354900  0.460100  1.0
  H  H55  1  0.969900  0.645100  0.539900  1.0
  H  H56  1  0.932700  0.262000  0.400800  1.0
  H  H57  1  0.067300  0.738000  0.599200  1.0
  H  H58  1  0.186200  0.560000  0.319300  1.0
  H  H59  1  0.813800  0.440000  0.680700  1.0
  H  H60  1  0.272300  0.444000  0.296200  1.0
  H  H61  1  0.727700  0.556000  0.703800  1.0
  H  H62  1  0.752900  0.445400  0.219200  1.0
  H  H63  1  0.247100  0.554600  0.780800  1.0
  H  H64  1  0.276600  0.731400  0.131300  1.0
  H  H65  1  0.723400  0.268600  0.868700  1.0
  Pd  Pd66  1  0.000000  0.500000  0.000000  1
  Pd  Pd67  1  0.104130  0.776210  0.728450  1.0
  Pd  Pd68  1  0.895870  0.223790  0.271550  1.0
  C  C69  1  0.876300  0.897200  0.788600  1.0
  C  C70  1  0.123700  0.102800  0.211400  1.0
  C  C71  1  0.770000  0.979200  0.796100  1.0
  C  C72  1  0.230000  0.020800  0.203900  1.0
  C  C73  1  0.742800  0.069800  0.754800  1.0
  C  C74  1  0.257200  0.930200  0.245200  1.0
  C  C75  1  0.821300  0.073200  0.707000  1.0
  C  C76  1  0.178700  0.926800  0.293000  1.0
  C  C77  1  0.923700  0.989300  0.701800  1.0
  C  C78  1  0.076300  0.010700  0.298200  1.0
  C  C79  1  0.678000  0.972200  0.843200  1.0
  C  C80  1  0.322000  0.027800  0.156800  1.0
  C  C81  1  0.651900  0.880700  0.935820  1.0
  C  C82  1  0.348100  0.119300  0.064180  1.0
  C  C83  1  0.702200  0.792700  0.983300  1.0
  C  C84  1  0.297800  0.207300  0.016700  1.0
  C  C85  1  0.807000  0.709100  0.974700  1.0
  C  C86  1  0.193000  0.290900  0.025300  1.0
  C  C87  1  0.781000  0.624800  0.069900  1.0
  C  C88  1  0.219000  0.375200  0.930100  1.0
  C  C89  1  0.677100  0.709400  0.081000  1.0
  C  C90  1  0.322900  0.290600  0.919000  1.0
  C  C91  1  0.635500  0.793700  0.037100  1.0
  C  C92  1  0.364500  0.206300  0.962900  1.0
  C  C93  1  0.603800  0.714000  0.139100  1.0
  C  C94  1  0.396200  0.286000  0.860900  1.0
  C  C95  1  0.562600  0.628400  0.230000  1.0
  C  C96  1  0.437400  0.371600  0.770000  1.0
  C  C97  1  0.215500  0.849400  0.833100  1.0
  C  C98  1  0.784500  0.150600  0.166900  1.0
  C  C99  1  0.281900  0.906100  0.863500  1.0
  C  C100  1  0.718100  0.093900  0.136500  1.0
  C  C101  1  0.327500  0.984200  0.830500  1.0
  C  C102  1  0.672500  0.015800  0.169500  1.0
  C  C103  1  0.307500  0.999700  0.769100  1.0
  C  C104  1  0.692500  0.000300  0.230900  1.0
  C  C105  1  0.240100  0.941000  0.741200  1.0
  C  C106  1  0.759900  0.059000  0.258800  1.0
  C  C107  1  0.308800  0.891600  0.929500  1.0
  C  C108  1  0.691200  0.108400  0.070500  1.0
  C  C109  1  0.265300  0.801300  0.018300  1.0
  C  C110  1  0.734700  0.198700  0.981700  1.0
  C  C111  1  0.209900  0.716600  0.048500  1.0
  C  C112  1  0.790100  0.283400  0.951500  1.0
  C  C113  1  0.142900  0.661100  0.018400  1.0
  C  C114  1  0.857100  0.338900  0.981600  1.0
  C  C115  1  0.113500  0.564800  0.108400  1.0
  C  C116  1  0.886500  0.435200  0.891600  1.0
  C  C117  1  0.209800  0.593400  0.206000  1.0
  C  C118  1  0.790200  0.406600  0.794000  1.0
  C  C119  1  0.181500  0.617400  0.140800  1.0
  C  C120  1  0.818500  0.382600  0.859200  1.0
  C  C121  1  0.607400  0.523000  0.268300  1.0
  C  C122  1  0.392600  0.477000  0.731700  1.0
  C  C123  1  0.540400  0.511300  0.321000  1.0
  C  C124  1  0.459600  0.488700  0.679000  1.0
  C  C125  1  0.578300  0.418000  0.358200  1.0
  C  C126  1  0.421700  0.582000  0.641800  1.0
  C  C127  1  0.679900  0.336500  0.342000  1.0
  C  C128  1  0.320100  0.663500  0.658000  1.0
  C  C129  1  0.047800  0.372300  0.292900  1.0
  C  C130  1  0.952200  0.627700  0.707100  1.0
  C  C131  1  0.111800  0.428000  0.325600  1.0
  C  C132  1  0.888200  0.572000  0.674400  1.0
  C  C133  1  0.102700  0.424600  0.389400  1.0
  C  C134  1  0.897300  0.575400  0.610600  1.0
  C  C135  1  0.035600  0.360500  0.417400  1.0
  C  C136  1  0.964400  0.639500  0.582600  1.0
  C  C137  1  0.977600  0.305600  0.381700  1.0
  C  C138  1  0.022400  0.694400  0.618300  1.0
  C  C139  1  0.191400  0.491300  0.296300  1.0
  C  C140  1  0.808600  0.508700  0.703700  1.0
  C  C141  1  0.708300  0.438700  0.254600  1.0
  C  C142  1  0.291700  0.561300  0.745400  1.0
  C  C143  1  0.230600  0.694700  0.110500  1.0
  C  C144  1  0.769400  0.305300  0.889500  1.0
  N  N145  1  0.952100  0.902000  0.742410  1.0
  N  N146  1  0.047900  0.098000  0.257590  1.0
  N  N147  1  0.845200  0.626600  0.017080  1.0
  N  N148  1  0.154800  0.373400  0.982920  1.0
  N  N149  1  0.194800  0.865600  0.773000  1.0
  N  N150  1  0.805200  0.134400  0.227000  1.0
  N  N151  1  0.095000  0.586200  0.048410  1.0
  N  N152  1  0.905000  0.413800  0.951590  1.0
  N  N153  1  0.744200  0.346400  0.291110  1.0
  N  N154  1  0.255800  0.653600  0.708890  1.0
  N  N155  1  0.982500  0.311600  0.320430  1.0
  N  N156  1  0.017500  0.688400  0.679570  1.0
  Cl  Cl157  1  0.949910  0.359570  0.137310  1
  Cl  Cl158  1  0.050090  0.640430  0.862690  1
  O  O159  1  0.729200  0.889200  0.890610  1.0
  O  O160  1  0.270800  0.110800  0.109390  1.0
  O  O161  1  0.551600  0.937600  0.938080  1.0
  O  O162  1  0.448400  0.062400  0.061920  1.0
  O  O163  1  0.525700  0.796600  0.154120  1.0
  O  O164  1  0.474300  0.203400  0.845880  1.0
  O  O165  1  0.635300  0.620100  0.173800  1.0
  O  O166  1  0.364700  0.379900  0.826200  1.0
  O  O167  1  0.246100  0.816300  0.958500  1.0
  O  O168  1  0.753900  0.183700  0.041500  1.0
  O  O169  1  0.322400  0.850900  0.045800  1.0
  O  O170  1  0.677600  0.149100  0.954200  1.0
  O  O171  1  0.273400  0.636700  0.232600  1.0
  O  O172  1  0.726600  0.363300  0.767400  1.0
  O  O173  1  0.156300  0.521500  0.232980  1.0
  O  O174  1  0.843700  0.478500  0.767020  1.0
  F  F175  1  0.314300  0.746500  0.411500  1
  F  F176  1  0.685700  0.253500  0.588500  1
  F  F177  1  0.153000  0.696800  0.399700  1
  F  F178  1  0.847000  0.303200  0.600300  1
  F  F179  1  0.314900  0.565500  0.423100  1
  F  F180  1  0.685100  0.434500  0.576900  1
  F  F181  1  0.175600  0.606900  0.486800  1
  F  F182  1  0.824400  0.393100  0.513200  1
  F  F183  1  0.308200  0.682500  0.506300  1
  F  F184  1  0.691800  0.317500  0.493700  1
  F  F185  1  0.154300  0.799700  0.473200  1
  F  F186  1  0.845700  0.200300  0.526800  1
  F  F187  1  0.274600  0.144900  0.342400  1
  F  F188  1  0.725400  0.855100  0.657600  1
  F  F189  1  0.417000  0.081100  0.412000  1
  F  F190  1  0.583000  0.918900  0.588000  1
  F  F191  1  0.445600  0.016000  0.307200  1
  F  F192  1  0.554400  0.984000  0.692800  1
  F  F193  1  0.402400  0.214600  0.275300  1
  F  F194  1  0.597600  0.785400  0.724700  1
  F  F195  1  0.382100  0.251400  0.373000  1
  F  F196  1  0.617900  0.748600  0.627000  1
  F  F197  1  0.544200  0.118000  0.349100  1
  F  F198  1  0.455800  0.882000  0.650900  1
  F  F199  1  0.482000  0.565500  0.062800  1.0
  F  F200  1  0.518000  0.434500  0.937200  1.0
  F  F201  1  0.373700  0.475300  0.017100  1.0
  F  F202  1  0.626300  0.524700  0.982900  1.0
  F  F203  1  0.454000  0.607600  0.960200  1.0
  F  F204  1  0.546000  0.392400  0.039800  1.0
