# generated using pymatgen
data_AgH29C29N7(OF2)3
_symmetry_space_group_name_H-M   'P 1'
_cell_length_a   9.33900000
_cell_length_b   10.21680000
_cell_length_c   16.38200000
_cell_angle_alpha   75.72100000
_cell_angle_beta   87.85700000
_cell_angle_gamma   71.73800000
_symmetry_Int_Tables_number   1
_chemical_formula_structural   AgH29C29N7(OF2)3
_chemical_formula_sum   'Ag2 H58 C58 N14 O6 F12'
_cell_volume   1437.14679900
_cell_formula_units_Z   2
loop_
 _symmetry_equiv_pos_site_id
 _symmetry_equiv_pos_as_xyz
  1  'x, y, z'
loop_
 _atom_site_type_symbol
 _atom_site_label
 _atom_site_symmetry_multiplicity
 _atom_site_fract_x
 _atom_site_fract_y
 _atom_site_fract_z
 _atom_site_occupancy
  Ag  Ag1  1  0.604960  0.807690  0.536490  1.0
  Ag  Ag2  1  0.395040  0.192310  0.463510  1.0
  H  H3  1  0.524200  0.357600  0.940600  1
  H  H4  1  0.475800  0.642400  0.059400  1
  H  H5  1  0.372900  0.499300  0.920600  1
  H  H6  1  0.627100  0.500700  0.079400  1
  H  H7  1  0.557900  0.655600  0.738400  1.0
  H  H8  1  0.442100  0.344400  0.261600  1.0
  H  H9  1  0.200100  0.969700  0.522100  1.0
  H  H10  1  0.799900  0.030300  0.477900  1.0
  H  H11  1  0.980600  0.125100  0.556000  1.0
  H  H12  1  0.019400  0.874900  0.444000  1.0
  H  H13  1  0.929500  0.131200  0.694100  1.0
  H  H14  1  0.070500  0.868800  0.305900  1.0
  H  H15  1  0.096300  0.980500  0.803400  1.0
  H  H16  1  0.903700  0.019500  0.196600  1.0
  H  H17  1  0.313500  0.725600  0.894400  1.0
  H  H18  1  0.686500  0.274400  0.105600  1.0
  H  H19  1  0.487800  0.672400  0.882500  1.0
  H  H20  1  0.512200  0.327600  0.117500  1.0
  H  H21  1  0.433800  0.848500  0.955900  1.0
  H  H22  1  0.566200  0.151500  0.044100  1.0
  H  H23  1  0.319300  0.954500  0.883700  1.0
  H  H24  1  0.680700  0.045500  0.116300  1.0
  H  H25  1  0.514600  0.925900  0.075700  1.0
  H  H26  1  0.485400  0.074100  0.924300  1.0
  H  H27  1  0.393200  0.905100  0.141900  1.0
  H  H28  1  0.606800  0.094900  0.858100  1.0
  H  H29  1  0.630400  0.723900  0.173300  1.0
  H  H30  1  0.369600  0.276100  0.826700  1.0
  H  H31  1  0.699300  0.837700  0.188800  1.0
  H  H32  1  0.300700  0.162300  0.811200  1.0
  H  H33  1  0.691000  0.864500  0.337200  1.0
  H  H34  1  0.309000  0.135500  0.662800  1.0
  H  H35  1  0.379700  0.651800  0.220800  1.0
  H  H36  1  0.620300  0.348200  0.779200  1.0
  H  H37  1  0.222700  0.548200  0.310500  1.0
  H  H38  1  0.777300  0.451800  0.689500  1.0
  H  H39  1  0.213900  0.549300  0.450900  1.0
  H  H40  1  0.786100  0.450700  0.549100  1.0
  H  H41  1  0.357000  0.655300  0.508500  1.0
  H  H42  1  0.643000  0.344700  0.491500  1.0
  H  H43  1  0.696400  0.842600  0.947700  1.0
  H  H44  1  0.303600  0.157400  0.052300  1.0
  H  H45  1  0.684500  0.735600  0.896200  1.0
  H  H46  1  0.315500  0.264400  0.103800  1.0
  H  H47  1  0.907900  0.802600  0.873500  1.0
  H  H48  1  0.092100  0.197400  0.126500  1.0
  H  H49  1  0.807000  0.957000  0.829600  1.0
  H  H50  1  0.193000  0.043000  0.170400  1.0
  H  H51  1  0.628300  0.942800  0.696600  1.0
  H  H52  1  0.371700  0.057200  0.303400  1.0
  H  H53  1  0.111000  0.632900  0.826600  1.0
  H  H54  1  0.889000  0.367100  0.173400  1.0
  H  H55  1  0.277200  0.497900  0.748400  1.0
  H  H56  1  0.722800  0.502100  0.251600  1.0
  H  H57  1  0.209900  0.497000  0.615200  1.0
  H  H58  1  0.790100  0.503000  0.384800  1.0
  H  H59  1  0.975200  0.633400  0.553300  1.0
  H  H60  1  0.024800  0.366600  0.446700  1.0
  C  C61  1  0.193900  0.609000  0.060400  1
  C  C62  1  0.806100  0.391000  0.939600  1
  C  C63  1  0.067300  0.731400  0.082200  1
  C  C64  1  0.932700  0.268600  0.917800  1
  C  C65  1  0.466600  0.726800  0.720900  1.0
  C  C66  1  0.533400  0.273200  0.279100  1.0
  C  C67  1  0.281100  0.881800  0.643600  1.0
  C  C68  1  0.718900  0.118200  0.356400  1.0
  C  C69  1  0.180200  0.971700  0.577900  1.0
  C  C70  1  0.819800  0.028300  0.422100  1.0
  C  C71  1  0.049900  0.063700  0.598700  1.0
  C  C72  1  0.950100  0.936300  0.401300  1.0
  C  C73  1  0.018700  0.067400  0.682400  1.0
  C  C74  1  0.981300  0.932600  0.317600  1.0
  C  C75  1  0.117100  0.978700  0.747700  1.0
  C  C76  1  0.882900  0.021300  0.252300  1.0
  C  C77  1  0.248800  0.886500  0.727000  1.0
  C  C78  1  0.751200  0.113500  0.273000  1.0
  C  C79  1  0.396800  0.752800  0.866200  1.0
  C  C80  1  0.603200  0.247200  0.133800  1.0
  C  C81  1  0.413900  0.877300  0.895300  1.0
  C  C82  1  0.586100  0.122700  0.104700  1.0
  C  C83  1  0.487700  0.926400  0.133400  1.0
  C  C84  1  0.512300  0.073600  0.866600  1.0
  C  C85  1  0.607900  0.811000  0.191900  1.0
  C  C86  1  0.392100  0.189000  0.808100  1.0
  C  C87  1  0.617400  0.819400  0.343400  1.0
  C  C88  1  0.382600  0.180600  0.656600  1.0
  C  C89  1  0.457900  0.716900  0.313300  1.0
  C  C90  1  0.542100  0.283100  0.686700  1.0
  C  C91  1  0.374500  0.653200  0.277400  1.0
  C  C92  1  0.625500  0.346800  0.722600  1.0
  C  C93  1  0.282200  0.591300  0.331600  1.0
  C  C94  1  0.717800  0.408700  0.668400  1.0
  C  C95  1  0.276600  0.592300  0.416800  1.0
  C  C96  1  0.723400  0.407700  0.583200  1.0
  C  C97  1  0.361100  0.655200  0.451700  1.0
  C  C98  1  0.638900  0.344800  0.548300  1.0
  C  C99  1  0.452800  0.718100  0.398400  1.0
  C  C100  1  0.547200  0.281900  0.601600  1.0
  C  C101  1  0.683400  0.832600  0.891300  1.0
  C  C102  1  0.316600  0.167400  0.108700  1.0
  C  C103  1  0.815000  0.857200  0.840300  1.0
  C  C104  1  0.185000  0.142800  0.159700  1.0
  C  C105  1  0.719600  0.872700  0.695100  1.0
  C  C106  1  0.280400  0.127300  0.304900  1.0
  C  C107  1  0.944900  0.720000  0.733100  1.0
  C  C108  1  0.055100  0.280000  0.266900  1.0
  C  C109  1  0.084900  0.634800  0.772000  1.0
  C  C110  1  0.915100  0.365200  0.228000  1.0
  C  C111  1  0.181600  0.554100  0.725500  1.0
  C  C112  1  0.818400  0.445900  0.274500  1.0
  C  C113  1  0.141000  0.553900  0.644600  1.0
  C  C114  1  0.859000  0.446100  0.355400  1.0
  C  C115  1  0.001900  0.635400  0.607000  1.0
  C  C116  1  0.998100  0.364600  0.393000  1.0
  C  C117  1  0.902600  0.721200  0.652300  1.0
  C  C118  1  0.097400  0.278800  0.347700  1.0
  N  N119  1  0.369400  0.785400  0.775300  1.0
  N  N120  1  0.630600  0.214600  0.224700  1.0
  N  N121  1  0.420000  0.780200  0.640900  1.0
  N  N122  1  0.580000  0.219800  0.359100  1.0
  N  N123  1  0.563900  0.784000  0.279500  1.0
  N  N124  1  0.436100  0.216000  0.720500  1.0
  N  N125  1  0.555200  0.783800  0.415700  1.0
  N  N126  1  0.444800  0.216200  0.584300  1.0
  N  N127  1  0.824100  0.817900  0.759400  1.0
  N  N128  1  0.175900  0.182100  0.240600  1.0
  N  N129  1  0.759500  0.817300  0.630000  1.0
  N  N130  1  0.240500  0.182700  0.370000  1.0
  N  N131  1  0.535500  0.930400  0.854900  1.0
  N  N132  1  0.464500  0.069600  0.145100  1.0
  O  O133  1  0.290400  0.547700  0.111100  1
  O  O134  1  0.709600  0.452300  0.888900  1
  O  O135  1  0.177000  0.594800  0.989500  1
  O  O136  1  0.823000  0.405200  0.010500  1
  O  O137  1  0.417700  0.398500  0.924000  1
  O  O138  1  0.582300  0.601500  0.076000  1
  F  F139  1  0.952100  0.799800  0.040100  1
  F  F140  1  0.047900  0.200200  0.959900  1
  F  F141  1  0.019800  0.683500  0.165200  1
  F  F142  1  0.980200  0.316500  0.834800  1
  F  F143  1  0.129800  0.829600  0.100100  1
  F  F144  1  0.870200  0.170400  0.899900  1
  F  F145  1  0.937000  0.698100  0.072200  1
  F  F146  1  0.063000  0.301900  0.927800  1
  F  F147  1  0.064300  0.758500  0.141400  1
  F  F148  1  0.935700  0.241500  0.858600  1
  F  F149  1  0.050000  0.836000  0.012900  1
  F  F150  1  0.950000  0.164000  0.987100  1
