# generated using pymatgen
data_H81Ru4C75S4N12(O11F5)3
_symmetry_space_group_name_H-M   'P 1'
_cell_length_a   16.57800000
_cell_length_b   17.18700000
_cell_length_c   17.84200000
_cell_angle_alpha   86.14000000
_cell_angle_beta   87.59000000
_cell_angle_gamma   73.73000000
_symmetry_Int_Tables_number   1
_chemical_formula_structural   H81Ru4C75S4N12(O11F5)3
_chemical_formula_sum   'H162 Ru8 C150 S8 N24 O66 F30'
_cell_volume   4867.56405841
_cell_formula_units_Z   2
loop_
 _symmetry_equiv_pos_site_id
 _symmetry_equiv_pos_as_xyz
  1  'x, y, z'
loop_
 _atom_site_type_symbol
 _atom_site_label
 _atom_site_symmetry_multiplicity
 _atom_site_fract_x
 _atom_site_fract_y
 _atom_site_fract_z
 _atom_site_occupancy
  H  H1  1  0.211600  0.146800  0.083000  1
  H  H2  1  0.788400  0.853200  0.917000  1
  H  H3  1  0.138200  0.193300  0.027100  1
  H  H4  1  0.861800  0.806700  0.972900  1
  H  H5  1  0.231200  0.202500  0.013000  1
  H  H6  1  0.768800  0.797500  0.987000  1
  H  H7  1  0.368000  0.528200  0.814100  1
  H  H8  1  0.632000  0.471800  0.185900  1
  H  H9  1  0.318600  0.513000  0.743800  1
  H  H10  1  0.681400  0.487000  0.256200  1
  H  H11  1  0.408000  0.451800  0.764600  1
  H  H12  1  0.592000  0.548200  0.235400  1
  H  H13  1  0.866200  0.578200  0.250900  1
  H  H14  1  0.133800  0.421800  0.749100  1
  H  H15  1  0.799600  0.529400  0.236000  1
  H  H16  1  0.200400  0.470600  0.764000  1
  H  H17  1  0.888900  0.482400  0.270400  1
  H  H18  1  0.111100  0.517600  0.729600  1
  H  H19  1  0.106500  0.697100  0.223400  1.0
  H  H20  1  0.893500  0.302900  0.776600  1.0
  H  H21  1  0.923600  0.856900  0.327400  1.0
  H  H22  1  0.076400  0.143100  0.672600  1.0
  H  H23  1  0.068800  0.766200  0.108500  1.0
  H  H24  1  0.931200  0.233800  0.891500  1.0
  H  H25  1  0.886300  0.930400  0.219000  1.0
  H  H26  1  0.113700  0.069600  0.781000  1.0
  H  H27  1  0.802300  0.142100  0.925900  1.0
  H  H28  1  0.197700  0.857900  0.074100  1.0
  H  H29  1  0.893500  0.927300  0.827000  1.0
  H  H30  1  0.106500  0.072700  0.173000  1.0
  H  H31  1  0.738700  0.199000  0.817300  1.0
  H  H32  1  0.261300  0.801000  0.182700  1.0
  H  H33  1  0.822300  0.985200  0.723200  1.0
  H  H34  1  0.177700  0.014800  0.276800  1.0
  H  H35  1  0.147100  0.584200  0.488400  1.0
  H  H36  1  0.852900  0.415800  0.511600  1.0
  H  H37  1  0.961700  0.618500  0.328700  1.0
  H  H38  1  0.038300  0.381500  0.671300  1.0
  H  H39  1  0.065200  0.701700  0.546100  1.0
  H  H40  1  0.934800  0.298300  0.453900  1.0
  H  H41  1  0.882000  0.732000  0.388900  1.0
  H  H42  1  0.118000  0.268000  0.611100  1.0
  H  H43  1  0.171200  0.503900  0.381800  1.0
  H  H44  1  0.828800  0.496100  0.618200  1.0
  H  H45  1  0.140200  0.461700  0.264600  1.0
  H  H46  1  0.859800  0.538300  0.735400  1.0
  H  H47  1  0.119800  0.558500  0.262600  1.0
  H  H48  1  0.880200  0.441500  0.737400  1.0
  H  H49  1  0.045000  0.516300  0.272500  1.0
  H  H50  1  0.955000  0.483700  0.727500  1.0
  H  H51  1  0.130900  0.384400  0.383600  1.0
  H  H52  1  0.869100  0.615600  0.616400  1.0
  H  H53  1  0.035400  0.434200  0.400200  1.0
  H  H54  1  0.964600  0.565800  0.599800  1.0
  H  H55  1  0.105600  0.428100  0.460900  1.0
  H  H56  1  0.894400  0.571900  0.539100  1.0
  H  H57  1  0.872100  0.790900  0.555300  1.0
  H  H58  1  0.127900  0.209100  0.444700  1.0
  H  H59  1  0.878700  0.840300  0.477000  1.0
  H  H60  1  0.121300  0.159700  0.523000  1.0
  H  H61  1  0.950400  0.827000  0.537700  1.0
  H  H62  1  0.049600  0.173000  0.462300  1.0
  H  H63  1  0.323600  0.018200  0.295100  1.0
  H  H64  1  0.676400  0.981800  0.704900  1.0
  H  H65  1  0.337800  0.867600  0.485000  1.0
  H  H66  1  0.662200  0.132400  0.515000  1.0
  H  H67  1  0.415500  0.901700  0.230300  1.0
  H  H68  1  0.584500  0.098300  0.769700  1.0
  H  H69  1  0.420700  0.759500  0.428000  1.0
  H  H70  1  0.579300  0.240500  0.572000  1.0
  H  H71  1  0.302200  0.056000  0.461700  1.0
  H  H72  1  0.697800  0.944000  0.538300  1.0
  H  H73  1  0.239100  0.000800  0.476200  1.0
  H  H74  1  0.760900  0.999200  0.523800  1.0
  H  H75  1  0.233600  0.057700  0.400700  1.0
  H  H76  1  0.766400  0.942300  0.599300  1.0
  H  H77  1  0.455800  0.703300  0.312400  1.0
  H  H78  1  0.544200  0.296700  0.687600  1.0
  H  H79  1  0.423400  0.761100  0.186100  1.0
  H  H80  1  0.576600  0.238900  0.813900  1.0
  H  H81  1  0.514300  0.696700  0.186700  1.0
  H  H82  1  0.485700  0.303300  0.813300  1.0
  H  H83  1  0.506100  0.791900  0.182600  1.0
  H  H84  1  0.493900  0.208100  0.817400  1.0
  H  H85  1  0.585500  0.716000  0.357900  1.0
  H  H86  1  0.414500  0.284000  0.642100  1.0
  H  H87  1  0.600800  0.758500  0.278100  1.0
  H  H88  1  0.399200  0.241500  0.721900  1.0
  H  H89  1  0.597600  0.666100  0.283700  1.0
  H  H90  1  0.402400  0.333900  0.716300  1.0
  H  H91  1  0.280900  0.770400  0.926400  1.0
  H  H92  1  0.719100  0.229600  0.073600  1.0
  H  H93  1  0.261700  0.948400  0.771300  1.0
  H  H94  1  0.738300  0.051600  0.228700  1.0
  H  H95  1  0.345100  0.827400  0.008300  1.0
  H  H96  1  0.654900  0.172600  0.991700  1.0
  H  H97  1  0.326600  0.011900  0.850200  1.0
  H  H98  1  0.673400  0.988100  0.149800  1.0
  H  H99  1  0.448900  0.055800  0.219500  1.0
  H  H100  1  0.551100  0.944200  0.780500  1.0
  H  H101  1  0.409000  0.230800  0.045200  1.0
  H  H102  1  0.591000  0.769200  0.954800  1.0
  H  H103  1  0.464000  0.159000  0.299300  1.0
  H  H104  1  0.536000  0.841000  0.700700  1.0
  H  H105  1  0.424800  0.322100  0.134600  1.0
  H  H106  1  0.575200  0.677900  0.865400  1.0
  H  H107  1  0.083800  0.923200  0.807700  1.0
  H  H108  1  0.916200  0.076800  0.192300  1.0
  H  H109  1  0.149600  0.772300  0.631200  1.0
  H  H110  1  0.850400  0.227700  0.368800  1.0
  H  H111  1  0.094700  0.812300  0.892500  1.0
  H  H112  1  0.905300  0.187700  0.107500  1.0
  H  H113  1  0.164700  0.661300  0.710900  1.0
  H  H114  1  0.835300  0.338700  0.289100  1.0
  H  H115  1  0.119200  0.971600  0.684000  1.0
  H  H116  1  0.880800  0.028400  0.316000  1.0
  H  H117  1  0.135500  0.967200  0.552200  1.0
  H  H118  1  0.864500  0.032800  0.447800  1.0
  H  H119  1  0.119400  0.879400  0.555900  1.0
  H  H120  1  0.880600  0.120600  0.444100  1.0
  H  H121  1  0.202200  0.890900  0.591400  1.0
  H  H122  1  0.797800  0.109100  0.408600  1.0
  H  H123  1  0.975400  0.985900  0.694100  1.0
  H  H124  1  0.024600  0.014100  0.305900  1.0
  H  H125  1  0.980300  0.938500  0.619100  1.0
  H  H126  1  0.019700  0.061500  0.380900  1.0
  H  H127  1  0.999000  0.025100  0.615200  1.0
  H  H128  1  0.001000  0.974900  0.384800  1.0
  H  H129  1  0.695700  0.743100  0.596400  1.0
  H  H130  1  0.304300  0.256900  0.403600  1.0
  H  H131  1  0.520900  0.638600  0.554300  1.0
  H  H132  1  0.479100  0.361400  0.445700  1.0
  H  H133  1  0.505900  0.536300  0.641600  1.0
  H  H134  1  0.494100  0.463700  0.358400  1.0
  H  H135  1  0.712600  0.671800  0.681400  1.0
  H  H136  1  0.287400  0.328200  0.318600  1.0
  H  H137  1  0.690800  0.560400  0.768300  1.0
  H  H138  1  0.309200  0.439600  0.231700  1.0
  H  H139  1  0.626200  0.415300  0.746900  1.0
  H  H140  1  0.373800  0.584700  0.253100  1.0
  H  H141  1  0.531200  0.470300  0.755100  1.0
  H  H142  1  0.468800  0.529700  0.244900  1.0
  H  H143  1  0.600900  0.479800  0.810500  1.0
  H  H144  1  0.399100  0.520200  0.189500  1.0
  H  H145  1  0.080400  0.639000  0.873400  1.0
  H  H146  1  0.919600  0.361000  0.126600  1.0
  H  H147  1  0.153000  0.665800  0.912000  1.0
  H  H148  1  0.847000  0.334200  0.088000  1.0
  H  H149  1  0.175400  0.608200  0.842800  1.0
  H  H150  1  0.824600  0.391800  0.157200  1.0
  H  H151  1  0.556400  0.827900  0.578000  1.0
  H  H152  1  0.443600  0.172100  0.422000  1.0
  H  H153  1  0.553300  0.788100  0.500000  1.0
  H  H154  1  0.446700  0.211900  0.500000  1.0
  H  H155  1  0.616700  0.841800  0.509100  1.0
  H  H156  1  0.383300  0.158200  0.490900  1.0
  H  H157  1  0.733100  0.721700  0.469400  1.0
  H  H158  1  0.266900  0.278300  0.530600  1.0
  H  H159  1  0.674900  0.661500  0.469600  1.0
  H  H160  1  0.325100  0.338500  0.530400  1.0
  H  H161  1  0.755700  0.639300  0.521300  1.0
  H  H162  1  0.244300  0.360700  0.478700  1.0
  Ru  Ru163  1  0.054880  0.708620  0.391220  1.0
  Ru  Ru164  1  0.945120  0.291380  0.608780  1.0
  Ru  Ru165  1  0.301530  0.863090  0.336270  1.0
  Ru  Ru166  1  0.698470  0.136910  0.663730  1.0
  Ru  Ru167  1  0.210700  0.788920  0.771180  1.0
  Ru  Ru168  1  0.789300  0.211080  0.228820  1.0
  Ru  Ru169  1  0.545130  0.666750  0.701120  1.0
  Ru  Ru170  1  0.454870  0.333250  0.298880  1.0
  C  C171  1  0.296000  0.584400  0.019800  1
  C  C172  1  0.704000  0.415600  0.980200  1
  C  C173  1  0.654100  0.429700  0.501400  1
  C  C174  1  0.345900  0.570300  0.498600  1
  C  C175  1  0.098600  0.244700  0.251800  1
  C  C176  1  0.901400  0.755300  0.748200  1
  C  C177  1  0.617300  0.968500  0.358300  1
  C  C178  1  0.382700  0.031500  0.641700  1
  C  C179  1  0.198000  0.165000  0.030600  1
  C  C180  1  0.802000  0.835000  0.969400  1
  C  C181  1  0.356000  0.486600  0.785000  1
  C  C182  1  0.644000  0.513400  0.215000  1
  C  C183  1  0.844000  0.533000  0.269000  1
  C  C184  1  0.156000  0.467000  0.731000  1
  C  C185  1  0.061200  0.745400  0.222200  1.0
  C  C186  1  0.938800  0.254600  0.777800  1.0
  C  C187  1  0.954800  0.839200  0.282800  1.0
  C  C188  1  0.045200  0.160800  0.717200  1.0
  C  C189  1  0.039500  0.786500  0.153200  1.0
  C  C190  1  0.960500  0.213500  0.846800  1.0
  C  C191  1  0.931900  0.882500  0.218200  1.0
  C  C192  1  0.068100  0.117500  0.781800  1.0
  C  C193  1  0.972100  0.860100  0.150400  1.0
  C  C194  1  0.027900  0.139900  0.849600  1.0
  C  C195  1  0.949400  0.906300  0.080200  1.0
  C  C196  1  0.050600  0.093700  0.919800  1.0
  C  C197  1  0.894500  0.988500  0.956800  1.0
  C  C198  1  0.105500  0.011500  0.043200  1.0
  C  C199  1  0.855700  0.028000  0.891000  1.0
  C  C200  1  0.144300  0.972000  0.109000  1.0
  C  C201  1  0.807400  0.109400  0.884200  1.0
  C  C202  1  0.192600  0.890600  0.115800  1.0
  C  C203  1  0.860500  0.982300  0.826400  1.0
  C  C204  1  0.139500  0.017700  0.173600  1.0
  C  C205  1  0.767800  0.142800  0.820000  1.0
  C  C206  1  0.232200  0.857200  0.180000  1.0
  C  C207  1  0.818500  0.017000  0.765400  1.0
  C  C208  1  0.181500  0.983000  0.234600  1.0
  C  C209  1  0.057100  0.582200  0.406600  1.0
  C  C210  1  0.942900  0.417800  0.593400  1.0
  C  C211  1  0.087100  0.607800  0.474100  1.0
  C  C212  1  0.912900  0.392200  0.525900  1.0
  C  C213  1  0.978000  0.627500  0.380100  1.0
  C  C214  1  0.022000  0.372500  0.619900  1.0
  C  C215  1  0.037500  0.677200  0.508900  1.0
  C  C216  1  0.962500  0.322800  0.491100  1.0
  C  C217  1  0.929900  0.694300  0.416800  1.0
  C  C218  1  0.070100  0.305700  0.583200  1.0
  C  C219  1  0.958500  0.724600  0.481300  1.0
  C  C220  1  0.041500  0.275400  0.518700  1.0
  C  C221  1  0.111500  0.507100  0.371500  1.0
  C  C222  1  0.888500  0.492900  0.628500  1.0
  C  C223  1  0.103400  0.511300  0.284800  1.0
  C  C224  1  0.896600  0.488700  0.715200  1.0
  C  C225  1  0.094400  0.432000  0.407100  1.0
  C  C226  1  0.905600  0.568000  0.592900  1.0
  C  C227  1  0.910700  0.802500  0.515800  1.0
  C  C228  1  0.089300  0.197500  0.484200  1.0
  C  C229  1  0.332100  0.956700  0.400300  1.0
  C  C230  1  0.667900  0.043300  0.599700  1.0
  C  C231  1  0.353600  0.967800  0.325000  1.0
  C  C232  1  0.646400  0.032200  0.675000  1.0
  C  C233  1  0.364400  0.878600  0.435600  1.0
  C  C234  1  0.635600  0.121400  0.564400  1.0
  C  C235  1  0.409300  0.897500  0.286300  1.0
  C  C236  1  0.590700  0.102500  0.713700  1.0
  C  C237  1  0.411700  0.814500  0.401800  1.0
  C  C238  1  0.588300  0.185500  0.598200  1.0
  C  C239  1  0.433900  0.819800  0.324300  1.0
  C  C240  1  0.566100  0.180200  0.675700  1.0
  C  C241  1  0.271700  0.023400  0.437900  1.0
  C  C242  1  0.728300  0.976600  0.562100  1.0
  C  C243  1  0.208900  0.743300  0.348900  1.0
  C  C244  1  0.791100  0.256700  0.651100  1.0
  C  C245  1  0.156500  0.817200  0.390300  1.0
  C  C246  1  0.843500  0.182800  0.609700  1.0
  C  C247  1  0.480200  0.747800  0.292500  1.0
  C  C248  1  0.519800  0.252200  0.707500  1.0
  C  C249  1  0.481100  0.749500  0.203500  1.0
  C  C250  1  0.518900  0.250500  0.796500  1.0
  C  C251  1  0.574400  0.719600  0.304100  1.0
  C  C252  1  0.425600  0.280400  0.695900  1.0
  C  C253  1  0.290900  0.820700  0.910200  1.0
  C  C254  1  0.709100  0.179300  0.089800  1.0
  C  C255  1  0.279200  0.924000  0.819400  1.0
  C  C256  1  0.720800  0.076000  0.180600  1.0
  C  C257  1  0.328100  0.854100  0.960800  1.0
  C  C258  1  0.671900  0.145900  0.039200  1.0
  C  C259  1  0.316800  0.961900  0.867800  1.0
  C  C260  1  0.683200  0.038100  0.132200  1.0
  C  C261  1  0.340700  0.933300  0.938600  1.0
  C  C262  1  0.659300  0.066700  0.061400  1.0
  C  C263  1  0.372800  0.977600  0.990600  1.0
  C  C264  1  0.627200  0.022400  0.009400  1.0
  C  C265  1  0.411300  0.077500  0.076800  1.0
  C  C266  1  0.588700  0.922500  0.923200  1.0
  C  C267  1  0.424700  0.134300  0.127100  1.0
  C  C268  1  0.575300  0.865700  0.872900  1.0
  C  C269  1  0.442500  0.110100  0.200500  1.0
  C  C270  1  0.557500  0.889900  0.799500  1.0
  C  C271  1  0.418700  0.214400  0.096700  1.0
  C  C272  1  0.581300  0.785600  0.903300  1.0
  C  C273  1  0.451200  0.173200  0.247900  1.0
  C  C274  1  0.548800  0.826800  0.752100  1.0
  C  C275  1  0.428600  0.267600  0.151400  1.0
  C  C276  1  0.571400  0.732400  0.848600  1.0
  C  C277  1  0.375300  0.759400  0.702700  1.0
  C  C278  1  0.624700  0.240600  0.297300  1.0
  C  C279  1  0.381700  0.692200  0.764800  1.0
  C  C280  1  0.618300  0.307800  0.235200  1.0
  C  C281  1  0.102000  0.860900  0.708300  1.0
  C  C282  1  0.898000  0.139100  0.291700  1.0
  C  C283  1  0.088700  0.869200  0.787500  1.0
  C  C284  1  0.911300  0.130800  0.212500  1.0
  C  C285  1  0.125800  0.780500  0.683500  1.0
  C  C286  1  0.874200  0.219500  0.316500  1.0
  C  C287  1  0.093700  0.803900  0.837700  1.0
  C  C288  1  0.906300  0.196100  0.162300  1.0
  C  C289  1  0.135100  0.715700  0.729900  1.0
  C  C290  1  0.864900  0.284300  0.270100  1.0
  C  C291  1  0.119600  0.722600  0.813900  1.0
  C  C292  1  0.880400  0.277400  0.186100  1.0
  C  C293  1  0.095300  0.933600  0.658000  1.0
  C  C294  1  0.904700  0.066400  0.342000  1.0
  C  C295  1  0.142300  0.916200  0.582600  1.0
  C  C296  1  0.857700  0.083800  0.417400  1.0
  C  C297  1  0.004800  0.974200  0.645600  1.0
  C  C298  1  0.995200  0.025800  0.354400  1.0
  C  C299  1  0.658000  0.726500  0.562200  1.0
  C  C300  1  0.342000  0.273500  0.437800  1.0
  C  C301  1  0.624600  0.660600  0.604100  1.0
  C  C302  1  0.375400  0.339400  0.395900  1.0
  C  C303  1  0.564500  0.617300  0.593300  1.0
  C  C304  1  0.435500  0.382700  0.406700  1.0
  C  C305  1  0.556200  0.557400  0.643700  1.0
  C  C306  1  0.443800  0.442600  0.356300  1.0
  C  C307  1  0.676200  0.637800  0.667100  1.0
  C  C308  1  0.323800  0.362200  0.332900  1.0
  C  C309  1  0.610000  0.532600  0.705100  1.0
  C  C310  1  0.390000  0.467400  0.294900  1.0
  C  C311  1  0.665000  0.569200  0.717600  1.0
  C  C312  1  0.335000  0.430800  0.282400  1.0
  C  C313  1  0.590400  0.468900  0.759100  1.0
  C  C314  1  0.409600  0.531100  0.240900  1.0
  C  C315  1  0.133100  0.653700  0.864400  1.0
  C  C316  1  0.866900  0.346300  0.135600  1.0
  C  C317  1  0.589900  0.803000  0.534900  1.0
  C  C318  1  0.410100  0.197000  0.465100  1.0
  C  C319  1  0.710000  0.683700  0.500400  1.0
  C  C320  1  0.290000  0.316300  0.499600  1.0
  S  S321  1  0.253500  0.657100  0.077700  1
  S  S322  1  0.746500  0.342900  0.922300  1
  S  S323  1  0.700000  0.346700  0.442860  1
  S  S324  1  0.300000  0.653300  0.557140  1
  S  S325  1  0.212200  0.217000  0.252900  1
  S  S326  1  0.787800  0.783000  0.747100  1
  S  S327  1  0.722700  0.900300  0.334300  1
  S  S328  1  0.277300  0.099700  0.665700  1
  N  N329  1  0.021900  0.769900  0.287800  1.0
  N  N330  1  0.978100  0.230100  0.712200  1.0
  N  N331  1  0.903900  0.985900  0.085100  1.0
  N  N332  1  0.096100  0.014100  0.914900  1.0
  N  N333  1  0.981700  0.873700  0.018000  1.0
  N  N334  1  0.018300  0.126300  0.982000  1.0
  N  N335  1  0.876300  0.025200  0.022400  1.0
  N  N336  1  0.123700  0.974800  0.977600  1.0
  N  N337  1  0.953300  0.916600  0.952700  1.0
  N  N338  1  0.046700  0.083400  0.047300  1.0
  N  N339  1  0.768200  0.099200  0.760100  1.0
  N  N340  1  0.231800  0.900800  0.239900  1.0
  N  N341  1  0.267400  0.847700  0.843600  1.0
  N  N342  1  0.732600  0.152300  0.156400  1.0
  N  N343  1  0.373400  0.958900  0.061000  1.0
  N  N344  1  0.626600  0.041100  0.939000  1.0
  N  N345  1  0.402000  0.040300  0.957800  1.0
  N  N346  1  0.598000  0.959700  0.042200  1.0
  N  N347  1  0.394500  0.007000  0.108600  1.0
  N  N348  1  0.605500  0.993000  0.891400  1.0
  N  N349  1  0.420800  0.090700  0.001500  1.0
  N  N350  1  0.579200  0.909300  0.998500  1.0
  N  N351  1  0.442300  0.247800  0.223000  1.0
  N  N352  1  0.557700  0.752200  0.777000  1.0
  O  O353  1  0.195700  0.714500  0.027700  1
  O  O354  1  0.804300  0.285500  0.972300  1
  O  O355  1  0.325400  0.688300  0.107100  1
  O  O356  1  0.674600  0.311700  0.892900  1
  O  O357  1  0.226100  0.629400  0.147600  1
  O  O358  1  0.773900  0.370600  0.852400  1
  O  O359  1  0.671400  0.365500  0.369200  1
  O  O360  1  0.328600  0.634500  0.630800  1
  O  O361  1  0.630500  0.284300  0.472500  1
  O  O362  1  0.369500  0.715700  0.527500  1
  O  O363  1  0.773700  0.299400  0.471200  1
  O  O364  1  0.226300  0.700600  0.528800  1
  O  O365  1  0.222200  0.216900  0.339900  1
  O  O366  1  0.777800  0.783100  0.660100  1
  O  O367  1  0.235100  0.281900  0.214700  1
  O  O368  1  0.764900  0.718100  0.785300  1
  O  O369  1  0.240600  0.145900  0.219300  1
  O  O370  1  0.759400  0.854100  0.780700  1
  O  O371  1  0.720000  0.877100  0.259000  1
  O  O372  1  0.280000  0.122900  0.741000  1
  O  O373  1  0.749000  0.838000  0.387000  1
  O  O374  1  0.251000  0.162000  0.613000  1
  O  O375  1  0.771900  0.957300  0.333600  1
  O  O376  1  0.228100  0.042700  0.666400  1
  O  O377  1  0.215500  0.107200  0.992100  1
  O  O378  1  0.784500  0.892800  0.007900  1
  O  O379  1  0.314000  0.438100  0.833500  1
  O  O380  1  0.686000  0.561900  0.166500  1
  O  O381  1  0.805700  0.549000  0.350400  1
  O  O382  1  0.194300  0.451000  0.649600  1
  O  O383  1  0.784800  0.798000  0.154400  1
  O  O384  1  0.215200  0.202000  0.845600  1
  O  O385  1  0.015000  0.616000  0.058000  1
  O  O386  1  0.985000  0.384000  0.942000  1
  O  O387  1  0.383000  0.359300  0.951100  1
  O  O388  1  0.617000  0.640700  0.048900  1
  O  O389  1  0.644400  0.358300  0.387600  1
  O  O390  1  0.355600  0.641700  0.612400  1
  O  O391  1  0.734800  0.283000  0.485600  1
  O  O392  1  0.265200  0.717000  0.514400  1
  O  O393  1  0.779500  0.379800  0.410500  1
  O  O394  1  0.220500  0.620200  0.589500  1
  O  O395  1  0.750600  0.900000  0.264900  1
  O  O396  1  0.249400  0.100000  0.735100  1
  O  O397  1  0.741000  0.885000  0.399600  1
  O  O398  1  0.259000  0.115000  0.600400  1
  O  O399  1  0.730000  0.823000  0.361000  1
  O  O400  1  0.270000  0.177000  0.639000  1
  O  O401  1  0.903300  0.625000  0.211100  1
  O  O402  1  0.096700  0.375000  0.788900  1
  O  O403  1  0.179000  0.685400  0.346300  1.0
  O  O404  1  0.821000  0.314600  0.653700  1.0
  O  O405  1  0.085100  0.815400  0.414600  1.0
  O  O406  1  0.914900  0.184600  0.585400  1.0
  O  O407  1  0.279300  0.747700  0.322300  1.0
  O  O408  1  0.720700  0.252300  0.677700  1.0
  O  O409  1  0.185200  0.878400  0.391800  1.0
  O  O410  1  0.814800  0.121600  0.608200  1.0
  O  O411  1  0.302400  0.810400  0.693700  1.0
  O  O412  1  0.697600  0.189600  0.306300  1.0
  O  O413  1  0.314500  0.691400  0.800400  1.0
  O  O414  1  0.685500  0.308600  0.199600  1.0
  O  O415  1  0.441400  0.761300  0.668000  1.0
  O  O416  1  0.558600  0.238700  0.332000  1.0
  O  O417  1  0.452100  0.645900  0.777200  1.0
  O  O418  1  0.547900  0.354100  0.222800  1.0
  F  F419  1  0.345600  0.598800  0.963800  1
  F  F420  1  0.654400  0.401200  0.036200  1
  F  F421  1  0.250500  0.535300  0.000900  1
  F  F422  1  0.749500  0.464700  0.999100  1
  F  F423  1  0.366700  0.516900  0.068400  1
  F  F424  1  0.633300  0.483100  0.931600  1
  F  F425  1  0.589600  0.414400  0.537000  1
  F  F426  1  0.410400  0.585600  0.463000  1
  F  F427  1  0.623400  0.503800  0.456300  1
  F  F428  1  0.376600  0.496200  0.543700  1
  F  F429  1  0.702200  0.445000  0.552800  1
  F  F430  1  0.297800  0.555000  0.447200  1
  F  F431  1  0.060200  0.312300  0.278300  1
  F  F432  1  0.939800  0.687700  0.721700  1
  F  F433  1  0.072700  0.180700  0.282800  1
  F  F434  1  0.927300  0.819300  0.717200  1
  F  F435  1  0.072700  0.253700  0.177200  1
  F  F436  1  0.927300  0.746300  0.822800  1
  F  F437  1  0.589000  0.021600  0.304600  1
  F  F438  1  0.411000  0.978400  0.695400  1
  F  F439  1  0.566800  0.918400  0.367300  1
  F  F440  1  0.433200  0.081600  0.632700  1
  F  F441  1  0.617800  0.000800  0.415900  1
  F  F442  1  0.382200  0.999200  0.584100  1
  F  F443  1  0.575900  0.467800  0.488900  1
  F  F444  1  0.424100  0.532200  0.511100  1
  F  F445  1  0.702400  0.474400  0.501200  1
  F  F446  1  0.297600  0.525600  0.498800  1
  F  F447  1  0.656200  0.401000  0.575500  1
  F  F448  1  0.343800  0.599000  0.424500  1
