# generated using pymatgen
data_In8H156C92(N12O23)5
_symmetry_space_group_name_H-M   'P 1'
_cell_length_a   18.47175044
_cell_length_b   18.47175044
_cell_length_c   18.47175044
_cell_angle_alpha   60.00000000
_cell_angle_beta   60.00000000
_cell_angle_gamma   60.00000000
_symmetry_Int_Tables_number   1
_chemical_formula_structural   In8H156C92(N12O23)5
_chemical_formula_sum   'In8 H156 C92 N60 O115'
_cell_volume   4456.65648072
_cell_formula_units_Z   1
loop_
 _symmetry_equiv_pos_site_id
 _symmetry_equiv_pos_as_xyz
  1  'x, y, z'
loop_
 _atom_site_type_symbol
 _atom_site_label
 _atom_site_symmetry_multiplicity
 _atom_site_fract_x
 _atom_site_fract_y
 _atom_site_fract_z
 _atom_site_occupancy
  C  C1  1  0.319500  0.319500  0.041500  1
  C  C2  1  0.319500  0.041500  0.319500  1
  C  C3  1  0.041500  0.319500  0.319500  1
  C  C4  1  0.319500  0.319500  0.319500  1
  C  C5  1  0.680500  0.680500  0.958500  1
  C  C6  1  0.680500  0.958500  0.680500  1
  C  C7  1  0.958500  0.680500  0.680500  1
  C  C8  1  0.680500  0.680500  0.680500  1
  C  C9  1  0.410800  0.272200  0.807800  1.0
  C  C10  1  0.509200  0.807800  0.272200  1.0
  C  C11  1  0.807800  0.509200  0.410800  1.0
  C  C12  1  0.272200  0.410800  0.509200  1.0
  C  C13  1  0.272200  0.807800  0.410800  1.0
  C  C14  1  0.807800  0.272200  0.509200  1.0
  C  C15  1  0.509200  0.410800  0.807800  1.0
  C  C16  1  0.410800  0.509200  0.272200  1.0
  C  C17  1  0.807800  0.410800  0.272200  1.0
  C  C18  1  0.272200  0.509200  0.807800  1.0
  C  C19  1  0.410800  0.807800  0.509200  1.0
  C  C20  1  0.509200  0.272200  0.410800  1.0
  C  C21  1  0.589200  0.727800  0.192200  1.0
  C  C22  1  0.490800  0.192200  0.727800  1.0
  C  C23  1  0.192200  0.490800  0.589200  1.0
  C  C24  1  0.727800  0.589200  0.490800  1.0
  C  C25  1  0.727800  0.192200  0.589200  1.0
  C  C26  1  0.192200  0.727800  0.490800  1.0
  C  C27  1  0.490800  0.589200  0.192200  1.0
  C  C28  1  0.589200  0.490800  0.727800  1.0
  C  C29  1  0.192200  0.589200  0.727800  1.0
  C  C30  1  0.727800  0.490800  0.192200  1.0
  C  C31  1  0.589200  0.192200  0.490800  1.0
  C  C32  1  0.490800  0.727800  0.589200  1.0
  C  C33  1  0.774200  0.985200  0.014800  1.0
  C  C34  1  0.225800  0.014800  0.985200  1.0
  C  C35  1  0.014800  0.225800  0.774200  1.0
  C  C36  1  0.985200  0.774200  0.225800  1.0
  C  C37  1  0.985200  0.014800  0.774200  1.0
  C  C38  1  0.014800  0.985200  0.225800  1.0
  C  C39  1  0.225800  0.774200  0.014800  1.0
  C  C40  1  0.774200  0.225800  0.985200  1.0
  C  C41  1  0.014800  0.774200  0.985200  1.0
  C  C42  1  0.985200  0.225800  0.014800  1.0
  C  C43  1  0.774200  0.014800  0.225800  1.0
  C  C44  1  0.225800  0.985200  0.774200  1.0
  C  C45  1  0.652100  0.068100  0.984700  1.0
  C  C46  1  0.295100  0.984700  0.068100  1.0
  C  C47  1  0.984700  0.295100  0.652100  1.0
  C  C48  1  0.068100  0.652100  0.295100  1.0
  C  C49  1  0.068100  0.984700  0.652100  1.0
  C  C50  1  0.984700  0.068100  0.295100  1.0
  C  C51  1  0.295100  0.652100  0.984700  1.0
  C  C52  1  0.652100  0.295100  0.068100  1.0
  C  C53  1  0.984700  0.652100  0.068100  1.0
  C  C54  1  0.068100  0.295100  0.984700  1.0
  C  C55  1  0.652100  0.984700  0.295100  1.0
  C  C56  1  0.295100  0.068100  0.652100  1.0
  C  C57  1  0.347900  0.931900  0.015300  1.0
  C  C58  1  0.704900  0.015300  0.931900  1.0
  C  C59  1  0.015300  0.704900  0.347900  1.0
  C  C60  1  0.931900  0.347900  0.704900  1.0
  C  C61  1  0.931900  0.015300  0.347900  1.0
  C  C62  1  0.015300  0.931900  0.704900  1.0
  C  C63  1  0.704900  0.347900  0.015300  1.0
  C  C64  1  0.347900  0.704900  0.931900  1.0
  C  C65  1  0.015300  0.347900  0.931900  1.0
  C  C66  1  0.931900  0.704900  0.015300  1.0
  C  C67  1  0.347900  0.015300  0.704900  1.0
  C  C68  1  0.704900  0.931900  0.347900  1.0
  C  C69  1  0.562000  0.134200  0.998800  1.0
  C  C70  1  0.305000  0.998800  0.134200  1.0
  C  C71  1  0.998800  0.305000  0.562000  1.0
  C  C72  1  0.134200  0.562000  0.305000  1.0
  C  C73  1  0.134200  0.998800  0.562000  1.0
  C  C74  1  0.998800  0.134200  0.305000  1.0
  C  C75  1  0.305000  0.562000  0.998800  1.0
  C  C76  1  0.562000  0.305000  0.134200  1.0
  C  C77  1  0.998800  0.562000  0.134200  1.0
  C  C78  1  0.134200  0.305000  0.998800  1.0
  C  C79  1  0.562000  0.998800  0.305000  1.0
  C  C80  1  0.305000  0.134200  0.562000  1.0
  C  C81  1  0.438000  0.865800  0.001200  1.0
  C  C82  1  0.695000  0.001200  0.865800  1.0
  C  C83  1  0.001200  0.695000  0.438000  1.0
  C  C84  1  0.865800  0.438000  0.695000  1.0
  C  C85  1  0.865800  0.001200  0.438000  1.0
  C  C86  1  0.001200  0.865800  0.695000  1.0
  C  C87  1  0.695000  0.438000  0.001200  1.0
  C  C88  1  0.438000  0.695000  0.865800  1.0
  C  C89  1  0.001200  0.438000  0.865800  1.0
  C  C90  1  0.865800  0.695000  0.001200  1.0
  C  C91  1  0.438000  0.001200  0.695000  1.0
  C  C92  1  0.695000  0.865800  0.438000  1.0
  H  H93  1  0.514400  0.166000  0.834000  1
  H  H94  1  0.485600  0.834000  0.166000  1
  H  H95  1  0.834000  0.485600  0.514400  1
  H  H96  1  0.166000  0.514400  0.485600  1
  H  H97  1  0.166000  0.834000  0.514400  1
  H  H98  1  0.834000  0.166000  0.485600  1
  H  H99  1  0.485600  0.514400  0.834000  1
  H  H100  1  0.514400  0.485600  0.166000  1
  H  H101  1  0.834000  0.514400  0.166000  1
  H  H102  1  0.166000  0.485600  0.834000  1
  H  H103  1  0.514400  0.834000  0.485600  1
  H  H104  1  0.485600  0.166000  0.514400  1
  H  H105  1  0.436300  0.141500  0.858500  1
  H  H106  1  0.563700  0.858500  0.141500  1
  H  H107  1  0.858500  0.563700  0.436300  1
  H  H108  1  0.141500  0.436300  0.563700  1
  H  H109  1  0.141500  0.858500  0.436300  1
  H  H110  1  0.858500  0.141500  0.563700  1
  H  H111  1  0.563700  0.436300  0.858500  1
  H  H112  1  0.436300  0.563700  0.141500  1
  H  H113  1  0.858500  0.436300  0.141500  1
  H  H114  1  0.141500  0.563700  0.858500  1
  H  H115  1  0.436300  0.858500  0.563700  1
  H  H116  1  0.563700  0.141500  0.436300  1
  H  H117  1  0.384600  0.282600  0.864200  1.0
  H  H118  1  0.468600  0.864200  0.282600  1.0
  H  H119  1  0.864200  0.468600  0.384600  1.0
  H  H120  1  0.282600  0.384600  0.468600  1.0
  H  H121  1  0.282600  0.864200  0.384600  1.0
  H  H122  1  0.864200  0.282600  0.468600  1.0
  H  H123  1  0.468600  0.384600  0.864200  1.0
  H  H124  1  0.384600  0.468600  0.282600  1.0
  H  H125  1  0.864200  0.384600  0.282600  1.0
  H  H126  1  0.282600  0.468600  0.864200  1.0
  H  H127  1  0.384600  0.864200  0.468600  1.0
  H  H128  1  0.468600  0.282600  0.384600  1.0
  H  H129  1  0.615400  0.717400  0.135800  1.0
  H  H130  1  0.531400  0.135800  0.717400  1.0
  H  H131  1  0.135800  0.531400  0.615400  1.0
  H  H132  1  0.717400  0.615400  0.531400  1.0
  H  H133  1  0.717400  0.135800  0.615400  1.0
  H  H134  1  0.135800  0.717400  0.531400  1.0
  H  H135  1  0.531400  0.615400  0.135800  1.0
  H  H136  1  0.615400  0.531400  0.717400  1.0
  H  H137  1  0.135800  0.615400  0.717400  1.0
  H  H138  1  0.717400  0.531400  0.135800  1.0
  H  H139  1  0.615400  0.135800  0.531400  1.0
  H  H140  1  0.531400  0.717400  0.615400  1.0
  H  H141  1  0.363400  0.285000  0.788800  1.0
  H  H142  1  0.562800  0.788800  0.285000  1.0
  H  H143  1  0.788800  0.562800  0.363400  1.0
  H  H144  1  0.285000  0.363400  0.562800  1.0
  H  H145  1  0.285000  0.788800  0.363400  1.0
  H  H146  1  0.788800  0.285000  0.562800  1.0
  H  H147  1  0.562800  0.363400  0.788800  1.0
  H  H148  1  0.363400  0.562800  0.285000  1.0
  H  H149  1  0.788800  0.363400  0.285000  1.0
  H  H150  1  0.285000  0.562800  0.788800  1.0
  H  H151  1  0.363400  0.788800  0.562800  1.0
  H  H152  1  0.562800  0.285000  0.363400  1.0
  H  H153  1  0.636600  0.715000  0.211200  1.0
  H  H154  1  0.437200  0.211200  0.715000  1.0
  H  H155  1  0.211200  0.437200  0.636600  1.0
  H  H156  1  0.715000  0.636600  0.437200  1.0
  H  H157  1  0.715000  0.211200  0.636600  1.0
  H  H158  1  0.211200  0.715000  0.437200  1.0
  H  H159  1  0.437200  0.636600  0.211200  1.0
  H  H160  1  0.636600  0.437200  0.715000  1.0
  H  H161  1  0.211200  0.636600  0.715000  1.0
  H  H162  1  0.715000  0.437200  0.211200  1.0
  H  H163  1  0.636600  0.211200  0.437200  1.0
  H  H164  1  0.437200  0.715000  0.636600  1.0
  H  H165  1  0.446200  0.310800  0.762800  1.0
  H  H166  1  0.480200  0.762800  0.310800  1.0
  H  H167  1  0.762800  0.480200  0.446200  1.0
  H  H168  1  0.310800  0.446200  0.480200  1.0
  H  H169  1  0.310800  0.762800  0.446200  1.0
  H  H170  1  0.762800  0.310800  0.480200  1.0
  H  H171  1  0.480200  0.446200  0.762800  1.0
  H  H172  1  0.446200  0.480200  0.310800  1.0
  H  H173  1  0.762800  0.446200  0.310800  1.0
  H  H174  1  0.310800  0.480200  0.762800  1.0
  H  H175  1  0.446200  0.762800  0.480200  1.0
  H  H176  1  0.480200  0.310800  0.446200  1.0
  H  H177  1  0.553800  0.689200  0.237200  1.0
  H  H178  1  0.519800  0.237200  0.689200  1.0
  H  H179  1  0.237200  0.519800  0.553800  1.0
  H  H180  1  0.689200  0.553800  0.519800  1.0
  H  H181  1  0.689200  0.237200  0.553800  1.0
  H  H182  1  0.237200  0.689200  0.519800  1.0
  H  H183  1  0.519800  0.553800  0.237200  1.0
  H  H184  1  0.553800  0.519800  0.689200  1.0
  H  H185  1  0.237200  0.553800  0.689200  1.0
  H  H186  1  0.689200  0.519800  0.237200  1.0
  H  H187  1  0.553800  0.237200  0.519800  1.0
  H  H188  1  0.519800  0.689200  0.553800  1.0
  H  H189  1  0.431900  0.282700  0.049700  1.0
  H  H190  1  0.235700  0.049700  0.282700  1.0
  H  H191  1  0.049700  0.235700  0.431900  1.0
  H  H192  1  0.282700  0.431900  0.235700  1.0
  H  H193  1  0.282700  0.049700  0.431900  1.0
  H  H194  1  0.049700  0.282700  0.235700  1.0
  H  H195  1  0.235700  0.431900  0.049700  1.0
  H  H196  1  0.431900  0.235700  0.282700  1.0
  H  H197  1  0.049700  0.431900  0.282700  1.0
  H  H198  1  0.282700  0.235700  0.049700  1.0
  H  H199  1  0.431900  0.049700  0.235700  1.0
  H  H200  1  0.235700  0.282700  0.431900  1.0
  H  H201  1  0.568100  0.717300  0.950300  1.0
  H  H202  1  0.764300  0.950300  0.717300  1.0
  H  H203  1  0.950300  0.764300  0.568100  1.0
  H  H204  1  0.717300  0.568100  0.764300  1.0
  H  H205  1  0.717300  0.950300  0.568100  1.0
  H  H206  1  0.950300  0.717300  0.764300  1.0
  H  H207  1  0.764300  0.568100  0.950300  1.0
  H  H208  1  0.568100  0.764300  0.717300  1.0
  H  H209  1  0.950300  0.568100  0.717300  1.0
  H  H210  1  0.717300  0.764300  0.950300  1.0
  H  H211  1  0.568100  0.950300  0.764300  1.0
  H  H212  1  0.764300  0.717300  0.568100  1.0
  H  H213  1  0.377500  0.379300  0.042700  1.0
  H  H214  1  0.200500  0.042700  0.379300  1.0
  H  H215  1  0.042700  0.200500  0.377500  1.0
  H  H216  1  0.379300  0.377500  0.200500  1.0
  H  H217  1  0.379300  0.042700  0.377500  1.0
  H  H218  1  0.042700  0.379300  0.200500  1.0
  H  H219  1  0.200500  0.377500  0.042700  1.0
  H  H220  1  0.377500  0.200500  0.379300  1.0
  H  H221  1  0.042700  0.377500  0.379300  1.0
  H  H222  1  0.379300  0.200500  0.042700  1.0
  H  H223  1  0.377500  0.042700  0.200500  1.0
  H  H224  1  0.200500  0.379300  0.377500  1.0
  H  H225  1  0.622500  0.620700  0.957300  1.0
  H  H226  1  0.799500  0.957300  0.620700  1.0
  H  H227  1  0.957300  0.799500  0.622500  1.0
  H  H228  1  0.620700  0.622500  0.799500  1.0
  H  H229  1  0.620700  0.957300  0.622500  1.0
  H  H230  1  0.957300  0.620700  0.799500  1.0
  H  H231  1  0.799500  0.622500  0.957300  1.0
  H  H232  1  0.622500  0.799500  0.620700  1.0
  H  H233  1  0.957300  0.622500  0.620700  1.0
  H  H234  1  0.620700  0.799500  0.957300  1.0
  H  H235  1  0.622500  0.957300  0.799500  1.0
  H  H236  1  0.799500  0.620700  0.622500  1.0
  H  H237  1  0.818500  0.959100  0.040900  1.0
  H  H238  1  0.181500  0.040900  0.959100  1.0
  H  H239  1  0.040900  0.181500  0.818500  1.0
  H  H240  1  0.959100  0.818500  0.181500  1.0
  H  H241  1  0.959100  0.040900  0.818500  1.0
  H  H242  1  0.040900  0.959100  0.181500  1.0
  H  H243  1  0.181500  0.818500  0.040900  1.0
  H  H244  1  0.818500  0.181500  0.959100  1.0
  H  H245  1  0.040900  0.818500  0.959100  1.0
  H  H246  1  0.959100  0.181500  0.040900  1.0
  H  H247  1  0.818500  0.040900  0.181500  1.0
  H  H248  1  0.181500  0.959100  0.818500  1.0
  In  In249  1  0.623620  0.125460  0.125460  1.0
  In  In250  1  0.125460  0.125460  0.125460  1.0
  In  In251  1  0.125460  0.125460  0.623620  1.0
  In  In252  1  0.125460  0.623620  0.125460  1.0
  In  In253  1  0.376380  0.874540  0.874540  1.0
  In  In254  1  0.874540  0.874540  0.874540  1.0
  In  In255  1  0.874540  0.874540  0.376380  1.0
  In  In256  1  0.874540  0.376380  0.874540  1.0
  N  N257  1  0.466800  0.180800  0.819200  1
  N  N258  1  0.533200  0.819200  0.180800  1
  N  N259  1  0.819200  0.533200  0.466800  1
  N  N260  1  0.180800  0.466800  0.533200  1
  N  N261  1  0.180800  0.819200  0.466800  1
  N  N262  1  0.819200  0.180800  0.533200  1
  N  N263  1  0.533200  0.466800  0.819200  1
  N  N264  1  0.466800  0.533200  0.180800  1
  N  N265  1  0.819200  0.466800  0.180800  1
  N  N266  1  0.180800  0.533200  0.819200  1
  N  N267  1  0.466800  0.819200  0.533200  1
  N  N268  1  0.533200  0.180800  0.466800  1
  N  N269  1  0.383100  0.328100  0.045100  1.0
  N  N270  1  0.243700  0.045100  0.328100  1.0
  N  N271  1  0.045100  0.243700  0.383100  1.0
  N  N272  1  0.328100  0.383100  0.243700  1.0
  N  N273  1  0.328100  0.045100  0.383100  1.0
  N  N274  1  0.045100  0.328100  0.243700  1.0
  N  N275  1  0.243700  0.383100  0.045100  1.0
  N  N276  1  0.383100  0.243700  0.328100  1.0
  N  N277  1  0.045100  0.383100  0.328100  1.0
  N  N278  1  0.328100  0.243700  0.045100  1.0
  N  N279  1  0.383100  0.045100  0.243700  1.0
  N  N280  1  0.243700  0.328100  0.383100  1.0
  N  N281  1  0.616900  0.671900  0.954900  1.0
  N  N282  1  0.756300  0.954900  0.671900  1.0
  N  N283  1  0.954900  0.756300  0.616900  1.0
  N  N284  1  0.671900  0.616900  0.756300  1.0
  N  N285  1  0.671900  0.954900  0.616900  1.0
  N  N286  1  0.954900  0.671900  0.756300  1.0
  N  N287  1  0.756300  0.616900  0.954900  1.0
  N  N288  1  0.616900  0.756300  0.671900  1.0
  N  N289  1  0.954900  0.616900  0.671900  1.0
  N  N290  1  0.671900  0.756300  0.954900  1.0
  N  N291  1  0.616900  0.954900  0.756300  1.0
  N  N292  1  0.756300  0.671900  0.616900  1.0
  N  N293  1  0.697200  0.047800  0.036000  1.0
  N  N294  1  0.219000  0.036000  0.047800  1.0
  N  N295  1  0.036000  0.219000  0.697200  1.0
  N  N296  1  0.047800  0.697200  0.219000  1.0
  N  N297  1  0.047800  0.036000  0.697200  1.0
  N  N298  1  0.036000  0.047800  0.219000  1.0
  N  N299  1  0.219000  0.697200  0.036000  1.0
  N  N300  1  0.697200  0.219000  0.047800  1.0
  N  N301  1  0.036000  0.697200  0.047800  1.0
  N  N302  1  0.047800  0.219000  0.036000  1.0
  N  N303  1  0.697200  0.036000  0.219000  1.0
  N  N304  1  0.219000  0.047800  0.697200  1.0
  N  N305  1  0.302800  0.952200  0.964000  1.0
  N  N306  1  0.781000  0.964000  0.952200  1.0
  N  N307  1  0.964000  0.781000  0.302800  1.0
  N  N308  1  0.952200  0.302800  0.781000  1.0
  N  N309  1  0.952200  0.964000  0.302800  1.0
  N  N310  1  0.964000  0.952200  0.781000  1.0
  N  N311  1  0.781000  0.302800  0.964000  1.0
  N  N312  1  0.302800  0.781000  0.952200  1.0
  N  N313  1  0.964000  0.302800  0.952200  1.0
  N  N314  1  0.952200  0.781000  0.964000  1.0
  N  N315  1  0.302800  0.964000  0.781000  1.0
  N  N316  1  0.781000  0.952200  0.302800  1.0
  O  O317  1  0.000000  0.000000  0.000000  1
  O  O318  1  0.347000  0.207000  0.793000  1
  O  O319  1  0.653000  0.793000  0.207000  1
  O  O320  1  0.793000  0.653000  0.347000  1
  O  O321  1  0.207000  0.347000  0.653000  1
  O  O322  1  0.207000  0.793000  0.347000  1
  O  O323  1  0.793000  0.207000  0.653000  1
  O  O324  1  0.653000  0.347000  0.793000  1
  O  O325  1  0.347000  0.653000  0.207000  1
  O  O326  1  0.793000  0.347000  0.207000  1
  O  O327  1  0.207000  0.653000  0.793000  1
  O  O328  1  0.347000  0.793000  0.653000  1
  O  O329  1  0.653000  0.207000  0.347000  1
  O  O330  1  0.615000  0.235000  0.765000  1
  O  O331  1  0.385000  0.765000  0.235000  1
  O  O332  1  0.765000  0.385000  0.615000  1
  O  O333  1  0.235000  0.615000  0.385000  1
  O  O334  1  0.235000  0.765000  0.615000  1
  O  O335  1  0.765000  0.235000  0.385000  1
  O  O336  1  0.385000  0.615000  0.765000  1
  O  O337  1  0.615000  0.385000  0.235000  1
  O  O338  1  0.765000  0.615000  0.235000  1
  O  O339  1  0.235000  0.385000  0.765000  1
  O  O340  1  0.615000  0.765000  0.385000  1
  O  O341  1  0.385000  0.235000  0.615000  1
  O  O342  1  0.401300  0.133700  0.866300  1
  O  O343  1  0.598700  0.866300  0.133700  1
  O  O344  1  0.866300  0.598700  0.401300  1
  O  O345  1  0.133700  0.401300  0.598700  1
  O  O346  1  0.133700  0.866300  0.401300  1
  O  O347  1  0.866300  0.133700  0.598700  1
  O  O348  1  0.598700  0.401300  0.866300  1
  O  O349  1  0.401300  0.598700  0.133700  1
  O  O350  1  0.866300  0.401300  0.133700  1
  O  O351  1  0.133700  0.598700  0.866300  1
  O  O352  1  0.401300  0.866300  0.598700  1
  O  O353  1  0.598700  0.133700  0.401300  1
  O  O354  1  0.797000  0.797000  0.203000  1
  O  O355  1  0.203000  0.203000  0.797000  1
  O  O356  1  0.797000  0.203000  0.797000  1
  O  O357  1  0.203000  0.797000  0.203000  1
  O  O358  1  0.203000  0.797000  0.797000  1
  O  O359  1  0.797000  0.203000  0.203000  1
  O  O360  1  0.351400  0.363800  0.805400  1.0
  O  O361  1  0.479400  0.805400  0.363800  1.0
  O  O362  1  0.805400  0.479400  0.351400  1.0
  O  O363  1  0.363800  0.351400  0.479400  1.0
  O  O364  1  0.363800  0.805400  0.351400  1.0
  O  O365  1  0.805400  0.363800  0.479400  1.0
  O  O366  1  0.479400  0.351400  0.805400  1.0
  O  O367  1  0.351400  0.479400  0.363800  1.0
  O  O368  1  0.805400  0.351400  0.363800  1.0
  O  O369  1  0.363800  0.479400  0.805400  1.0
  O  O370  1  0.351400  0.805400  0.479400  1.0
  O  O371  1  0.479400  0.363800  0.351400  1.0
  O  O372  1  0.648600  0.636200  0.194600  1.0
  O  O373  1  0.520600  0.194600  0.636200  1.0
  O  O374  1  0.194600  0.520600  0.648600  1.0
  O  O375  1  0.636200  0.648600  0.520600  1.0
  O  O376  1  0.636200  0.194600  0.648600  1.0
  O  O377  1  0.194600  0.636200  0.520600  1.0
  O  O378  1  0.520600  0.648600  0.194600  1.0
  O  O379  1  0.648600  0.520600  0.636200  1.0
  O  O380  1  0.194600  0.648600  0.636200  1.0
  O  O381  1  0.636200  0.520600  0.194600  1.0
  O  O382  1  0.648600  0.194600  0.520600  1.0
  O  O383  1  0.520600  0.636200  0.648600  1.0
  O  O384  1  0.539200  0.173800  0.052000  1.0
  O  O385  1  0.235000  0.052000  0.173800  1.0
  O  O386  1  0.052000  0.235000  0.539200  1.0
  O  O387  1  0.173800  0.539200  0.235000  1.0
  O  O388  1  0.173800  0.052000  0.539200  1.0
  O  O389  1  0.052000  0.173800  0.235000  1.0
  O  O390  1  0.235000  0.539200  0.052000  1.0
  O  O391  1  0.539200  0.235000  0.173800  1.0
  O  O392  1  0.052000  0.539200  0.173800  1.0
  O  O393  1  0.173800  0.235000  0.052000  1.0
  O  O394  1  0.539200  0.052000  0.235000  1.0
  O  O395  1  0.235000  0.173800  0.539200  1.0
  O  O396  1  0.460800  0.826200  0.948000  1.0
  O  O397  1  0.765000  0.948000  0.826200  1.0
  O  O398  1  0.948000  0.765000  0.460800  1.0
  O  O399  1  0.826200  0.460800  0.765000  1.0
  O  O400  1  0.826200  0.948000  0.460800  1.0
  O  O401  1  0.948000  0.826200  0.765000  1.0
  O  O402  1  0.765000  0.460800  0.948000  1.0
  O  O403  1  0.460800  0.765000  0.826200  1.0
  O  O404  1  0.948000  0.460800  0.826200  1.0
  O  O405  1  0.826200  0.765000  0.948000  1.0
  O  O406  1  0.460800  0.948000  0.765000  1.0
  O  O407  1  0.765000  0.826200  0.460800  1.0
  O  O408  1  0.513500  0.149500  0.961700  1.0
  O  O409  1  0.375300  0.961700  0.149500  1.0
  O  O410  1  0.961700  0.375300  0.513500  1.0
  O  O411  1  0.149500  0.513500  0.375300  1.0
  O  O412  1  0.149500  0.961700  0.513500  1.0
  O  O413  1  0.961700  0.149500  0.375300  1.0
  O  O414  1  0.375300  0.513500  0.961700  1.0
  O  O415  1  0.513500  0.375300  0.149500  1.0
  O  O416  1  0.961700  0.513500  0.149500  1.0
  O  O417  1  0.149500  0.375300  0.961700  1.0
  O  O418  1  0.513500  0.961700  0.375300  1.0
  O  O419  1  0.375300  0.149500  0.513500  1.0
  O  O420  1  0.486500  0.850500  0.038300  1.0
  O  O421  1  0.624700  0.038300  0.850500  1.0
  O  O422  1  0.038300  0.624700  0.486500  1.0
  O  O423  1  0.850500  0.486500  0.624700  1.0
  O  O424  1  0.850500  0.038300  0.486500  1.0
  O  O425  1  0.038300  0.850500  0.624700  1.0
  O  O426  1  0.624700  0.486500  0.038300  1.0
  O  O427  1  0.486500  0.624700  0.850500  1.0
  O  O428  1  0.038300  0.486500  0.850500  1.0
  O  O429  1  0.850500  0.624700  0.038300  1.0
  O  O430  1  0.486500  0.038300  0.624700  1.0
  O  O431  1  0.624700  0.850500  0.486500  1.0
