# generated using pymatgen
data_Pd4C72N19
_symmetry_space_group_name_H-M   'P 1'
_cell_length_a   21.87200000
_cell_length_b   34.02000000
_cell_length_c   35.06700000
_cell_angle_alpha   90.00000000
_cell_angle_beta   90.00000000
_cell_angle_gamma   90.00000000
_symmetry_Int_Tables_number   1
_chemical_formula_structural   Pd4C72N19
_chemical_formula_sum   'Pd32 C576 N152'
_cell_volume   26092.84412448
_cell_formula_units_Z   8
loop_
 _symmetry_equiv_pos_site_id
 _symmetry_equiv_pos_as_xyz
  1  'x, y, z'
loop_
 _atom_site_type_symbol
 _atom_site_label
 _atom_site_symmetry_multiplicity
 _atom_site_fract_x
 _atom_site_fract_y
 _atom_site_fract_z
 _atom_site_occupancy
  Pd  Pd1  1  0.004900  0.166000  0.360300  1
  Pd  Pd2  1  0.995100  0.834000  0.860300  1
  Pd  Pd3  1  0.504900  0.334000  0.860300  1
  Pd  Pd4  1  0.495100  0.666000  0.360300  1
  Pd  Pd5  1  0.997000  0.579800  0.342500  1
  Pd  Pd6  1  0.003000  0.420200  0.842500  1
  Pd  Pd7  1  0.497000  0.920200  0.842500  1
  Pd  Pd8  1  0.503000  0.079800  0.342500  1
  Pd  Pd9  1  0.132100  0.509300  0.507200  1
  Pd  Pd10  1  0.867900  0.490700  0.007200  1
  Pd  Pd11  1  0.632100  0.990700  0.007200  1
  Pd  Pd12  1  0.367900  0.009300  0.507200  1
  Pd  Pd13  1  0.520500  0.568200  0.721600  1
  Pd  Pd14  1  0.479500  0.431800  0.221600  1
  Pd  Pd15  1  0.020500  0.931800  0.221600  1
  Pd  Pd16  1  0.979500  0.068200  0.721600  1
  Pd  Pd17  1  0.697000  0.250700  0.305000  1
  Pd  Pd18  1  0.303000  0.749300  0.805000  1
  Pd  Pd19  1  0.197000  0.249300  0.805000  1
  Pd  Pd20  1  0.803000  0.750700  0.305000  1
  Pd  Pd21  1  0.391500  0.506400  0.552800  1
  Pd  Pd22  1  0.608500  0.493600  0.052800  1
  Pd  Pd23  1  0.891500  0.993600  0.052800  1
  Pd  Pd24  1  0.108500  0.006400  0.552800  1
  Pd  Pd25  1  0.471200  0.159400  0.704700  1
  Pd  Pd26  1  0.528800  0.840600  0.204700  1
  Pd  Pd27  1  0.971200  0.340600  0.204700  1
  Pd  Pd28  1  0.028800  0.659400  0.704700  1
  Pd  Pd29  1  0.792700  0.236900  0.765400  1
  Pd  Pd30  1  0.207300  0.763100  0.265400  1
  Pd  Pd31  1  0.292700  0.263100  0.265400  1
  Pd  Pd32  1  0.707300  0.736900  0.765400  1
  C  C33  1  0.624400  0.460200  0.788300  1
  C  C34  1  0.375600  0.539800  0.288300  1
  C  C35  1  0.124400  0.039800  0.288300  1
  C  C36  1  0.875600  0.960200  0.788300  1
  C  C37  1  0.619100  0.497600  0.803300  1
  C  C38  1  0.380900  0.502400  0.303300  1
  C  C39  1  0.119100  0.002400  0.303300  1
  C  C40  1  0.880900  0.997600  0.803300  1
  C  C41  1  0.602300  0.460400  0.752300  1
  C  C42  1  0.397700  0.539600  0.252300  1
  C  C43  1  0.102300  0.039600  0.252300  1
  C  C44  1  0.897700  0.960400  0.752300  1
  C  C45  1  0.583000  0.529400  0.787000  1
  C  C46  1  0.417000  0.470600  0.287000  1
  C  C47  1  0.083000  0.970600  0.287000  1
  C  C48  1  0.917000  0.029400  0.787000  1
  C  C49  1  0.561300  0.407500  0.703200  1
  C  C50  1  0.438700  0.592500  0.203200  1
  C  C51  1  0.061300  0.092500  0.203200  1
  C  C52  1  0.938700  0.907500  0.703200  1
  C  C53  1  0.497200  0.316600  0.669500  1
  C  C54  1  0.502800  0.683400  0.169500  1
  C  C55  1  0.997200  0.183400  0.169500  1
  C  C56  1  0.002800  0.816600  0.669500  1
  C  C57  1  0.566900  0.369300  0.690800  1
  C  C58  1  0.433100  0.630700  0.190800  1
  C  C59  1  0.066900  0.130700  0.190800  1
  C  C60  1  0.933100  0.869300  0.690800  1
  C  C61  1  0.605100  0.418400  0.726600  1
  C  C62  1  0.394900  0.581600  0.226600  1
  C  C63  1  0.105100  0.081600  0.226600  1
  C  C64  1  0.894900  0.918400  0.726600  1
  C  C65  1  0.665000  0.363000  0.716500  1
  C  C66  1  0.335000  0.637000  0.216500  1
  C  C67  1  0.165000  0.137000  0.216500  1
  C  C68  1  0.835000  0.863000  0.716500  1
  C  C69  1  0.615000  0.349700  0.694800  1
  C  C70  1  0.385000  0.650300  0.194800  1
  C  C71  1  0.115000  0.150300  0.194800  1
  C  C72  1  0.885000  0.849700  0.694800  1
  C  C73  1  0.572800  0.492100  0.734100  1
  C  C74  1  0.427200  0.507900  0.234100  1
  C  C75  1  0.072800  0.007900  0.234100  1
  C  C76  1  0.927200  0.992100  0.734100  1
  C  C77  1  0.661000  0.400100  0.736100  1
  C  C78  1  0.339000  0.599900  0.236100  1
  C  C79  1  0.161000  0.099900  0.236100  1
  C  C80  1  0.839000  0.900100  0.736100  1
  C  C81  1  0.651400  0.159700  0.601900  1
  C  C82  1  0.348600  0.840300  0.101900  1
  C  C83  1  0.151400  0.340300  0.101900  1
  C  C84  1  0.848600  0.659700  0.601900  1
  C  C85  1  0.785900  0.176500  0.438700  1
  C  C86  1  0.214100  0.823500  0.938700  1
  C  C87  1  0.285900  0.323500  0.938700  1
  C  C88  1  0.714100  0.676500  0.438700  1
  C  C89  1  0.830600  0.165800  0.465700  1
  C  C90  1  0.169400  0.834200  0.965700  1
  C  C91  1  0.330600  0.334200  0.965700  1
  C  C92  1  0.669400  0.665800  0.465700  1
  C  C93  1  0.695700  0.168000  0.624700  1
  C  C94  1  0.304300  0.832000  0.124700  1
  C  C95  1  0.195700  0.332000  0.124700  1
  C  C96  1  0.804300  0.668000  0.624700  1
  C  C97  1  0.772600  0.180800  0.582100  1
  C  C98  1  0.227400  0.819200  0.082100  1
  C  C99  1  0.272600  0.319200  0.082100  1
  C  C100  1  0.727400  0.680800  0.582100  1
  C  C101  1  0.110000  0.393300  0.555200  1
  C  C102  1  0.890000  0.606700  0.055200  1
  C  C103  1  0.610000  0.106700  0.055200  1
  C  C104  1  0.390000  0.893300  0.555200  1
  C  C105  1  0.131000  0.262400  0.421400  1
  C  C106  1  0.869000  0.737600  0.921400  1
  C  C107  1  0.631000  0.237600  0.921400  1
  C  C108  1  0.369000  0.762400  0.421400  1
  C  C109  1  0.072400  0.269300  0.411600  1
  C  C110  1  0.927600  0.730700  0.911600  1
  C  C111  1  0.572400  0.230700  0.911600  1
  C  C112  1  0.427600  0.769300  0.411600  1
  C  C113  1  0.708200  0.189000  0.483400  1
  C  C114  1  0.291800  0.811000  0.983400  1
  C  C115  1  0.208200  0.311000  0.983400  1
  C  C116  1  0.791800  0.689000  0.483400  1
  C  C117  1  0.086800  0.431200  0.486300  1
  C  C118  1  0.913200  0.568800  0.986300  1
  C  C119  1  0.586800  0.068800  0.986300  1
  C  C120  1  0.413200  0.931200  0.486300  1
  C  C121  1  0.920400  0.159400  0.420400  1
  C  C122  1  0.079600  0.840600  0.920400  1
  C  C123  1  0.420400  0.340600  0.920400  1
  C  C124  1  0.579600  0.659400  0.420400  1
  C  C125  1  0.891000  0.150200  0.457300  1
  C  C126  1  0.109000  0.849800  0.957300  1
  C  C127  1  0.391000  0.349800  0.957300  1
  C  C128  1  0.609000  0.650200  0.457300  1
  C  C129  1  0.806200  0.163400  0.506800  1
  C  C130  1  0.193800  0.836600  0.006800  1
  C  C131  1  0.306200  0.336600  0.006800  1
  C  C132  1  0.693800  0.663400  0.506800  1
  C  C133  1  0.040600  0.310900  0.419400  1
  C  C134  1  0.959400  0.689100  0.919400  1
  C  C135  1  0.540600  0.189100  0.919400  1
  C  C136  1  0.459400  0.810900  0.419400  1
  C  C137  1  0.043600  0.369900  0.457700  1
  C  C138  1  0.956400  0.630100  0.957700  1
  C  C139  1  0.543600  0.130100  0.957700  1
  C  C140  1  0.456400  0.869900  0.457700  1
  C  C141  1  0.622700  0.194100  0.418800  1
  C  C142  1  0.377300  0.805900  0.918800  1
  C  C143  1  0.122700  0.305900  0.918800  1
  C  C144  1  0.877300  0.694100  0.418800  1
  C  C145  1  0.726300  0.172000  0.558900  1
  C  C146  1  0.273700  0.828000  0.058900  1
  C  C147  1  0.226300  0.328000  0.058900  1
  C  C148  1  0.773700  0.672000  0.558900  1
  C  C149  1  0.006300  0.385800  0.434700  1
  C  C150  1  0.993700  0.614200  0.934700  1
  C  C151  1  0.506300  0.114200  0.934700  1
  C  C152  1  0.493700  0.885800  0.434700  1
  C  C153  1  0.580500  0.206600  0.392400  1
  C  C154  1  0.419500  0.793400  0.892400  1
  C  C155  1  0.080500  0.293400  0.892400  1
  C  C156  1  0.919500  0.706600  0.392400  1
  C  C157  1  0.155300  0.225300  0.413800  1
  C  C158  1  0.844700  0.774700  0.913800  1
  C  C159  1  0.655300  0.274700  0.913800  1
  C  C160  1  0.344700  0.725300  0.413800  1
  C  C161  1  0.665600  0.162600  0.560100  1
  C  C162  1  0.334400  0.837400  0.060100  1
  C  C163  1  0.165600  0.337400  0.060100  1
  C  C164  1  0.834400  0.662600  0.560100  1
  C  C165  1  0.709600  0.217300  0.382500  1
  C  C166  1  0.290400  0.782700  0.882500  1
  C  C167  1  0.209600  0.282700  0.882500  1
  C  C168  1  0.790400  0.717300  0.382500  1
  C  C169  1  0.030500  0.242100  0.390000  1
  C  C170  1  0.969500  0.757900  0.890000  1
  C  C171  1  0.530500  0.257900  0.890000  1
  C  C172  1  0.469500  0.742100  0.390000  1
  C  C173  1  0.086200  0.372100  0.525800  1
  C  C174  1  0.913800  0.627900  0.025800  1
  C  C175  1  0.586200  0.127900  0.025800  1
  C  C176  1  0.413800  0.872100  0.525800  1
  C  C177  1  0.750000  0.173800  0.513700  1
  C  C178  1  0.250000  0.826200  0.013700  1
  C  C179  1  0.250000  0.326200  0.013700  1
  C  C180  1  0.750000  0.673800  0.513700  1
  C  C181  1  0.072000  0.331400  0.450700  1
  C  C182  1  0.928000  0.668600  0.950700  1
  C  C183  1  0.572000  0.168600  0.950700  1
  C  C184  1  0.428000  0.831400  0.450700  1
  C  C185  1  0.685900  0.200000  0.417500  1
  C  C186  1  0.314100  0.800000  0.917500  1
  C  C187  1  0.185900  0.300000  0.917500  1
  C  C188  1  0.814100  0.700000  0.417500  1
  C  C189  1  0.010300  0.133400  0.433800  1
  C  C190  1  0.989700  0.866600  0.933800  1
  C  C191  1  0.510300  0.366600  0.933800  1
  C  C192  1  0.489700  0.633400  0.433800  1
  C  C193  1  0.111800  0.200100  0.392900  1
  C  C194  1  0.888200  0.799900  0.892900  1
  C  C195  1  0.611800  0.299900  0.892900  1
  C  C196  1  0.388200  0.700100  0.392900  1
  C  C197  1  0.991000  0.324400  0.397500  1
  C  C198  1  0.009000  0.675600  0.897500  1
  C  C199  1  0.491000  0.175600  0.897500  1
  C  C200  1  0.509000  0.824400  0.397500  1
  C  C201  1  0.930300  0.133100  0.483100  1
  C  C202  1  0.069700  0.866900  0.983100  1
  C  C203  1  0.430300  0.366900  0.983100  1
  C  C204  1  0.569700  0.633100  0.483100  1
  C  C205  1  0.073400  0.387500  0.490600  1
  C  C206  1  0.926600  0.612500  0.990600  1
  C  C207  1  0.573400  0.112500  0.990600  1
  C  C208  1  0.426600  0.887500  0.490600  1
  C  C209  1  0.728800  0.189500  0.447200  1
  C  C210  1  0.271200  0.810500  0.947200  1
  C  C211  1  0.228800  0.310500  0.947200  1
  C  C212  1  0.771200  0.689500  0.447200  1
  C  C213  1  0.735200  0.562100  0.543100  1
  C  C214  1  0.264800  0.437900  0.043100  1
  C  C215  1  0.235200  0.937900  0.043100  1
  C  C216  1  0.764800  0.062100  0.543100  1
  C  C217  1  0.672000  0.566600  0.597000  1
  C  C218  1  0.328000  0.433400  0.097000  1
  C  C219  1  0.172000  0.933400  0.097000  1
  C  C220  1  0.828000  0.066600  0.597000  1
  C  C221  1  0.848800  0.553800  0.540600  1
  C  C222  1  0.151200  0.446200  0.040600  1
  C  C223  1  0.348800  0.946200  0.040600  1
  C  C224  1  0.651200  0.053800  0.540600  1
  C  C225  1  0.908300  0.568500  0.487100  1
  C  C226  1  0.091700  0.431500  0.987100  1
  C  C227  1  0.408300  0.931500  0.987100  1
  C  C228  1  0.591700  0.068500  0.487100  1
  C  C229  1  0.626900  0.547300  0.536000  1
  C  C230  1  0.373100  0.452700  0.036000  1
  C  C231  1  0.126900  0.952700  0.036000  1
  C  C232  1  0.873100  0.047300  0.536000  1
  C  C233  1  0.796100  0.576000  0.486800  1
  C  C234  1  0.203900  0.424000  0.986800  1
  C  C235  1  0.296100  0.924000  0.986800  1
  C  C236  1  0.703900  0.076000  0.486800  1
  C  C237  1  0.856700  0.589600  0.425600  1
  C  C238  1  0.143300  0.410400  0.925600  1
  C  C239  1  0.356700  0.910400  0.925600  1
  C  C240  1  0.643300  0.089600  0.425600  1
  C  C241  1  0.814800  0.612400  0.370000  1
  C  C242  1  0.185200  0.387600  0.870000  1
  C  C243  1  0.314800  0.887600  0.870000  1
  C  C244  1  0.685200  0.112400  0.370000  1
  C  C245  1  0.868000  0.607500  0.352800  1
  C  C246  1  0.132000  0.392500  0.852800  1
  C  C247  1  0.368000  0.892500  0.852800  1
  C  C248  1  0.632000  0.107500  0.352800  1
  C  C249  1  0.911200  0.583700  0.405800  1
  C  C250  1  0.088800  0.416300  0.905800  1
  C  C251  1  0.411200  0.916300  0.905800  1
  C  C252  1  0.588800  0.083700  0.405800  1
  C  C253  1  0.624000  0.558900  0.578200  1
  C  C254  1  0.376000  0.441100  0.078200  1
  C  C255  1  0.124000  0.941100  0.078200  1
  C  C256  1  0.876000  0.058900  0.578200  1
  C  C257  1  0.825600  0.376400  0.352700  1
  C  C258  1  0.174400  0.623600  0.852700  1
  C  C259  1  0.325600  0.123600  0.852700  1
  C  C260  1  0.674400  0.876400  0.352700  1
  C  C261  1  0.798600  0.601400  0.408300  1
  C  C262  1  0.201400  0.398600  0.908300  1
  C  C263  1  0.298600  0.898600  0.908300  1
  C  C264  1  0.701400  0.101400  0.408300  1
  C  C265  1  0.769300  0.359100  0.349100  1
  C  C266  1  0.230700  0.640900  0.849100  1
  C  C267  1  0.269300  0.140900  0.849100  1
  C  C268  1  0.730700  0.859100  0.349100  1
  C  C269  1  0.679100  0.547700  0.524400  1
  C  C270  1  0.320900  0.452300  0.024400  1
  C  C271  1  0.179100  0.952300  0.024400  1
  C  C272  1  0.820900  0.047700  0.524400  1
  C  C273  1  0.601100  0.222400  0.354800  1
  C  C274  1  0.398900  0.777600  0.854800  1
  C  C275  1  0.101100  0.277600  0.854800  1
  C  C276  1  0.898900  0.722400  0.354800  1
  C  C277  1  0.654600  0.326000  0.333333  1
  C  C278  1  0.345400  0.674000  0.833333  1
  C  C279  1  0.154600  0.174000  0.833333  1
  C  C280  1  0.845400  0.826000  0.333333  1
  C  C281  1  0.986000  0.123800  0.470700  1
  C  C282  1  0.014000  0.876200  0.970700  1
  C  C283  1  0.486000  0.376200  0.970700  1
  C  C284  1  0.514000  0.623800  0.470700  1
  C  C285  1  0.904300  0.553200  0.526600  1
  C  C286  1  0.095700  0.446800  0.026600  1
  C  C287  1  0.404300  0.946800  0.026600  1
  C  C288  1  0.595700  0.053200  0.526600  1
  C  C289  1  0.705000  0.598000  0.704200  1
  C  C290  1  0.295000  0.402000  0.204200  1
  C  C291  1  0.205000  0.902000  0.204200  1
  C  C292  1  0.795000  0.098000  0.704200  1
  C  C293  1  0.603500  0.575100  0.657000  1
  C  C294  1  0.396500  0.424900  0.157000  1
  C  C295  1  0.103500  0.924900  0.157000  1
  C  C296  1  0.896500  0.075100  0.657000  1
  C  C297  1  0.856500  0.577400  0.467500  1
  C  C298  1  0.143500  0.422600  0.967500  1
  C  C299  1  0.356500  0.922600  0.967500  1
  C  C300  1  0.643500  0.077400  0.467500  1
  C  C301  1  0.763700  0.319700  0.331900  1
  C  C302  1  0.236300  0.680300  0.831900  1
  C  C303  1  0.263700  0.180300  0.831900  1
  C  C304  1  0.736300  0.819700  0.331900  1
  C  C305  1  0.128800  0.435300  0.548700  1
  C  C306  1  0.871200  0.564700  0.048700  1
  C  C307  1  0.628800  0.064700  0.048700  1
  C  C308  1  0.371200  0.935300  0.548700  1
  C  C309  1  0.713400  0.378300  0.353500  1
  C  C310  1  0.286600  0.621700  0.853500  1
  C  C311  1  0.213400  0.121700  0.853500  1
  C  C312  1  0.786600  0.878300  0.353500  1
  C  C313  1  0.647000  0.594700  0.718500  1
  C  C314  1  0.353000  0.405300  0.218500  1
  C  C315  1  0.147000  0.905300  0.218500  1
  C  C316  1  0.853000  0.094700  0.718500  1
  C  C317  1  0.902500  0.471200  0.320900  1
  C  C318  1  0.097500  0.528800  0.820900  1
  C  C319  1  0.402500  0.028800  0.820900  1
  C  C320  1  0.597500  0.971200  0.320900  1
  C  C321  1  0.515700  0.524300  0.538700  1
  C  C322  1  0.484300  0.475700  0.038700  1
  C  C323  1  0.015700  0.975700  0.038700  1
  C  C324  1  0.984300  0.024300  0.538700  1
  C  C325  1  0.888800  0.432400  0.339900  1
  C  C326  1  0.111200  0.567600  0.839900  1
  C  C327  1  0.388800  0.067600  0.839900  1
  C  C328  1  0.611200  0.932400  0.339900  1
  C  C329  1  0.836800  0.413800  0.337200  1
  C  C330  1  0.163200  0.586200  0.837200  1
  C  C331  1  0.336800  0.086200  0.837200  1
  C  C332  1  0.663200  0.913800  0.337200  1
  C  C333  1  0.570300  0.534800  0.519000  1
  C  C334  1  0.429700  0.465200  0.019000  1
  C  C335  1  0.070300  0.965200  0.019000  1
  C  C336  1  0.929700  0.034800  0.519000  1
  C  C337  1  0.728500  0.571900  0.581900  1
  C  C338  1  0.271500  0.428100  0.081900  1
  C  C339  1  0.228500  0.928100  0.081900  1
  C  C340  1  0.771500  0.071900  0.581900  1
  C  C341  1  0.573500  0.532300  0.479100  1
  C  C342  1  0.426500  0.467700  0.979100  1
  C  C343  1  0.073500  0.967700  0.979100  1
  C  C344  1  0.926500  0.032300  0.479100  1
  C  C345  1  0.967000  0.127400  0.291100  1
  C  C346  1  0.033000  0.872600  0.791100  1
  C  C347  1  0.467000  0.372600  0.791100  1
  C  C348  1  0.533000  0.627400  0.291100  1
  C  C349  1  0.871800  0.477400  0.286100  1
  C  C350  1  0.128200  0.522600  0.786100  1
  C  C351  1  0.371800  0.022600  0.786100  1
  C  C352  1  0.628200  0.977400  0.286100  1
  C  C353  1  0.791400  0.565400  0.527700  1
  C  C354  1  0.208600  0.434600  0.027700  1
  C  C355  1  0.291400  0.934600  0.027700  1
  C  C356  1  0.708600  0.065400  0.527700  1
  C  C357  1  0.466000  0.514900  0.487800  1
  C  C358  1  0.534000  0.485100  0.987800  1
  C  C359  1  0.966000  0.985100  0.987800  1
  C  C360  1  0.034000  0.014900  0.487800  1
  C  C361  1  0.008000  0.152500  0.282900  1
  C  C362  1  0.992000  0.847500  0.782900  1
  C  C363  1  0.508000  0.347500  0.782900  1
  C  C364  1  0.492000  0.652500  0.282900  1
  C  C365  1  0.008600  0.534700  0.524400  1
  C  C366  1  0.991400  0.465300  0.024400  1
  C  C367  1  0.508600  0.965300  0.024400  1
  C  C368  1  0.491400  0.034700  0.524400  1
  C  C369  1  0.963900  0.543300  0.541400  1
  C  C370  1  0.036100  0.456700  0.041400  1
  C  C371  1  0.463900  0.956700  0.041400  1
  C  C372  1  0.536100  0.043300  0.541400  1
  C  C373  1  0.452600  0.307200  0.647100  1
  C  C374  1  0.547400  0.692800  0.147100  1
  C  C375  1  0.952600  0.192800  0.147100  1
  C  C376  1  0.047400  0.807200  0.647100  1
  C  C377  1  0.940800  0.419700  0.363000  1
  C  C378  1  0.059200  0.580300  0.863000  1
  C  C379  1  0.440800  0.080300  0.863000  1
  C  C380  1  0.559200  0.919700  0.363000  1
  C  C381  1  0.118000  0.599700  0.317700  1
  C  C382  1  0.882000  0.400300  0.817700  1
  C  C383  1  0.618000  0.900300  0.817700  1
  C  C384  1  0.382000  0.099700  0.317700  1
  C  C385  1  0.687000  0.210900  0.231500  1
  C  C386  1  0.313000  0.789100  0.731500  1
  C  C387  1  0.187000  0.289100  0.731500  1
  C  C388  1  0.813000  0.710900  0.231500  1
  C  C389  1  0.966000  0.543000  0.583000  1
  C  C390  1  0.034000  0.457000  0.083000  1
  C  C391  1  0.466000  0.957000  0.083000  1
  C  C392  1  0.534000  0.043000  0.583000  1
  C  C393  1  0.872800  0.361600  0.377400  1
  C  C394  1  0.127200  0.638400  0.877400  1
  C  C395  1  0.372800  0.138400  0.877400  1
  C  C396  1  0.627200  0.861600  0.377400  1
  C  C397  1  0.748000  0.175700  0.625700  1
  C  C398  1  0.252000  0.824300  0.125700  1
  C  C399  1  0.248000  0.324300  0.125700  1
  C  C400  1  0.752000  0.675700  0.625700  1
  C  C401  1  0.329800  0.572400  0.592900  1
  C  C402  1  0.670200  0.427600  0.092900  1
  C  C403  1  0.829800  0.927600  0.092900  1
  C  C404  1  0.170200  0.072400  0.592900  1
  C  C405  1  0.429000  0.328600  0.615100  1
  C  C406  1  0.571000  0.671400  0.115100  1
  C  C407  1  0.929000  0.171400  0.115100  1
  C  C408  1  0.071000  0.828600  0.615100  1
  C  C409  1  0.516000  0.516700  0.463700  1
  C  C410  1  0.484000  0.483300  0.963700  1
  C  C411  1  0.016000  0.983300  0.963700  1
  C  C412  1  0.984000  0.016700  0.463700  1
  C  C413  1  0.884500  0.512500  0.265100  1
  C  C414  1  0.115500  0.487500  0.765100  1
  C  C415  1  0.384500  0.987500  0.765100  1
  C  C416  1  0.615500  0.012500  0.265100  1
  C  C417  1  0.939300  0.503900  0.337600  1
  C  C418  1  0.060700  0.496100  0.837600  1
  C  C419  1  0.439300  0.996100  0.837600  1
  C  C420  1  0.560700  0.003900  0.337600  1
  C  C421  1  0.970000  0.362600  0.403000  1
  C  C422  1  0.030000  0.637400  0.903000  1
  C  C423  1  0.470000  0.137400  0.903000  1
  C  C424  1  0.530000  0.862600  0.403000  1
  C  C425  1  0.456300  0.240700  0.672600  1
  C  C426  1  0.543700  0.759300  0.172600  1
  C  C427  1  0.956300  0.259300  0.172600  1
  C  C428  1  0.043700  0.740700  0.672600  1
  C  C429  1  0.501200  0.378000  0.632500  1
  C  C430  1  0.498800  0.622000  0.132500  1
  C  C431  1  0.001200  0.122000  0.132500  1
  C  C432  1  0.998800  0.878000  0.632500  1
  C  C433  1  0.026000  0.533300  0.600700  1
  C  C434  1  0.974000  0.466700  0.100700  1
  C  C435  1  0.526000  0.966700  0.100700  1
  C  C436  1  0.474000  0.033300  0.600700  1
  C  C437  1  0.279000  0.540400  0.586600  1
  C  C438  1  0.721000  0.459600  0.086600  1
  C  C439  1  0.779000  0.959600  0.086600  1
  C  C440  1  0.221000  0.040400  0.586600  1
  C  C441  1  0.514600  0.354200  0.662000  1
  C  C442  1  0.485400  0.645800  0.162000  1
  C  C443  1  0.014600  0.145800  0.162000  1
  C  C444  1  0.985400  0.854200  0.662000  1
  C  C445  1  0.929900  0.377600  0.382300  1
  C  C446  1  0.070100  0.622400  0.882300  1
  C  C447  1  0.429900  0.122400  0.882300  1
  C  C448  1  0.570100  0.877600  0.382300  1
  C  C449  1  0.115000  0.609000  0.366100  1
  C  C450  1  0.885000  0.391000  0.866100  1
  C  C451  1  0.615000  0.891000  0.866100  1
  C  C452  1  0.385000  0.109000  0.366100  1
  C  C453  1  0.660200  0.578000  0.643300  1
  C  C454  1  0.339800  0.422000  0.143300  1
  C  C455  1  0.160200  0.922000  0.143300  1
  C  C456  1  0.839800  0.078000  0.643300  1
  C  C457  1  0.925200  0.543000  0.281400  1
  C  C458  1  0.074800  0.457000  0.781400  1
  C  C459  1  0.425200  0.957000  0.781400  1
  C  C460  1  0.574800  0.043000  0.281400  1
  C  C461  1  0.419500  0.267700  0.653300  1
  C  C462  1  0.580500  0.732300  0.153300  1
  C  C463  1  0.919500  0.232300  0.153300  1
  C  C464  1  0.080500  0.767700  0.653300  1
  C  C465  1  0.329700  0.221900  0.655400  1
  C  C466  1  0.670300  0.778100  0.155400  1
  C  C467  1  0.829700  0.278100  0.155400  1
  C  C468  1  0.170300  0.721900  0.655400  1
  C  C469  1  0.722600  0.239400  0.224700  1
  C  C470  1  0.277400  0.760600  0.724700  1
  C  C471  1  0.222600  0.260600  0.724700  1
  C  C472  1  0.777400  0.739400  0.224700  1
  C  C473  1  0.365800  0.198500  0.672800  1
  C  C474  1  0.634200  0.801500  0.172800  1
  C  C475  1  0.865800  0.301500  0.172800  1
  C  C476  1  0.134200  0.698500  0.672800  1
  C  C477  1  0.455800  0.362900  0.606800  1
  C  C478  1  0.544200  0.637100  0.106800  1
  C  C479  1  0.955800  0.137100  0.106800  1
  C  C480  1  0.044200  0.862900  0.606800  1
  C  C481  1  0.656000  0.364200  0.347800  1
  C  C482  1  0.344000  0.635800  0.847800  1
  C  C483  1  0.156000  0.135800  0.847800  1
  C  C484  1  0.844000  0.864200  0.347800  1
  C  C485  1  0.357000  0.264600  0.644000  1
  C  C486  1  0.643000  0.735400  0.144000  1
  C  C487  1  0.857000  0.235400  0.144000  1
  C  C488  1  0.143000  0.764600  0.644000  1
  C  C489  1  0.070000  0.524100  0.579600  1
  C  C490  1  0.930000  0.475900  0.079600  1
  C  C491  1  0.570000  0.975900  0.079600  1
  C  C492  1  0.430000  0.024100  0.579600  1
  C  C493  1  0.568600  0.153400  0.643500  1
  C  C494  1  0.431400  0.846600  0.143500  1
  C  C495  1  0.068600  0.346600  0.143500  1
  C  C496  1  0.931400  0.653400  0.643500  1
  C  C497  1  0.585700  0.149900  0.605500  1
  C  C498  1  0.414300  0.850100  0.105500  1
  C  C499  1  0.085700  0.350100  0.105500  1
  C  C500  1  0.914300  0.649900  0.605500  1
  C  C501  1  0.542300  0.140500  0.578000  1
  C  C502  1  0.457700  0.859500  0.078000  1
  C  C503  1  0.042300  0.359500  0.078000  1
  C  C504  1  0.957700  0.640500  0.578000  1
  C  C505  1  0.481800  0.134500  0.588600  1
  C  C506  1  0.518200  0.865500  0.088600  1
  C  C507  1  0.981800  0.365500  0.088600  1
  C  C508  1  0.018200  0.634500  0.588600  1
  C  C509  1  0.464600  0.138000  0.626600  1
  C  C510  1  0.535400  0.862000  0.126600  1
  C  C511  1  0.964600  0.362000  0.126600  1
  C  C512  1  0.035400  0.638000  0.626600  1
  C  C513  1  0.427800  0.424200  0.577800  1
  C  C514  1  0.572200  0.575800  0.077800  1
  C  C515  1  0.927800  0.075800  0.077800  1
  C  C516  1  0.072200  0.924200  0.577800  1
  C  C517  1  0.392000  0.429000  0.513000  1
  C  C518  1  0.608000  0.571000  0.013000  1
  C  C519  1  0.892000  0.071000  0.013000  1
  C  C520  1  0.108000  0.929000  0.513000  1
  C  C521  1  0.400200  0.388700  0.508500  1
  C  C522  1  0.599800  0.611300  0.008500  1
  C  C523  1  0.900200  0.111300  0.008500  1
  C  C524  1  0.099800  0.888700  0.508500  1
  C  C525  1  0.422100  0.366200  0.538600  1
  C  C526  1  0.577900  0.633800  0.038600  1
  C  C527  1  0.922100  0.133800  0.038600  1
  C  C528  1  0.077900  0.866200  0.538600  1
  C  C529  1  0.436000  0.383900  0.573200  1
  C  C530  1  0.564000  0.616100  0.073200  1
  C  C531  1  0.936000  0.116100  0.073200  1
  C  C532  1  0.064000  0.883900  0.573200  1
  C  C533  1  0.730000  0.309700  0.738100  1
  C  C534  1  0.270000  0.690300  0.238100  1
  C  C535  1  0.230000  0.190300  0.238100  1
  C  C536  1  0.770000  0.809700  0.738100  1
  C  C537  1  0.730500  0.348700  0.726400  1
  C  C538  1  0.269500  0.651300  0.226400  1
  C  C539  1  0.230500  0.151300  0.226400  1
  C  C540  1  0.769500  0.848700  0.726400  1
  C  C541  1  0.785700  0.367800  0.719900  1
  C  C542  1  0.214300  0.632200  0.219900  1
  C  C543  1  0.285700  0.132200  0.219900  1
  C  C544  1  0.714300  0.867800  0.719900  1
  C  C545  1  0.840500  0.347700  0.725000  1
  C  C546  1  0.159500  0.652300  0.225000  1
  C  C547  1  0.340500  0.152300  0.225000  1
  C  C548  1  0.659500  0.847700  0.725000  1
  C  C549  1  0.840100  0.308700  0.736700  1
  C  C550  1  0.159900  0.691300  0.236700  1
  C  C551  1  0.340100  0.191300  0.236700  1
  C  C552  1  0.659900  0.808700  0.736700  1
  C  C553  1  0.877900  0.205500  0.710200  1
  C  C554  1  0.122100  0.794500  0.210200  1
  C  C555  1  0.377900  0.294500  0.210200  1
  C  C556  1  0.622100  0.705500  0.710200  1
  C  C557  1  0.897000  0.188100  0.676400  1
  C  C558  1  0.103000  0.811900  0.176400  1
  C  C559  1  0.397000  0.311900  0.176400  1
  C  C560  1  0.603000  0.688100  0.676400  1
  C  C561  1  0.854500  0.178400  0.648500  1
  C  C562  1  0.145500  0.821600  0.148500  1
  C  C563  1  0.354500  0.321600  0.148500  1
  C  C564  1  0.645500  0.678400  0.648500  1
  C  C565  1  0.792800  0.186000  0.654500  1
  C  C566  1  0.207200  0.814000  0.154500  1
  C  C567  1  0.292800  0.314000  0.154500  1
  C  C568  1  0.707200  0.686000  0.654500  1
  C  C569  1  0.773600  0.203300  0.688300  1
  C  C570  1  0.226400  0.796700  0.188300  1
  C  C571  1  0.273600  0.296700  0.188300  1
  C  C572  1  0.726400  0.703300  0.688300  1
  C  C573  1  0.722600  0.588200  0.665800  1
  C  C574  1  0.277400  0.411800  0.165800  1
  C  C575  1  0.222600  0.911800  0.165800  1
  C  C576  1  0.777400  0.088200  0.665800  1
  C  C577  1  0.391000  0.584400  0.726500  1
  C  C578  1  0.609000  0.415600  0.226500  1
  C  C579  1  0.891000  0.915600  0.226500  1
  C  C580  1  0.109000  0.084400  0.726500  1
  C  C581  1  0.412000  0.596400  0.683100  1
  C  C582  1  0.588000  0.403600  0.183100  1
  C  C583  1  0.912000  0.903600  0.183100  1
  C  C584  1  0.088000  0.096400  0.683100  1
  C  C585  1  0.227600  0.535800  0.458500  1
  C  C586  1  0.772400  0.464200  0.958500  1
  C  C587  1  0.727600  0.964200  0.958500  1
  C  C588  1  0.272400  0.035800  0.458500  1
  C  C589  1  0.191700  0.567500  0.464600  1
  C  C590  1  0.808300  0.432500  0.964600  1
  C  C591  1  0.691700  0.932500  0.964600  1
  C  C592  1  0.308300  0.067500  0.464600  1
  C  C593  1  0.467000  0.151700  0.785300  1
  C  C594  1  0.533000  0.848300  0.285300  1
  C  C595  1  0.967000  0.348300  0.285300  1
  C  C596  1  0.033000  0.651700  0.785300  1
  C  C597  1  0.470000  0.109000  0.769200  1
  C  C598  1  0.530000  0.891000  0.269200  1
  C  C599  1  0.970000  0.391000  0.269200  1
  C  C600  1  0.030000  0.609000  0.769200  1
  C  C601  1  0.737000  0.227000  0.833500  1
  C  C602  1  0.263000  0.773000  0.333500  1
  C  C603  1  0.237000  0.273000  0.333500  1
  C  C604  1  0.763000  0.727000  0.833500  1
  C  C605  1  0.680000  0.215000  0.809000  1
  C  C606  1  0.320000  0.785000  0.309000  1
  C  C607  1  0.180000  0.285000  0.309000  1
  C  C608  1  0.820000  0.715000  0.809000  1
  N  N609  1  0.563900  0.526700  0.752200  1
  N  N610  1  0.436100  0.473300  0.252200  1
  N  N611  1  0.063900  0.973300  0.252200  1
  N  N612  1  0.936100  0.026700  0.752200  1
  N  N613  1  0.972800  0.148900  0.411600  1
  N  N614  1  0.027200  0.851100  0.911600  1
  N  N615  1  0.472800  0.351100  0.911600  1
  N  N616  1  0.527200  0.648900  0.411600  1
  N  N617  1  0.663700  0.227200  0.353200  1
  N  N618  1  0.336300  0.772800  0.853200  1
  N  N619  1  0.163700  0.272800  0.853200  1
  N  N620  1  0.836300  0.727200  0.353200  1
  N  N621  1  0.068800  0.524100  0.538200  1
  N  N622  1  0.931200  0.475900  0.038200  1
  N  N623  1  0.568800  0.975900  0.038200  1
  N  N624  1  0.431200  0.024100  0.538200  1
  N  N625  1  0.054100  0.205800  0.384300  1
  N  N626  1  0.945900  0.794200  0.884300  1
  N  N627  1  0.554100  0.294200  0.884300  1
  N  N628  1  0.445900  0.705800  0.384300  1
  N  N629  1  0.109300  0.453500  0.514900  1
  N  N630  1  0.890700  0.546500  0.014900  1
  N  N631  1  0.609300  0.046500  0.014900  1
  N  N632  1  0.390700  0.953500  0.514900  1
  N  N633  1  0.595600  0.581500  0.698000  1
  N  N634  1  0.404400  0.418500  0.198000  1
  N  N635  1  0.095600  0.918500  0.198000  1
  N  N636  1  0.904400  0.081500  0.698000  1
  N  N637  1  0.918400  0.594100  0.370500  1
  N  N638  1  0.081600  0.405900  0.870500  1
  N  N639  1  0.418400  0.905900  0.870500  1
  N  N640  1  0.581600  0.094100  0.370500  1
  N  N641  1  0.705400  0.308400  0.327600  1
  N  N642  1  0.294600  0.691600  0.827600  1
  N  N643  1  0.205400  0.191600  0.827600  1
  N  N644  1  0.794600  0.808400  0.327600  1
  N  N645  1  0.462800  0.515800  0.524900  1
  N  N646  1  0.537200  0.484200  0.024900  1
  N  N647  1  0.962800  0.984200  0.024900  1
  N  N648  1  0.037200  0.015800  0.524900  1
  N  N649  1  0.954100  0.125600  0.333200  1
  N  N650  1  0.045900  0.874400  0.833200  1
  N  N651  1  0.454100  0.374400  0.833200  1
  N  N652  1  0.545900  0.625600  0.333200  1
  N  N653  1  0.038600  0.178300  0.307000  1
  N  N654  1  0.961400  0.821700  0.807000  1
  N  N655  1  0.538600  0.321700  0.807000  1
  N  N656  1  0.461400  0.678300  0.307000  1
  N  N657  1  0.327100  0.499000  0.581400  1
  N  N658  1  0.672900  0.501000  0.081400  1
  N  N659  1  0.827100  0.001000  0.081400  1
  N  N660  1  0.172900  0.999000  0.581400  1
  N  N661  1  0.366800  0.567600  0.560000  1
  N  N662  1  0.633200  0.432400  0.060000  1
  N  N663  1  0.866800  0.932400  0.060000  1
  N  N664  1  0.133200  0.067600  0.560000  1
  N  N665  1  0.046100  0.625600  0.365800  1
  N  N666  1  0.953900  0.374400  0.865800  1
  N  N667  1  0.546100  0.874400  0.865800  1
  N  N668  1  0.453900  0.125600  0.365800  1
  N  N669  1  0.076000  0.562600  0.315100  1
  N  N670  1  0.924000  0.437400  0.815100  1
  N  N671  1  0.576000  0.937400  0.815100  1
  N  N672  1  0.424000  0.062600  0.315100  1
  N  N673  1  0.681300  0.195500  0.275200  1
  N  N674  1  0.318700  0.804500  0.775200  1
  N  N675  1  0.181300  0.304500  0.775200  1
  N  N676  1  0.818700  0.695500  0.275200  1
  N  N677  1  0.724400  0.268500  0.253200  1
  N  N678  1  0.275600  0.731500  0.753200  1
  N  N679  1  0.224400  0.231500  0.753200  1
  N  N680  1  0.775600  0.768500  0.253200  1
  N  N681  1  0.947700  0.533700  0.317400  1
  N  N682  1  0.052300  0.466300  0.817400  1
  N  N683  1  0.447700  0.966300  0.817400  1
  N  N684  1  0.552300  0.033700  0.317400  1
  N  N685  1  0.421000  0.202000  0.680200  1
  N  N686  1  0.579000  0.798000  0.180200  1
  N  N687  1  0.921000  0.298000  0.180200  1
  N  N688  1  0.079000  0.702000  0.680200  1
  N  N689  1  0.508100  0.147400  0.654100  1
  N  N690  1  0.491900  0.852600  0.154100  1
  N  N691  1  0.008100  0.352600  0.154100  1
  N  N692  1  0.991900  0.647400  0.654100  1
  N  N693  1  0.405800  0.446700  0.547700  1
  N  N694  1  0.594200  0.553300  0.047700  1
  N  N695  1  0.905800  0.053300  0.047700  1
  N  N696  1  0.094200  0.946700  0.547700  1
  N  N697  1  0.784800  0.289700  0.743200  1
  N  N698  1  0.215200  0.710300  0.243200  1
  N  N699  1  0.284800  0.210300  0.243200  1
  N  N700  1  0.715200  0.789700  0.743200  1
  N  N701  1  0.816000  0.213100  0.716200  1
  N  N702  1  0.184000  0.786900  0.216200  1
  N  N703  1  0.316000  0.286900  0.216200  1
  N  N704  1  0.684000  0.713100  0.716200  1
  N  N705  1  0.443000  0.558200  0.739700  1
  N  N706  1  0.557000  0.441800  0.239700  1
  N  N707  1  0.943000  0.941800  0.239700  1
  N  N708  1  0.057000  0.058200  0.739700  1
  N  N709  1  0.473200  0.608200  0.691200  1
  N  N710  1  0.526800  0.391800  0.191200  1
  N  N711  1  0.973200  0.891800  0.191200  1
  N  N712  1  0.026800  0.108200  0.691200  1
  N  N713  1  0.197400  0.495000  0.470400  1
  N  N714  1  0.802600  0.505000  0.970400  1
  N  N715  1  0.697400  0.005000  0.970400  1
  N  N716  1  0.302600  0.995000  0.470400  1
  N  N717  1  0.152000  0.565300  0.497000  1
  N  N718  1  0.848000  0.434700  0.997000  1
  N  N719  1  0.652000  0.934700  0.997000  1
  N  N720  1  0.348000  0.065300  0.497000  1
  N  N721  1  0.437800  0.173700  0.756200  1
  N  N722  1  0.562200  0.826300  0.256200  1
  N  N723  1  0.937800  0.326300  0.256200  1
  N  N724  1  0.062200  0.673700  0.756200  1
  N  N725  1  0.500000  0.117900  0.723400  1
  N  N726  1  0.500000  0.882100  0.223400  1
  N  N727  1  0.000000  0.382100  0.223400  1
  N  N728  1  0.000000  0.617900  0.723400  1
  N  N729  1  0.759000  0.259000  0.811000  1
  N  N730  1  0.241000  0.741000  0.311000  1
  N  N731  1  0.259000  0.241000  0.311000  1
  N  N732  1  0.741000  0.759000  0.811000  1
  N  N733  1  0.718000  0.204900  0.765400  1
  N  N734  1  0.282000  0.795100  0.265400  1
  N  N735  1  0.218000  0.295100  0.265400  1
  N  N736  1  0.782000  0.704900  0.765400  1
  N  N737  1  0.500000  0.472000  0.845000  1
  N  N738  1  0.500000  0.528000  0.345000  1
  N  N739  1  0.000000  0.028000  0.345000  1
  N  N740  1  0.000000  0.972000  0.845000  1
  N  N741  1  0.685300  0.349800  0.826300  1
  N  N742  1  0.314700  0.650200  0.326300  1
  N  N743  1  0.185300  0.150200  0.326300  1
  N  N744  1  0.814700  0.849800  0.826300  1
  N  N745  1  0.541000  0.985300  0.922200  1
  N  N746  1  0.459000  0.014700  0.422200  1
  N  N747  1  0.041000  0.514700  0.422200  1
  N  N748  1  0.959000  0.485300  0.922200  1
  N  N749  1  0.251000  0.084000  0.021000  1
  N  N750  1  0.749000  0.916000  0.521000  1
  N  N751  1  0.751000  0.416000  0.521000  1
  N  N752  1  0.249000  0.584000  0.021000  1
  N  N753  1  0.349000  0.424000  0.898600  1
  N  N754  1  0.651000  0.576000  0.398600  1
  N  N755  1  0.849000  0.076000  0.398600  1
  N  N756  1  0.151000  0.924000  0.898600  1
  N  N757  1  0.878000  0.242500  0.655000  1
  N  N758  1  0.122000  0.757500  0.155000  1
  N  N759  1  0.378000  0.257500  0.155000  1
  N  N760  1  0.622000  0.742500  0.655000  1
