# generated using pymatgen
data_Cu24C272(N4O29)5
_symmetry_space_group_name_H-M   'P 1'
_cell_length_a   23.52830000
_cell_length_b   24.32240000
_cell_length_c   25.04010000
_cell_angle_alpha   61.47900000
_cell_angle_beta   82.86400000
_cell_angle_gamma   75.29600000
_symmetry_Int_Tables_number   1
_chemical_formula_structural   Cu24C272(N4O29)5
_chemical_formula_sum   'Cu24 C272 N20 O145'
_cell_volume   12178.14309462
_cell_formula_units_Z   1
loop_
 _symmetry_equiv_pos_site_id
 _symmetry_equiv_pos_as_xyz
  1  'x, y, z'
loop_
 _atom_site_type_symbol
 _atom_site_label
 _atom_site_symmetry_multiplicity
 _atom_site_fract_x
 _atom_site_fract_y
 _atom_site_fract_z
 _atom_site_occupancy
  Cu  Cu1  1  0.518900  0.758900  0.855200  1.0
  Cu  Cu2  1  0.481100  0.241100  0.144800  1.0
  Cu  Cu3  1  0.523600  0.680900  0.973000  1.0
  Cu  Cu4  1  0.476400  0.319100  0.027000  1.0
  Cu  Cu5  1  0.546100  0.861200  0.264000  1.0
  Cu  Cu6  1  0.453900  0.138800  0.736000  1.0
  Cu  Cu7  1  0.560400  0.813700  0.186000  1.0
  Cu  Cu8  1  0.439600  0.186300  0.814000  1.0
  Cu  Cu9  1  0.182900  0.197000  0.541700  1.0
  Cu  Cu10  1  0.817100  0.803000  0.458300  1.0
  Cu  Cu11  1  0.078000  0.257600  0.557200  1.0
  Cu  Cu12  1  0.922000  0.742400  0.442800  1.0
  Cu  Cu13  1  0.247500  0.816600  0.660100  1.0
  Cu  Cu14  1  0.752500  0.183400  0.339900  1.0
  Cu  Cu15  1  0.162900  0.754800  0.713000  1.0
  Cu  Cu16  1  0.837100  0.245200  0.287000  1.0
  Cu  Cu17  1  0.229800  0.053500  0.304100  1.0
  Cu  Cu18  1  0.770200  0.946500  0.695900  1.0
  Cu  Cu19  1  0.139000  0.071300  0.241000  1.0
  Cu  Cu20  1  0.861000  0.928700  0.759000  1.0
  Cu  Cu21  1  0.569300  0.618900  0.625800  1.0
  Cu  Cu22  1  0.430700  0.381100  0.374200  1.0
  Cu  Cu23  1  0.587500  0.494700  0.662800  1.0
  Cu  Cu24  1  0.412500  0.505300  0.337200  1.0
  C  C25  1  0.651100  0.531000  0.077600  1
  C  C26  1  0.348900  0.469000  0.922400  1
  C  C27  1  0.573900  0.481000  0.105000  1
  C  C28  1  0.426100  0.519000  0.895000  1
  C  C29  1  0.668000  0.415000  0.107000  1
  C  C30  1  0.332000  0.585000  0.893000  1
  C  C31  1  0.215200  0.260000  0.337000  1
  C  C32  1  0.784800  0.740000  0.663000  1
  C  C33  1  0.120000  0.354000  0.295000  1
  C  C34  1  0.880000  0.646000  0.705000  1
  C  C35  1  0.203000  0.382000  0.314000  1
  C  C36  1  0.797000  0.618000  0.686000  1
  C  C37  1  0.294000  0.386000  0.653000  1
  C  C38  1  0.706000  0.614000  0.347000  1
  C  C39  1  0.290000  0.334000  0.578000  1
  C  C40  1  0.710000  0.666000  0.422000  1
  C  C41  1  0.278000  0.442000  0.557000  1
  C  C42  1  0.722000  0.558000  0.443000  1
  C  C43  1  0.396000  0.990000  0.711000  1
  C  C44  1  0.604000  0.010000  0.289000  1
  C  C45  1  0.333000  0.985000  0.703000  1
  C  C46  1  0.667000  0.015000  0.297000  1
  C  C47  1  0.859000  0.175000  0.709000  1
  C  C48  1  0.141000  0.825000  0.291000  1
  C  C49  1  0.797000  0.165000  0.713000  1
  C  C50  1  0.203000  0.835000  0.287000  1
  C  C51  1  0.312000  0.155000  0.984000  1
  C  C52  1  0.688000  0.845000  0.016000  1
  C  C53  1  0.314000  0.112000  0.054000  1
  C  C54  1  0.686000  0.888000  0.946000  1
  C  C55  1  0.373000  0.210000  0.304000  1
  C  C56  1  0.627000  0.790000  0.696000  1
  C  C57  1  0.316000  0.183000  0.332000  1
  C  C58  1  0.684000  0.817000  0.668000  1
  C  C59  1  0.346000  0.867000  0.407000  1
  C  C60  1  0.654000  0.133000  0.593000  1
  C  C61  1  0.339900  0.879000  0.464000  1
  C  C62  1  0.660100  0.121000  0.536000  1
  C  C63  1  0.155600  0.824700  0.528200  1.0
  C  C64  1  0.844400  0.175300  0.471800  1.0
  C  C65  1  0.162000  0.887100  0.473400  1.0
  C  C66  1  0.838000  0.112900  0.526600  1.0
  C  C67  1  0.148100  0.902000  0.409000  1.0
  C  C68  1  0.851900  0.098000  0.591000  1.0
  C  C69  1  0.120000  0.864000  0.402000  1.0
  C  C70  1  0.880000  0.136000  0.598000  1.0
  C  C71  1  0.098000  0.808000  0.460000  1.0
  C  C72  1  0.902000  0.192000  0.540000  1.0
  C  C73  1  0.118000  0.797000  0.517000  1.0
  C  C74  1  0.882000  0.203000  0.483000  1.0
  C  C75  1  0.164700  0.819600  0.585400  1.0
  C  C76  1  0.835300  0.180400  0.414600  1.0
  C  C77  1  0.155100  0.970200  0.358300  1.0
  C  C78  1  0.844900  0.029800  0.641700  1.0
  C  C79  1  0.405400  0.568700  0.672800  1.0
  C  C80  1  0.594600  0.431300  0.327200  1.0
  C  C81  1  0.369000  0.621800  0.677500  1.0
  C  C82  1  0.631000  0.378200  0.322500  1.0
  C  C83  1  0.308500  0.630500  0.693900  1.0
  C  C84  1  0.691500  0.369500  0.306100  1.0
  C  C85  1  0.278400  0.573000  0.713300  1.0
  C  C86  1  0.721600  0.427000  0.286700  1.0
  C  C87  1  0.322200  0.517000  0.715000  1.0
  C  C88  1  0.677800  0.483000  0.285000  1.0
  C  C89  1  0.379100  0.515000  0.692000  1.0
  C  C90  1  0.620900  0.485000  0.308000  1.0
  C  C91  1  0.470400  0.559700  0.663300  1.0
  C  C92  1  0.529600  0.440300  0.336700  1.0
  C  C93  1  0.268500  0.687500  0.691800  1.0
  C  C94  1  0.731500  0.312500  0.308200  1.0
  C  C95  1  0.543200  0.669500  0.363000  1.0
  C  C96  1  0.456800  0.330500  0.637000  1.0
  C  C97  1  0.550500  0.656600  0.424700  1.0
  C  C98  1  0.449500  0.343400  0.575300  1.0
  C  C99  1  0.551300  0.596500  0.477300  1.0
  C  C100  1  0.448700  0.403500  0.522700  1.0
  C  C101  1  0.549900  0.544000  0.463000  1.0
  C  C102  1  0.450100  0.456000  0.537000  1.0
  C  C103  1  0.538300  0.556000  0.401000  1.0
  C  C104  1  0.461700  0.444000  0.599000  1.0
  C  C105  1  0.538100  0.620000  0.354000  1.0
  C  C106  1  0.461900  0.380000  0.646000  1.0
  C  C107  1  0.544700  0.731100  0.312700  1.0
  C  C108  1  0.455300  0.268900  0.687300  1.0
  C  C109  1  0.656700  0.809200  0.244600  1.0
  C  C110  1  0.343300  0.190800  0.755400  1.0
  C  C111  1  0.077600  0.216800  0.408300  1.0
  C  C112  1  0.922400  0.783200  0.591700  1.0
  C  C113  1  0.104000  0.182600  0.384900  1.0
  C  C114  1  0.896000  0.817400  0.615100  1.0
  C  C115  1  0.085900  0.173500  0.337100  1.0
  C  C116  1  0.914100  0.826500  0.662900  1.0
  C  C117  1  0.029000  0.194000  0.332100  1.0
  C  C118  1  0.971000  0.806000  0.667900  1.0
  C  C119  1  0.986200  0.253000  0.343200  1.0
  C  C120  1  0.013800  0.747000  0.656800  1.0
  C  C121  1  0.026700  0.248000  0.386500  1.0
  C  C122  1  0.973300  0.752000  0.613500  1.0
  C  C123  1  0.098100  0.216900  0.458000  1.0
  C  C124  1  0.901900  0.783100  0.542000  1.0
  C  C125  1  0.122700  0.130300  0.318700  1.0
  C  C126  1  0.877300  0.869700  0.681300  1.0
  C  C127  1  0.557400  0.563100  0.888400  1.0
  C  C128  1  0.442600  0.436900  0.111600  1.0
  C  C129  1  0.565900  0.572000  0.828400  1.0
  C  C130  1  0.434100  0.428000  0.171600  1.0
  C  C131  1  0.577800  0.522100  0.816200  1.0
  C  C132  1  0.422200  0.477900  0.183800  1.0
  C  C133  1  0.582200  0.460200  0.864600  1.0
  C  C134  1  0.417800  0.539800  0.135400  1.0
  C  C135  1  0.571400  0.452600  0.924400  1.0
  C  C136  1  0.428600  0.547400  0.075600  1.0
  C  C137  1  0.561700  0.501600  0.936500  1.0
  C  C138  1  0.438300  0.498400  0.063500  1.0
  C  C139  1  0.543700  0.619300  0.902000  1.0
  C  C140  1  0.456300  0.380700  0.098000  1.0
  C  C141  1  0.580800  0.532800  0.750700  1.0
  C  C142  1  0.419200  0.467200  0.249300  1.0
  C  C143  1  0.090300  0.053500  0.655300  1.0
  C  C144  1  0.909700  0.946500  0.344700  1.0
  C  C145  1  0.119100  0.005000  0.652100  1.0
  C  C146  1  0.880900  0.995000  0.347900  1.0
  C  C147  1  0.100100  0.942000  0.685600  1.0
  C  C148  1  0.899900  0.058000  0.314400  1.0
  C  C149  1  0.046800  0.946600  0.709100  1.0
  C  C150  1  0.953200  0.053400  0.290900  1.0
  C  C151  1  0.008300  0.002000  0.713400  1.0
  C  C152  1  0.991700  0.998000  0.286600  1.0
  C  C153  1  0.030000  0.060000  0.679000  1.0
  C  C154  1  0.970000  0.940000  0.321000  1.0
  C  C155  1  0.101200  0.121600  0.612400  1.0
  C  C156  1  0.898800  0.878400  0.387600  1.0
  C  C157  1  0.143000  0.882500  0.683900  1.0
  C  C158  1  0.857000  0.117500  0.316100  1.0
  C  C159  1  0.379100  0.894400  0.189700  1.0
  C  C160  1  0.620900  0.105600  0.810300  1.0
  C  C161  1  0.340000  0.930500  0.214700  1.0
  C  C162  1  0.660000  0.069500  0.785300  1.0
  C  C163  1  0.281700  0.957900  0.204500  1.0
  C  C164  1  0.718300  0.042100  0.795500  1.0
  C  C165  1  0.255500  0.947600  0.158100  1.0
  C  C166  1  0.744500  0.052400  0.841900  1.0
  C  C167  1  0.296800  0.913300  0.129700  1.0
  C  C168  1  0.703200  0.086700  0.870300  1.0
  C  C169  1  0.357600  0.880800  0.144700  1.0
  C  C170  1  0.642400  0.119200  0.855300  1.0
  C  C171  1  0.444600  0.865400  0.201000  1.0
  C  C172  1  0.555400  0.134600  0.799000  1.0
  C  C173  1  0.243000  0.999800  0.226400  1.0
  C  C174  1  0.757000  0.000200  0.773600  1.0
  C  C175  1  0.483300  0.869500  0.945700  1.0
  C  C176  1  0.516700  0.130500  0.054300  1.0
  C  C177  1  0.471700  0.934400  0.901700  1.0
  C  C178  1  0.528300  0.065600  0.098300  1.0
  C  C179  1  0.457700  0.987400  0.911800  1.0
  C  C180  1  0.542300  0.012600  0.088200  1.0
  C  C181  1  0.457200  0.974200  0.973100  1.0
  C  C182  1  0.542800  0.025800  0.026900  1.0
  C  C183  1  0.471000  0.908200  0.020100  1.0
  C  C184  1  0.529000  0.091800  0.979900  1.0
  C  C185  1  0.482100  0.860200  0.004700  1.0
  C  C186  1  0.517900  0.139800  0.995300  1.0
  C  C187  1  0.499100  0.815800  0.931400  1.0
  C  C188  1  0.500900  0.184200  0.068600  1.0
  C  C189  1  0.550500  0.947200  0.139100  1.0
  C  C190  1  0.449500  0.052800  0.860900  1.0
  C  C191  1  0.691500  0.717900  0.908900  1.0
  C  C192  1  0.308500  0.282100  0.091100  1.0
  C  C193  1  0.709800  0.773500  0.862800  1.0
  C  C194  1  0.290200  0.226500  0.137200  1.0
  C  C195  1  0.770100  0.779000  0.862200  1.0
  C  C196  1  0.229900  0.221000  0.137800  1.0
  C  C197  1  0.805000  0.737600  0.909700  1.0
  C  C198  1  0.195000  0.262400  0.090300  1.0
  C  C199  1  0.788300  0.677600  0.963200  1.0
  C  C200  1  0.211700  0.322400  0.036800  1.0
  C  C201  1  0.731200  0.667800  0.959700  1.0
  C  C202  1  0.268800  0.332200  0.040300  1.0
  C  C203  1  0.627900  0.720000  0.908700  1.0
  C  C204  1  0.372100  0.280000  0.091300  1.0
  C  C205  1  0.212400  0.159000  0.189900  1.0
  C  C206  1  0.787600  0.841000  0.810100  1.0
  C  C207  1  0.809900  0.768300  0.312000  1.0
  C  C208  1  0.190100  0.231700  0.688000  1.0
  C  C209  1  0.749400  0.792500  0.296500  1.0
  C  C210  1  0.250600  0.207500  0.703500  1.0
  C  C211  1  0.725000  0.787100  0.252400  1.0
  C  C212  1  0.275000  0.212900  0.747600  1.0
  C  C213  1  0.759500  0.757500  0.221600  1.0
  C  C214  1  0.240500  0.242500  0.778400  1.0
  C  C215  1  0.821000  0.731000  0.230000  1.0
  C  C216  1  0.179000  0.269000  0.770000  1.0
  C  C217  1  0.846600  0.731300  0.284500  1.0
  C  C218  1  0.153400  0.268700  0.715500  1.0
  C  C219  1  0.165300  0.228800  0.636800  1.0
  C  C220  1  0.834700  0.771200  0.363200  1.0
  C  C221  1  0.563900  0.579000  0.540200  1.0
  C  C222  1  0.436100  0.421000  0.459800  1.0
  C  C223  1  0.747500  0.547900  0.605900  1.0
  C  C224  1  0.252500  0.452100  0.394100  1.0
  C  C225  1  0.767100  0.603600  0.574600  1.0
  C  C226  1  0.232900  0.396400  0.425400  1.0
  C  C227  1  0.820100  0.606700  0.553600  1.0
  C  C228  1  0.179900  0.393300  0.446400  1.0
  C  C229  1  0.858800  0.547000  0.563200  1.0
  C  C230  1  0.141200  0.453000  0.436800  1.0
  C  C231  1  0.846000  0.482000  0.599700  1.0
  C  C232  1  0.154000  0.518000  0.400300  1.0
  C  C233  1  0.793700  0.490000  0.622400  1.0
  C  C234  1  0.206300  0.510000  0.377600  1.0
  C  C235  1  0.679900  0.553700  0.624300  1.0
  C  C236  1  0.320100  0.446300  0.375700  1.0
  C  C237  1  0.154400  0.332700  0.482700  1.0
  C  C238  1  0.845600  0.667300  0.517300  1.0
  C  C239  1  0.354700  0.722400  0.910000  1.0
  C  C240  1  0.645300  0.277600  0.090000  1.0
  C  C241  1  0.325900  0.737200  0.854600  1.0
  C  C242  1  0.674100  0.262800  0.145400  1.0
  C  C243  1  0.267200  0.736600  0.846700  1.0
  C  C244  1  0.732800  0.263400  0.153300  1.0
  C  C245  1  0.232800  0.712000  0.898000  1.0
  C  C246  1  0.767200  0.288000  0.102000  1.0
  C  C247  1  0.261900  0.691000  0.959000  1.0
  C  C248  1  0.738100  0.309000  0.041000  1.0
  C  C249  1  0.320000  0.699900  0.968800  1.0
  C  C250  1  0.680000  0.300100  0.031200  1.0
  C  C251  1  0.414800  0.721600  0.915100  1.0
  C  C252  1  0.585200  0.278400  0.084900  1.0
  C  C253  1  0.246200  0.752800  0.787600  1.0
  C  C254  1  0.753800  0.247200  0.212400  1.0
  C  C255  1  0.627200  0.718900  0.154400  1.0
  C  C256  1  0.372800  0.281100  0.845600  1.0
  C  C257  1  0.636300  0.706900  0.064500  1.0
  C  C258  1  0.363700  0.293100  0.935500  1.0
  C  C259  1  0.709000  0.633000  0.139000  1.0
  C  C260  1  0.291000  0.367000  0.861000  1.0
  C  C261  1  0.485600  0.665400  0.092300  1.0
  C  C262  1  0.514400  0.334600  0.907700  1.0
  C  C263  1  0.533800  0.602600  0.191600  1.0
  C  C264  1  0.466200  0.397400  0.808400  1.0
  C  C265  1  0.452700  0.691500  0.175600  1.0
  C  C266  1  0.547300  0.308500  0.824400  1.0
  C  C267  1  0.601000  0.369000  0.648800  1.0
  C  C268  1  0.399000  0.631000  0.351200  1.0
  C  C269  1  0.663000  0.287000  0.706000  1.0
  C  C270  1  0.337000  0.713000  0.294000  1.0
  C  C271  1  0.625000  0.325000  0.608000  1.0
  C  C272  1  0.375000  0.675000  0.392000  1.0
  C  C273  1  0.483000  0.953000  0.281000  1.0
  C  C274  1  0.517000  0.047000  0.719000  1.0
  C  C275  1  0.425000  0.073000  0.244000  1.0
  C  C276  1  0.575000  0.927000  0.756000  1.0
  C  C277  1  0.447000  0.004000  0.348000  1.0
  C  C278  1  0.553000  0.996000  0.652000  1.0
  C  C279  1  0.300700  0.196000  0.539000  1.0
  C  C280  1  0.699300  0.804000  0.461000  1.0
  C  C281  1  0.394000  0.243000  0.515000  1.0
  C  C282  1  0.606000  0.757000  0.485000  1.0
  C  C283  1  0.368000  0.151000  0.597000  1.0
  C  C284  1  0.632000  0.849000  0.403000  1.0
  C  C285  1  0.269100  0.922000  0.577000  1.0
  C  C286  1  0.730900  0.078000  0.423000  1.0
  C  C287  1  0.234300  0.037000  0.494000  1.0
  C  C288  1  0.765700  0.963000  0.506000  1.0
  C  C289  1  0.337000  0.997000  0.505000  1.0
  C  C290  1  0.663000  0.003000  0.495000  1.0
  C  C291  1  0.455000  0.783000  0.710000  1.0
  C  C292  1  0.545000  0.217000  0.290000  1.0
  C  C293  1  0.512000  0.706000  0.651000  1.0
  C  C294  1  0.488000  0.294000  0.349000  1.0
  C  C295  1  0.440000  0.732000  0.655000  1.0
  C  C296  1  0.560000  0.268000  0.345000  1.0
  N  N297  1  0.634400  0.467700  0.115600  1
  N  N298  1  0.365600  0.532300  0.884400  1
  N  N299  1  0.179000  0.328100  0.316000  1
  N  N300  1  0.821000  0.671900  0.684000  1
  N  N301  1  0.279000  0.378000  0.602000  1
  N  N302  1  0.721000  0.622000  0.398000  1
  N  N303  1  0.654800  0.677900  0.125300  1.0
  N  N304  1  0.345200  0.322100  0.874700  1.0
  N  N305  1  0.490400  0.651900  0.155700  1.0
  N  N306  1  0.509600  0.348100  0.844300  1.0
  N  N307  1  0.615000  0.298000  0.670000  1.0
  N  N308  1  0.385000  0.702000  0.330000  1.0
  N  N309  1  0.451000  0.011000  0.288000  1.0
  N  N310  1  0.549000  0.989000  0.712000  1.0
  N  N311  1  0.365000  0.193000  0.534000  1.0
  N  N312  1  0.635000  0.807000  0.466000  1.0
  N  N313  1  0.281000  0.984100  0.527000  1.0
  N  N314  1  0.719000  0.015900  0.473000  1.0
  N  N315  1  0.481000  0.752000  0.674000  1.0
  N  N316  1  0.519000  0.248000  0.326000  1.0
  O  O317  1  0.705400  0.539000  0.086900  1
  O  O318  1  0.294600  0.461000  0.913100  1
  O  O319  1  0.191900  0.211200  0.340900  1
  O  O320  1  0.808100  0.788800  0.659100  1
  O  O321  1  0.251000  0.405000  0.688000  1
  O  O322  1  0.749000  0.595000  0.312000  1
  O  O323  1  0.293000  0.983000  0.665000  1
  O  O324  1  0.707000  0.017000  0.335000  1
  O  O325  1  0.869000  0.117000  0.766000  1
  O  O326  1  0.131000  0.883000  0.234000  1
  O  O327  1  0.262000  0.202000  0.946000  1
  O  O328  1  0.738000  0.798000  0.054000  1
  O  O329  1  0.389000  0.263000  0.306000  1
  O  O330  1  0.611000  0.737000  0.694000  1
  O  O331  1  0.314000  0.837000  0.385000  1
  O  O332  1  0.686000  0.163000  0.615000  1
  O  O333  1  0.500000  0.000000  0.500000  1
  O  O334  1  0.089200  0.279200  0.291500  1
  O  O335  1  0.910800  0.720800  0.708500  1
  O  O336  1  0.119400  0.961900  0.767600  1
  O  O337  1  0.880600  0.038100  0.232400  1
  O  O338  1  0.195800  0.778500  0.449000  1
  O  O339  1  0.804200  0.221500  0.551000  1
  O  O340  1  0.215000  0.973500  0.701300  1
  O  O341  1  0.785000  0.026500  0.298700  1
  O  O342  1  0.212300  0.838600  0.582600  1.0
  O  O343  1  0.787700  0.161400  0.417400  1.0
  O  O344  1  0.139200  0.782300  0.630600  1.0
  O  O345  1  0.860800  0.217700  0.369400  1.0
  O  O346  1  0.201600  0.982500  0.368100  1.0
  O  O347  1  0.798400  0.017500  0.631900  1.0
  O  O348  1  0.127200  0.991100  0.312900  1.0
  O  O349  1  0.872800  0.008900  0.687100  1.0
  O  O350  1  0.486200  0.614900  0.638500  1.0
  O  O351  1  0.513800  0.385100  0.361500  1.0
  O  O352  1  0.502900  0.508400  0.670300  1.0
  O  O353  1  0.497100  0.491600  0.329700  1.0
  O  O354  1  0.217500  0.682700  0.712600  1.0
  O  O355  1  0.782500  0.317300  0.287400  1.0
  O  O356  1  0.293300  0.735100  0.664300  1.0
  O  O357  1  0.706700  0.264900  0.335700  1.0
  O  O358  1  0.543100  0.776200  0.327200  1.0
  O  O359  1  0.456900  0.223800  0.672800  1.0
  O  O360  1  0.552200  0.735400  0.261300  1.0
  O  O361  1  0.447800  0.264600  0.738700  1.0
  O  O362  1  0.558400  0.631900  0.545100  1.0
  O  O363  1  0.441600  0.368100  0.454900  1.0
  O  O364  1  0.575700  0.521700  0.576700  1.0
  O  O365  1  0.424300  0.478300  0.423300  1.0
  O  O366  1  0.150300  0.199000  0.472400  1.0
  O  O367  1  0.849700  0.801000  0.527600  1.0
  O  O368  1  0.061900  0.249700  0.486100  1.0
  O  O369  1  0.938100  0.750300  0.513900  1.0
  O  O370  1  0.094200  0.116700  0.284100  1.0
  O  O371  1  0.905800  0.883300  0.715900  1.0
  O  O372  1  0.172100  0.118600  0.330400  1.0
  O  O373  1  0.827900  0.881400  0.669600  1.0
  O  O374  1  0.543200  0.675800  0.854500  1.0
  O  O375  1  0.456800  0.324200  0.145500  1.0
  O  O376  1  0.533700  0.610600  0.955700  1.0
  O  O377  1  0.466300  0.389400  0.044300  1.0
  O  O378  1  0.577400  0.590300  0.711800  1.0
  O  O379  1  0.422600  0.409700  0.288200  1.0
  O  O380  1  0.590900  0.483900  0.744100  1.0
  O  O381  1  0.409100  0.516100  0.255900  1.0
  O  O382  1  0.155300  0.117800  0.592400  1.0
  O  O383  1  0.844700  0.882200  0.407600  1.0
  O  O384  1  0.067000  0.172000  0.608300  1.0
  O  O385  1  0.933000  0.828000  0.391700  1.0
  O  O386  1  0.113200  0.836700  0.704200  1.0
  O  O387  1  0.886800  0.163300  0.295800  1.0
  O  O388  1  0.192300  0.888900  0.666100  1.0
  O  O389  1  0.807700  0.111100  0.333900  1.0
  O  O390  1  0.270400  0.998700  0.267200  1.0
  O  O391  1  0.729600  0.001300  0.732800  1.0
  O  O392  1  0.192500  0.023400  0.208400  1.0
  O  O393  1  0.807500  0.976600  0.791600  1.0
  O  O394  1  0.463400  0.872900  0.244200  1.0
  O  O395  1  0.536600  0.127100  0.755800  1.0
  O  O396  1  0.475800  0.834600  0.178800  1.0
  O  O397  1  0.524200  0.165400  0.821200  1.0
  O  O398  1  0.496900  0.826600  0.876800  1.0
  O  O399  1  0.503100  0.173400  0.123200  1.0
  O  O400  1  0.512600  0.761300  0.976600  1.0
  O  O401  1  0.487400  0.238700  0.023400  1.0
  O  O402  1  0.546500  0.941600  0.190200  1.0
  O  O403  1  0.453500  0.058400  0.809800  1.0
  O  O404  1  0.560900  0.904200  0.124600  1.0
  O  O405  1  0.439100  0.095800  0.875400  1.0
  O  O406  1  0.610000  0.677300  0.960600  1.0
  O  O407  1  0.390000  0.322700  0.039400  1.0
  O  O408  1  0.600400  0.756700  0.863100  1.0
  O  O409  1  0.399600  0.243300  0.136900  1.0
  O  O410  1  0.164000  0.150300  0.182200  1.0
  O  O411  1  0.836000  0.849700  0.817800  1.0
  O  O412  1  0.248700  0.125200  0.233800  1.0
  O  O413  1  0.751300  0.874800  0.766200  1.0
  O  O414  1  0.201500  0.200900  0.612500  1.0
  O  O415  1  0.798500  0.799100  0.387500  1.0
  O  O416  1  0.112700  0.256800  0.624700  1.0
  O  O417  1  0.887300  0.743200  0.375300  1.0
  O  O418  1  0.628200  0.838600  0.269400  1.0
  O  O419  1  0.371800  0.161400  0.730600  1.0
  O  O420  1  0.643600  0.800200  0.201700  1.0
  O  O421  1  0.356400  0.199800  0.798300  1.0
  O  O422  1  0.653500  0.606100  0.617000  1.0
  O  O423  1  0.346500  0.393900  0.383000  1.0
  O  O424  1  0.666900  0.499200  0.649700  1.0
  O  O425  1  0.333100  0.500800  0.350300  1.0
  O  O426  1  0.195400  0.283600  0.492000  1.0
  O  O427  1  0.804600  0.716400  0.508000  1.0
  O  O428  1  0.103300  0.338200  0.502100  1.0
  O  O429  1  0.896700  0.661800  0.497900  1.0
  O  O430  1  0.436300  0.752600  0.861400  1.0
  O  O431  1  0.563700  0.247400  0.138600  1.0
  O  O432  1  0.436900  0.697700  0.964500  1.0
  O  O433  1  0.563100  0.302300  0.035500  1.0
  O  O434  1  0.273900  0.786300  0.740700  1.0
  O  O435  1  0.726100  0.213700  0.259300  1.0
  O  O436  1  0.195700  0.741900  0.789400  1.0
  O  O437  1  0.804300  0.258100  0.210600  1.0
  O  O438  1  0.578000  0.767600  0.131300  1.0
  O  O439  1  0.422000  0.232400  0.868700  1.0
  O  O440  1  0.523900  0.630000  0.068300  1.0
  O  O441  1  0.476100  0.370000  0.931700  1.0
  O  O442  1  0.605200  0.394600  0.687100  1.0
  O  O443  1  0.394800  0.605400  0.312900  1.0
  O  O444  1  0.528400  0.907100  0.319900  1.0
  O  O445  1  0.471600  0.092900  0.680100  1.0
  O  O446  1  0.274600  0.155500  0.530200  1.0
  O  O447  1  0.725400  0.844500  0.469800  1.0
  O  O448  1  0.312600  0.871800  0.614500  1.0
  O  O449  1  0.687400  0.128200  0.385500  1.0
  O  O450  1  0.550500  0.721100  0.600800  1.0
  O  O451  1  0.449500  0.278900  0.399200  1.0
  O  O452  1  0.991900  0.303400  0.570100  1.0
  O  O453  1  0.008100  0.696600  0.429900  1.0
  O  O454  1  0.069700  0.090100  0.180700  1.0
  O  O455  1  0.930300  0.909900  0.819300  1.0
  O  O456  1  0.099500  0.698700  0.764500  1.0
  O  O457  1  0.900500  0.301300  0.235500  1.0
  O  O458  1  0.514200  0.809900  0.756900  1.0
  O  O459  1  0.485800  0.190100  0.243100  1.0
  O  O460  1  0.303700  0.039600  0.354200  1.0
  O  O461  1  0.696300  0.960400  0.645800  1.0
