# generated using pymatgen
data_Cu3H12C24O29
_symmetry_space_group_name_H-M   'P 1'
_cell_length_a   24.00795624
_cell_length_b   24.00795624
_cell_length_c   24.00795624
_cell_angle_alpha   109.47122063
_cell_angle_beta   109.47122063
_cell_angle_gamma   109.47122063
_symmetry_Int_Tables_number   1
_chemical_formula_structural   Cu3H12C24O29
_chemical_formula_sum   'Cu24 H96 C192 O232'
_cell_volume   10652.30718552
_cell_formula_units_Z   8
loop_
 _symmetry_equiv_pos_site_id
 _symmetry_equiv_pos_as_xyz
  1  'x, y, z'
loop_
 _atom_site_type_symbol
 _atom_site_label
 _atom_site_symmetry_multiplicity
 _atom_site_fract_x
 _atom_site_fract_y
 _atom_site_fract_z
 _atom_site_occupancy
  C  C1  1  0.585200  0.740400  0.585200  1.0
  C  C2  1  0.155200  0.155200  0.740400  1.0
  C  C3  1  0.155200  1.000000  0.414800  1.0
  C  C4  1  0.740400  0.585200  0.585200  1.0
  C  C5  1  0.414800  0.000000  0.155200  1.0
  C  C6  1  0.585200  0.844800  0.000000  1.0
  C  C7  1  0.000000  0.844800  0.585200  1.0
  C  C8  1  0.844800  0.585200  0.000000  1.0
  C  C9  1  0.844800  0.259600  0.844800  1.0
  C  C10  1  0.259600  0.844800  0.844800  1.0
  C  C11  1  0.414800  0.414800  0.259600  1.0
  C  C12  1  0.000000  0.585200  0.844800  1.0
  C  C13  1  0.000000  0.155200  0.414800  1.0
  C  C14  1  0.259600  0.414800  0.414800  1.0
  C  C15  1  0.000000  0.414800  0.155200  1.0
  C  C16  1  0.740400  0.155200  0.155200  1.0
  C  C17  1  0.585200  0.585200  0.740400  1.0
  C  C18  1  0.844800  0.000000  0.585200  1.0
  C  C19  1  0.585200  1.000000  0.844800  1.0
  C  C20  1  0.844800  0.844800  0.259600  1.0
  C  C21  1  0.414800  0.259600  0.414800  1.0
  C  C22  1  0.155200  0.414800  0.000000  1.0
  C  C23  1  0.414800  0.155200  0.000000  1.0
  C  C24  1  0.155200  0.740400  0.155200  1.0
  C  C25  1  0.461800  0.672200  0.461800  1.0
  C  C26  1  0.210400  0.210400  0.672200  1.0
  C  C27  1  0.210400  1.000000  0.538200  1.0
  C  C28  1  0.672200  0.461800  0.461800  1.0
  C  C29  1  0.538200  0.000000  0.210400  1.0
  C  C30  1  0.461800  0.789600  0.000000  1.0
  C  C31  1  0.000000  0.789600  0.461800  1.0
  C  C32  1  0.789600  0.461800  0.000000  1.0
  C  C33  1  0.789600  0.327800  0.789600  1.0
  C  C34  1  0.327800  0.789600  0.789600  1.0
  C  C35  1  0.538200  0.538200  0.327800  1.0
  C  C36  1  0.000000  0.461800  0.789600  1.0
  C  C37  1  0.000000  0.210400  0.538200  1.0
  C  C38  1  0.327800  0.538200  0.538200  1.0
  C  C39  1  0.000000  0.538200  0.210400  1.0
  C  C40  1  0.672200  0.210400  0.210400  1.0
  C  C41  1  0.461800  0.461800  0.672200  1.0
  C  C42  1  0.789600  0.000000  0.461800  1.0
  C  C43  1  0.461800  1.000000  0.789600  1.0
  C  C44  1  0.789600  0.789600  0.327800  1.0
  C  C45  1  0.538200  0.327800  0.538200  1.0
  C  C46  1  0.210400  0.538200  1.000000  1.0
  C  C47  1  0.538200  0.210400  0.000000  1.0
  C  C48  1  0.210400  0.672200  0.210400  1.0
  C  C49  1  0.521700  0.740900  0.652800  1.0
  C  C50  1  0.088100  0.219200  0.740900  1.0
  C  C51  1  0.088100  0.868900  0.347200  1.0
  C  C52  1  0.740900  0.652800  0.521700  1.0
  C  C53  1  0.478300  0.131100  0.219200  1.0
  C  C54  1  0.521700  0.780800  0.868900  1.0
  C  C55  1  0.131100  0.911900  0.652800  1.0
  C  C56  1  0.911900  0.652800  0.131100  1.0
  C  C57  1  0.911900  0.259100  0.780800  1.0
  C  C58  1  0.259100  0.780800  0.911900  1.0
  C  C59  1  0.478300  0.347200  0.259100  1.0
  C  C60  1  0.868900  0.521700  0.780800  1.0
  C  C61  1  0.131100  0.219200  0.478300  1.0
  C  C62  1  0.259100  0.478300  0.347200  1.0
  C  C63  1  0.868900  0.347200  0.088100  1.0
  C  C64  1  0.740900  0.088100  0.219200  1.0
  C  C65  1  0.652800  0.521700  0.740900  1.0
  C  C66  1  0.780800  0.868900  0.521700  1.0
  C  C67  1  0.652800  0.131100  0.911900  1.0
  C  C68  1  0.780800  0.911900  0.259100  1.0
  C  C69  1  0.347200  0.259100  0.478300  1.0
  C  C70  1  0.219200  0.478300  0.131100  1.0
  C  C71  1  0.347200  0.088100  0.868900  1.0
  C  C72  1  0.219200  0.740900  0.088100  1.0
  C  C73  1  0.478300  0.259100  0.347200  1.0
  C  C74  1  0.911900  0.780800  0.259100  1.0
  C  C75  1  0.911900  0.131100  0.652800  1.0
  C  C76  1  0.259100  0.347200  0.478300  1.0
  C  C77  1  0.521700  0.868900  0.780800  1.0
  C  C78  1  0.478300  0.219200  0.131100  1.0
  C  C79  1  0.868900  0.088100  0.347200  1.0
  C  C80  1  0.088100  0.347200  0.868900  1.0
  C  C81  1  0.088100  0.740900  0.219200  1.0
  C  C82  1  0.740900  0.219200  0.088100  1.0
  C  C83  1  0.521700  0.652800  0.740900  1.0
  C  C84  1  0.131100  0.478300  0.219200  1.0
  C  C85  1  0.868900  0.780800  0.521700  1.0
  C  C86  1  0.740900  0.521700  0.652800  1.0
  C  C87  1  0.131100  0.652800  0.911900  1.0
  C  C88  1  0.259100  0.911900  0.780800  1.0
  C  C89  1  0.347200  0.478300  0.259100  1.0
  C  C90  1  0.219200  0.131100  0.478300  1.0
  C  C91  1  0.347200  0.868900  0.088100  1.0
  C  C92  1  0.219200  0.088100  0.740900  1.0
  C  C93  1  0.652800  0.740900  0.521700  1.0
  C  C94  1  0.780800  0.521700  0.868900  1.0
  C  C95  1  0.652800  0.911900  0.131100  1.0
  C  C96  1  0.780800  0.259100  0.911900  1.0
  C  C97  1  0.525100  0.724900  0.587600  1.0
  C  C98  1  0.137300  0.199800  0.724900  1.0
  C  C99  1  0.137300  0.937500  0.412400  1.0
  C  C100  1  0.724900  0.587600  0.525100  1.0
  C  C101  1  0.474900  0.062500  0.199800  1.0
  C  C102  1  0.525100  0.800200  0.937500  1.0
  C  C103  1  0.062500  0.862700  0.587600  1.0
  C  C104  1  0.862700  0.587600  0.062500  1.0
  C  C105  1  0.862700  0.275100  0.800200  1.0
  C  C106  1  0.275100  0.800200  0.862700  1.0
  C  C107  1  0.474900  0.412400  0.275100  1.0
  C  C108  1  0.937500  0.525100  0.800200  1.0
  C  C109  1  0.062500  0.199800  0.474900  1.0
  C  C110  1  0.275100  0.474900  0.412400  1.0
  C  C111  1  0.937500  0.412400  0.137300  1.0
  C  C112  1  0.724900  0.137300  0.199800  1.0
  C  C113  1  0.587600  0.525100  0.724900  1.0
  C  C114  1  0.800200  0.937500  0.525100  1.0
  C  C115  1  0.587600  0.062500  0.862700  1.0
  C  C116  1  0.800200  0.862700  0.275100  1.0
  C  C117  1  0.412400  0.275100  0.474900  1.0
  C  C118  1  0.199800  0.474900  0.062500  1.0
  C  C119  1  0.412400  0.137300  0.937500  1.0
  C  C120  1  0.199800  0.724900  0.137300  1.0
  C  C121  1  0.474900  0.275100  0.412400  1.0
  C  C122  1  0.862700  0.800200  0.275100  1.0
  C  C123  1  0.862700  0.062500  0.587600  1.0
  C  C124  1  0.275100  0.412400  0.474900  1.0
  C  C125  1  0.525100  0.937500  0.800200  1.0
  C  C126  1  0.474900  0.199800  0.062500  1.0
  C  C127  1  0.937500  0.137300  0.412400  1.0
  C  C128  1  0.137300  0.412400  0.937500  1.0
  C  C129  1  0.137300  0.724900  0.199800  1.0
  C  C130  1  0.724900  0.199800  0.137300  1.0
  C  C131  1  0.525100  0.587600  0.724900  1.0
  C  C132  1  0.062500  0.474900  0.199800  1.0
  C  C133  1  0.937500  0.800200  0.525100  1.0
  C  C134  1  0.724900  0.525100  0.587600  1.0
  C  C135  1  0.062500  0.587600  0.862700  1.0
  C  C136  1  0.275100  0.862700  0.800200  1.0
  C  C137  1  0.412400  0.474900  0.275100  1.0
  C  C138  1  0.199800  0.062500  0.474900  1.0
  C  C139  1  0.412400  0.937500  0.137300  1.0
  C  C140  1  0.199800  0.137300  0.724900  1.0
  C  C141  1  0.587600  0.724900  0.525100  1.0
  C  C142  1  0.800200  0.525100  0.937500  1.0
  C  C143  1  0.587600  0.862700  0.062500  1.0
  C  C144  1  0.800200  0.275100  0.862700  1.0
  C  C145  1  0.465600  0.692500  0.526900  1.0
  C  C146  1  0.165600  0.226900  0.692500  1.0
  C  C147  1  0.165600  0.938700  0.473100  1.0
  C  C148  1  0.692500  0.526900  0.465600  1.0
  C  C149  1  0.534400  0.061300  0.226900  1.0
  C  C150  1  0.465600  0.773100  0.938700  1.0
  C  C151  1  0.061300  0.834400  0.526900  1.0
  C  C152  1  0.834400  0.526900  0.061300  1.0
  C  C153  1  0.834400  0.307500  0.773100  1.0
  C  C154  1  0.307500  0.773100  0.834400  1.0
  C  C155  1  0.534400  0.473100  0.307500  1.0
  C  C156  1  0.938700  0.465600  0.773100  1.0
  C  C157  1  0.061300  0.226900  0.534400  1.0
  C  C158  1  0.307500  0.534400  0.473100  1.0
  C  C159  1  0.938700  0.473100  0.165600  1.0
  C  C160  1  0.692500  0.165600  0.226900  1.0
  C  C161  1  0.526900  0.465600  0.692500  1.0
  C  C162  1  0.773100  0.938700  0.465600  1.0
  C  C163  1  0.526900  0.061300  0.834400  1.0
  C  C164  1  0.773100  0.834400  0.307500  1.0
  C  C165  1  0.473100  0.307500  0.534400  1.0
  C  C166  1  0.226900  0.534400  0.061300  1.0
  C  C167  1  0.473100  0.165600  0.938700  1.0
  C  C168  1  0.226900  0.692500  0.165600  1.0
  C  C169  1  0.534400  0.307500  0.473100  1.0
  C  C170  1  0.834400  0.773100  0.307500  1.0
  C  C171  1  0.834400  0.061300  0.526900  1.0
  C  C172  1  0.307500  0.473100  0.534400  1.0
  C  C173  1  0.465600  0.938700  0.773100  1.0
  C  C174  1  0.534400  0.226900  0.061300  1.0
  C  C175  1  0.938700  0.165600  0.473100  1.0
  C  C176  1  0.165600  0.473100  0.938700  1.0
  C  C177  1  0.165600  0.692500  0.226900  1.0
  C  C178  1  0.692500  0.226900  0.165600  1.0
  C  C179  1  0.465600  0.526900  0.692500  1.0
  C  C180  1  0.061300  0.534400  0.226900  1.0
  C  C181  1  0.938700  0.773100  0.465600  1.0
  C  C182  1  0.692500  0.465600  0.526900  1.0
  C  C183  1  0.061300  0.526900  0.834400  1.0
  C  C184  1  0.307500  0.834400  0.773100  1.0
  C  C185  1  0.473100  0.534400  0.307500  1.0
  C  C186  1  0.226900  0.061300  0.534400  1.0
  C  C187  1  0.473100  0.938700  0.165600  1.0
  C  C188  1  0.226900  0.165600  0.692500  1.0
  C  C189  1  0.526900  0.692500  0.465600  1.0
  C  C190  1  0.773100  0.465600  0.938700  1.0
  C  C191  1  0.526900  0.834400  0.061300  1.0
  C  C192  1  0.773100  0.307500  0.834400  1.0
  Cu  Cu193  1  0.590600  0.795300  0.795300  1.0
  Cu  Cu194  1  0.000000  0.204700  0.795300  1.0
  Cu  Cu195  1  0.000000  0.795300  0.204700  1.0
  Cu  Cu196  1  0.795300  0.795300  0.590600  1.0
  Cu  Cu197  1  0.409400  0.204700  0.204700  1.0
  Cu  Cu198  1  0.204700  0.000000  0.795300  1.0
  Cu  Cu199  1  0.204700  0.795300  1.000000  1.0
  Cu  Cu200  1  0.795300  0.590600  0.795300  1.0
  Cu  Cu201  1  0.204700  0.204700  0.409400  1.0
  Cu  Cu202  1  0.204700  0.409400  0.204700  1.0
  Cu  Cu203  1  0.795300  0.204700  0.000000  1.0
  Cu  Cu204  1  0.795300  0.000000  0.204700  1.0
  Cu  Cu205  1  0.456000  0.728000  0.728000  1.0
  Cu  Cu206  1  0.000000  0.272000  0.728000  1.0
  Cu  Cu207  1  0.000000  0.728000  0.272000  1.0
  Cu  Cu208  1  0.728000  0.728000  0.456000  1.0
  Cu  Cu209  1  0.544000  0.272000  0.272000  1.0
  Cu  Cu210  1  0.272000  1.000000  0.728000  1.0
  Cu  Cu211  1  0.272000  0.728000  1.000000  1.0
  Cu  Cu212  1  0.728000  0.456000  0.728000  1.0
  Cu  Cu213  1  0.272000  0.272000  0.544000  1.0
  Cu  Cu214  1  0.272000  0.544000  0.272000  1.0
  Cu  Cu215  1  0.728000  0.272000  0.000000  1.0
  Cu  Cu216  1  0.728000  0.000000  0.272000  1.0
  H  H217  1  0.625900  0.762200  0.625900  1.0
  H  H218  1  0.136300  0.136300  0.762200  1.0
  H  H219  1  0.136300  0.000000  0.374100  1.0
  H  H220  1  0.762200  0.625900  0.625900  1.0
  H  H221  1  0.374100  1.000000  0.136300  1.0
  H  H222  1  0.625900  0.863700  0.000000  1.0
  H  H223  1  0.000000  0.863700  0.625900  1.0
  H  H224  1  0.863700  0.625900  0.000000  1.0
  H  H225  1  0.863700  0.237800  0.863700  1.0
  H  H226  1  0.237800  0.863700  0.863700  1.0
  H  H227  1  0.374100  0.374100  0.237800  1.0
  H  H228  1  0.000000  0.625900  0.863700  1.0
  H  H229  1  0.000000  0.136300  0.374100  1.0
  H  H230  1  0.237800  0.374100  0.374100  1.0
  H  H231  1  0.000000  0.374100  0.136300  1.0
  H  H232  1  0.762200  0.136300  0.136300  1.0
  H  H233  1  0.625900  0.625900  0.762200  1.0
  H  H234  1  0.863700  0.000000  0.625900  1.0
  H  H235  1  0.625900  0.000000  0.863700  1.0
  H  H236  1  0.863700  0.863700  0.237800  1.0
  H  H237  1  0.374100  0.237800  0.374100  1.0
  H  H238  1  0.136300  0.374100  1.000000  1.0
  H  H239  1  0.374100  0.136300  0.000000  1.0
  H  H240  1  0.136300  0.762200  0.136300  1.0
  H  H241  1  0.420900  0.648200  0.420900  1.0
  H  H242  1  0.227300  0.227300  0.648200  1.0
  H  H243  1  0.227300  0.000000  0.579100  1.0
  H  H244  1  0.648200  0.420900  0.420900  1.0
  H  H245  1  0.579100  0.000000  0.227300  1.0
  H  H246  1  0.420900  0.772700  0.000000  1.0
  H  H247  1  0.000000  0.772700  0.420900  1.0
  H  H248  1  0.772700  0.420900  0.000000  1.0
  H  H249  1  0.772700  0.351800  0.772700  1.0
  H  H250  1  0.351800  0.772700  0.772700  1.0
  H  H251  1  0.579100  0.579100  0.351800  1.0
  H  H252  1  0.000000  0.420900  0.772700  1.0
  H  H253  1  0.000000  0.227300  0.579100  1.0
  H  H254  1  0.351800  0.579100  0.579100  1.0
  H  H255  1  0.000000  0.579100  0.227300  1.0
  H  H256  1  0.648200  0.227300  0.227300  1.0
  H  H257  1  0.420900  0.420900  0.648200  1.0
  H  H258  1  0.772700  0.000000  0.420900  1.0
  H  H259  1  0.420900  0.000000  0.772700  1.0
  H  H260  1  0.772700  0.772700  0.351800  1.0
  H  H261  1  0.579100  0.351800  0.579100  1.0
  H  H262  1  0.227300  0.579100  1.000000  1.0
  H  H263  1  0.579100  0.227300  1.000000  1.0
  H  H264  1  0.227300  0.648200  0.227300  1.0
  H  H265  1  0.425300  0.683200  0.528100  1.0
  H  H266  1  0.155100  0.257900  0.683200  1.0
  H  H267  1  0.155100  0.897200  0.471900  1.0
  H  H268  1  0.683200  0.528100  0.425300  1.0
  H  H269  1  0.574700  0.102800  0.257900  1.0
  H  H270  1  0.425300  0.742100  0.897200  1.0
  H  H271  1  0.102800  0.844900  0.528100  1.0
  H  H272  1  0.844900  0.528100  0.102800  1.0
  H  H273  1  0.844900  0.316800  0.742100  1.0
  H  H274  1  0.316800  0.742100  0.844900  1.0
  H  H275  1  0.574700  0.471900  0.316800  1.0
  H  H276  1  0.897200  0.425300  0.742100  1.0
  H  H277  1  0.102800  0.257900  0.574700  1.0
  H  H278  1  0.316800  0.574700  0.471900  1.0
  H  H279  1  0.897200  0.471900  0.155100  1.0
  H  H280  1  0.683200  0.155100  0.257900  1.0
  H  H281  1  0.528100  0.425300  0.683200  1.0
  H  H282  1  0.742100  0.897200  0.425300  1.0
  H  H283  1  0.528100  0.102800  0.844900  1.0
  H  H284  1  0.742100  0.844900  0.316800  1.0
  H  H285  1  0.471900  0.316800  0.574700  1.0
  H  H286  1  0.257900  0.574700  0.102800  1.0
  H  H287  1  0.471900  0.155100  0.897200  1.0
  H  H288  1  0.257900  0.683200  0.155100  1.0
  H  H289  1  0.574700  0.316800  0.471900  1.0
  H  H290  1  0.844900  0.742100  0.316800  1.0
  H  H291  1  0.844900  0.102800  0.528100  1.0
  H  H292  1  0.316800  0.471900  0.574700  1.0
  H  H293  1  0.425300  0.897200  0.742100  1.0
  H  H294  1  0.574700  0.257900  0.102800  1.0
  H  H295  1  0.897200  0.155100  0.471900  1.0
  H  H296  1  0.155100  0.471900  0.897200  1.0
  H  H297  1  0.155100  0.683200  0.257900  1.0
  H  H298  1  0.683200  0.257900  0.155100  1.0
  H  H299  1  0.425300  0.528100  0.683200  1.0
  H  H300  1  0.102800  0.574700  0.257900  1.0
  H  H301  1  0.897200  0.742100  0.425300  1.0
  H  H302  1  0.683200  0.425300  0.528100  1.0
  H  H303  1  0.102800  0.528100  0.844900  1.0
  H  H304  1  0.316800  0.844900  0.742100  1.0
  H  H305  1  0.471900  0.574700  0.316800  1.0
  H  H306  1  0.257900  0.102800  0.574700  1.0
  H  H307  1  0.471900  0.897200  0.155100  1.0
  H  H308  1  0.257900  0.155100  0.683200  1.0
  H  H309  1  0.528100  0.683200  0.425300  1.0
  H  H310  1  0.742100  0.425300  0.897200  1.0
  H  H311  1  0.528100  0.844900  0.102800  1.0
  H  H312  1  0.742100  0.316800  0.844900  1.0
  O  O313  1  0.280000  0.695000  0.585000  1
  O  O314  1  0.110000  0.415000  0.695000  1
  O  O315  1  0.110000  0.695000  0.415000  1
  O  O316  1  0.695000  0.585000  0.280000  1
  O  O317  1  0.720000  0.305000  0.415000  1
  O  O318  1  0.280000  0.585000  0.695000  1
  O  O319  1  0.305000  0.890000  0.585000  1
  O  O320  1  0.890000  0.585000  0.305000  1
  O  O321  1  0.890000  0.305000  0.585000  1
  O  O322  1  0.305000  0.585000  0.890000  1
  O  O323  1  0.720000  0.415000  0.305000  1
  O  O324  1  0.695000  0.280000  0.585000  1
  O  O325  1  0.305000  0.415000  0.720000  1
  O  O326  1  0.305000  0.720000  0.415000  1
  O  O327  1  0.695000  0.415000  0.110000  1
  O  O328  1  0.695000  0.110000  0.415000  1
  O  O329  1  0.585000  0.280000  0.695000  1
  O  O330  1  0.585000  0.695000  0.280000  1
  O  O331  1  0.585000  0.305000  0.890000  1
  O  O332  1  0.585000  0.890000  0.305000  1
  O  O333  1  0.415000  0.305000  0.720000  1
  O  O334  1  0.415000  0.720000  0.305000  1
  O  O335  1  0.415000  0.110000  0.695000  1
  O  O336  1  0.415000  0.695000  0.110000  1
  O  O337  1  0.412000  0.831000  0.581000  1
  O  O338  1  0.250000  0.419000  0.831000  1
  O  O339  1  0.250000  0.831000  0.419000  1
  O  O340  1  0.831000  0.581000  0.412000  1
  O  O341  1  0.588000  0.169000  0.419000  1
  O  O342  1  0.412000  0.581000  0.831000  1
  O  O343  1  0.169000  0.750000  0.581000  1
  O  O344  1  0.750000  0.581000  0.169000  1
  O  O345  1  0.750000  0.169000  0.581000  1
  O  O346  1  0.169000  0.581000  0.750000  1
  O  O347  1  0.588000  0.419000  0.169000  1
  O  O348  1  0.831000  0.412000  0.581000  1
  O  O349  1  0.169000  0.419000  0.588000  1
  O  O350  1  0.169000  0.588000  0.419000  1
  O  O351  1  0.831000  0.419000  0.250000  1
  O  O352  1  0.831000  0.250000  0.419000  1
  O  O353  1  0.581000  0.412000  0.831000  1
  O  O354  1  0.581000  0.831000  0.412000  1
  O  O355  1  0.581000  0.169000  0.750000  1
  O  O356  1  0.581000  0.750000  0.169000  1
  O  O357  1  0.419000  0.169000  0.588000  1
  O  O358  1  0.419000  0.588000  0.169000  1
  O  O359  1  0.419000  0.250000  0.831000  1
  O  O360  1  0.419000  0.831000  0.250000  1
  O  O361  1  0.630000  0.630000  0.630000  1
  O  O362  1  0.000000  0.000000  0.630000  1
  O  O363  1  0.000000  0.000000  0.370000  1
  O  O364  1  0.370000  1.000000  0.000000  1
  O  O365  1  0.630000  1.000000  0.000000  1
  O  O366  1  0.000000  0.630000  0.000000  1
  O  O367  1  0.000000  0.370000  0.000000  1
  O  O368  1  0.370000  0.370000  0.370000  1
  O  O369  1  0.750000  0.750000  0.750000  1
  O  O370  1  0.000000  1.000000  0.750000  1
  O  O371  1  0.000000  0.000000  0.250000  1
  O  O372  1  0.250000  1.000000  0.000000  1
  O  O373  1  0.750000  1.000000  0.000000  1
  O  O374  1  1.000000  0.750000  0.000000  1
  O  O375  1  0.000000  0.250000  0.000000  1
  O  O376  1  0.250000  0.250000  0.250000  1
  O  O377  1  0.558000  0.558000  0.538000  1
  O  O378  1  0.020000  0.000000  0.558000  1
  O  O379  1  0.020000  0.020000  0.462000  1
  O  O380  1  0.558000  0.538000  0.558000  1
  O  O381  1  0.442000  0.980000  0.000000  1
  O  O382  1  0.558000  0.000000  0.020000  1
  O  O383  1  0.980000  0.980000  0.538000  1
  O  O384  1  0.980000  0.538000  0.980000  1
  O  O385  1  0.980000  0.442000  0.000000  1
  O  O386  1  0.442000  0.000000  0.980000  1
  O  O387  1  0.442000  0.462000  0.442000  1
  O  O388  1  0.020000  0.558000  1.000000  1
  O  O389  1  0.980000  0.000000  0.442000  1
  O  O390  1  0.442000  0.442000  0.462000  1
  O  O391  1  0.020000  0.462000  0.020000  1
  O  O392  1  0.558000  0.020000  0.000000  1
  O  O393  1  0.538000  0.558000  0.558000  1
  O  O394  1  0.000000  0.020000  0.558000  1
  O  O395  1  0.538000  0.980000  0.980000  1
  O  O396  1  0.000000  0.980000  0.442000  1
  O  O397  1  0.462000  0.442000  0.442000  1
  O  O398  1  0.000000  0.442000  0.980000  1
  O  O399  1  0.462000  0.020000  0.020000  1
  O  O400  1  0.000000  0.558000  0.020000  1
  O  O401  1  0.494000  0.554000  0.494000  1
  O  O402  1  0.060000  0.060000  0.554000  1
  O  O403  1  0.060000  0.000000  0.506000  1
  O  O404  1  0.554000  0.494000  0.494000  1
  O  O405  1  0.506000  0.000000  0.060000  1
  O  O406  1  0.494000  0.940000  0.000000  1
  O  O407  1  0.000000  0.940000  0.494000  1
  O  O408  1  0.940000  0.494000  0.000000  1
  O  O409  1  0.940000  0.446000  0.940000  1
  O  O410  1  0.446000  0.940000  0.940000  1
  O  O411  1  0.506000  0.506000  0.446000  1
  O  O412  1  0.000000  0.494000  0.940000  1
  O  O413  1  0.000000  0.060000  0.506000  1
  O  O414  1  0.446000  0.506000  0.506000  1
  O  O415  1  0.000000  0.506000  0.060000  1
  O  O416  1  0.554000  0.060000  0.060000  1
  O  O417  1  0.494000  0.494000  0.554000  1
  O  O418  1  0.940000  1.000000  0.494000  1
  O  O419  1  0.494000  0.000000  0.940000  1
  O  O420  1  0.940000  0.940000  0.446000  1
  O  O421  1  0.506000  0.446000  0.506000  1
  O  O422  1  0.060000  0.506000  1.000000  1
  O  O423  1  0.506000  0.060000  0.000000  1
  O  O424  1  0.060000  0.554000  0.060000  1
  O  O425  1  0.701400  0.850700  0.850700  1.0
  O  O426  1  0.000000  0.149300  0.850700  1.0
  O  O427  1  1.000000  0.850700  0.149300  1.0
  O  O428  1  0.850700  0.850700  0.701400  1.0
  O  O429  1  0.298600  0.149300  0.149300  1.0
  O  O430  1  0.149300  0.000000  0.850700  1.0
  O  O431  1  0.149300  0.850700  1.000000  1.0
  O  O432  1  0.850700  0.701400  0.850700  1.0
  O  O433  1  0.149300  0.149300  0.298600  1.0
  O  O434  1  0.149300  0.298600  0.149300  1.0
  O  O435  1  0.850700  0.149300  0.000000  1.0
  O  O436  1  0.850700  0.000000  0.149300  1.0
  O  O437  1  0.344600  0.672300  0.672300  1.0
  O  O438  1  0.000000  0.327700  0.672300  1.0
  O  O439  1  0.000000  0.672300  0.327700  1.0
  O  O440  1  0.672300  0.672300  0.344600  1.0
  O  O441  1  0.655400  0.327700  0.327700  1.0
  O  O442  1  0.327700  0.000000  0.672300  1.0
  O  O443  1  0.327700  0.672300  1.000000  1.0
  O  O444  1  0.672300  0.344600  0.672300  1.0
  O  O445  1  0.327700  0.327700  0.655400  1.0
  O  O446  1  0.327700  0.655400  0.327700  1.0
  O  O447  1  0.672300  0.327700  1.000000  1.0
  O  O448  1  0.672300  0.000000  0.327700  1.0
  O  O449  1  0.464900  0.718700  0.648000  1.0
  O  O450  1  0.070700  0.253800  0.718700  1.0
  O  O451  1  0.070700  0.816900  0.352000  1.0
  O  O452  1  0.718700  0.648000  0.464900  1.0
  O  O453  1  0.535100  0.183100  0.253800  1.0
  O  O454  1  0.464900  0.746200  0.816900  1.0
  O  O455  1  0.183100  0.929300  0.648000  1.0
  O  O456  1  0.929300  0.648000  0.183100  1.0
  O  O457  1  0.929300  0.281300  0.746200  1.0
  O  O458  1  0.281300  0.746200  0.929300  1.0
  O  O459  1  0.535100  0.352000  0.281300  1.0
  O  O460  1  0.816900  0.464900  0.746200  1.0
  O  O461  1  0.183100  0.253800  0.535100  1.0
  O  O462  1  0.281300  0.535100  0.352000  1.0
  O  O463  1  0.816900  0.352000  0.070700  1.0
  O  O464  1  0.718700  0.070700  0.253800  1.0
  O  O465  1  0.648000  0.464900  0.718700  1.0
  O  O466  1  0.746200  0.816900  0.464900  1.0
  O  O467  1  0.648000  0.183100  0.929300  1.0
  O  O468  1  0.746200  0.929300  0.281300  1.0
  O  O469  1  0.352000  0.281300  0.535100  1.0
  O  O470  1  0.253800  0.535100  0.183100  1.0
  O  O471  1  0.352000  0.070700  0.816900  1.0
  O  O472  1  0.253800  0.718700  0.070700  1.0
  O  O473  1  0.535100  0.281300  0.352000  1.0
  O  O474  1  0.929300  0.746200  0.281300  1.0
  O  O475  1  0.929300  0.183100  0.648000  1.0
  O  O476  1  0.281300  0.352000  0.535100  1.0
  O  O477  1  0.464900  0.816900  0.746200  1.0
  O  O478  1  0.535100  0.253800  0.183100  1.0
  O  O479  1  0.816900  0.070700  0.352000  1.0
  O  O480  1  0.070700  0.352000  0.816900  1.0
  O  O481  1  0.070700  0.718700  0.253800  1.0
  O  O482  1  0.718700  0.253800  0.070700  1.0
  O  O483  1  0.464900  0.648000  0.718700  1.0
  O  O484  1  0.183100  0.535100  0.253800  1.0
  O  O485  1  0.816900  0.746200  0.464900  1.0
  O  O486  1  0.718700  0.464900  0.648000  1.0
  O  O487  1  0.183100  0.648000  0.929300  1.0
  O  O488  1  0.281300  0.929300  0.746200  1.0
  O  O489  1  0.352000  0.535100  0.281300  1.0
  O  O490  1  0.253800  0.183100  0.535100  1.0
  O  O491  1  0.352000  0.816900  0.070700  1.0
  O  O492  1  0.253800  0.070700  0.718700  1.0
  O  O493  1  0.648000  0.718700  0.464900  1.0
  O  O494  1  0.746200  0.464900  0.816900  1.0
  O  O495  1  0.648000  0.929300  0.183100  1.0
  O  O496  1  0.746200  0.281300  0.929300  1.0
  O  O497  1  0.581800  0.775700  0.706100  1.0
  O  O498  1  0.069600  0.193900  0.775700  1.0
  O  O499  1  0.069600  0.875700  0.293900  1.0
  O  O500  1  0.775700  0.706100  0.581800  1.0
  O  O501  1  0.418200  0.124300  0.193900  1.0
  O  O502  1  0.581800  0.806100  0.875700  1.0
  O  O503  1  0.124300  0.930400  0.706100  1.0
  O  O504  1  0.930400  0.706100  0.124300  1.0
  O  O505  1  0.930400  0.224300  0.806100  1.0
  O  O506  1  0.224300  0.806100  0.930400  1.0
  O  O507  1  0.418200  0.293900  0.224300  1.0
  O  O508  1  0.875700  0.581800  0.806100  1.0
  O  O509  1  0.124300  0.193900  0.418200  1.0
  O  O510  1  0.224300  0.418200  0.293900  1.0
  O  O511  1  0.875700  0.293900  0.069600  1.0
  O  O512  1  0.775700  0.069600  0.193900  1.0
  O  O513  1  0.706100  0.581800  0.775700  1.0
  O  O514  1  0.806100  0.875700  0.581800  1.0
  O  O515  1  0.706100  0.124300  0.930400  1.0
  O  O516  1  0.806100  0.930400  0.224300  1.0
  O  O517  1  0.293900  0.224300  0.418200  1.0
  O  O518  1  0.193900  0.418200  0.124300  1.0
  O  O519  1  0.293900  0.069600  0.875700  1.0
  O  O520  1  0.193900  0.775700  0.069600  1.0
  O  O521  1  0.418200  0.224300  0.293900  1.0
  O  O522  1  0.930400  0.806100  0.224300  1.0
  O  O523  1  0.930400  0.124300  0.706100  1.0
  O  O524  1  0.224300  0.293900  0.418200  1.0
  O  O525  1  0.581800  0.875700  0.806100  1.0
  O  O526  1  0.418200  0.193900  0.124300  1.0
  O  O527  1  0.875700  0.069600  0.293900  1.0
  O  O528  1  0.069600  0.293900  0.875700  1.0
  O  O529  1  0.069600  0.775700  0.193900  1.0
  O  O530  1  0.775700  0.193900  0.069600  1.0
  O  O531  1  0.581800  0.706100  0.775700  1.0
  O  O532  1  0.124300  0.418200  0.193900  1.0
  O  O533  1  0.875700  0.806100  0.581800  1.0
  O  O534  1  0.775700  0.581800  0.706100  1.0
  O  O535  1  0.124300  0.706100  0.930400  1.0
  O  O536  1  0.224300  0.930400  0.806100  1.0
  O  O537  1  0.293900  0.418200  0.224300  1.0
  O  O538  1  0.193900  0.124300  0.418200  1.0
  O  O539  1  0.293900  0.875700  0.069600  1.0
  O  O540  1  0.193900  0.069600  0.775700  1.0
  O  O541  1  0.706100  0.775700  0.581800  1.0
  O  O542  1  0.806100  0.581800  0.875700  1.0
  O  O543  1  0.706100  0.930400  0.124300  1.0
  O  O544  1  0.806100  0.224300  0.930400  1.0
