# generated using pymatgen
data_Cd6H30C103N18(ClO2)6
_symmetry_space_group_name_H-M   'P 1'
_cell_length_a   21.25700000
_cell_length_b   21.25700000
_cell_length_c   21.25700000
_cell_angle_alpha   90.00000000
_cell_angle_beta   90.00000000
_cell_angle_gamma   90.00000000
_symmetry_Int_Tables_number   1
_chemical_formula_structural   Cd6H30C103N18(ClO2)6
_chemical_formula_sum   'Cd24 H120 C412 N72 Cl24 O48'
_cell_volume   9605.18906159
_cell_formula_units_Z   4
loop_
 _symmetry_equiv_pos_site_id
 _symmetry_equiv_pos_as_xyz
  1  'x, y, z'
loop_
 _atom_site_type_symbol
 _atom_site_label
 _atom_site_symmetry_multiplicity
 _atom_site_fract_x
 _atom_site_fract_y
 _atom_site_fract_z
 _atom_site_occupancy
  Cd  Cd1  1  0.196370  0.489840  0.316170  1.0
  Cd  Cd2  1  0.316170  0.196370  0.489840  1.0
  Cd  Cd3  1  0.489840  0.316170  0.196370  1.0
  Cd  Cd4  1  0.696370  0.989840  0.683830  1.0
  Cd  Cd5  1  0.696370  0.510160  0.816170  1.0
  Cd  Cd6  1  0.803630  0.989840  0.816170  1.0
  Cd  Cd7  1  0.683830  0.696370  0.989840  1.0
  Cd  Cd8  1  0.816170  0.696370  0.510160  1.0
  Cd  Cd9  1  0.816170  0.803630  0.989840  1.0
  Cd  Cd10  1  0.989840  0.683830  0.696370  1.0
  Cd  Cd11  1  0.510160  0.816170  0.696370  1.0
  Cd  Cd12  1  0.989840  0.816170  0.803630  1.0
  Cd  Cd13  1  0.803630  0.510160  0.683830  1.0
  Cd  Cd14  1  0.683830  0.803630  0.510160  1.0
  Cd  Cd15  1  0.510160  0.683830  0.803630  1.0
  Cd  Cd16  1  0.303630  0.010160  0.316170  1.0
  Cd  Cd17  1  0.303630  0.489840  0.183830  1.0
  Cd  Cd18  1  0.196370  0.010160  0.183830  1.0
  Cd  Cd19  1  0.316170  0.303630  0.010160  1.0
  Cd  Cd20  1  0.183830  0.303630  0.489840  1.0
  Cd  Cd21  1  0.183830  0.196370  0.010160  1.0
  Cd  Cd22  1  0.010160  0.316170  0.303630  1.0
  Cd  Cd23  1  0.489840  0.183830  0.303630  1.0
  Cd  Cd24  1  0.010160  0.183830  0.196370  1.0
  H  H25  1  0.042400  0.417600  0.227800  1.0
  H  H26  1  0.227800  0.042400  0.417600  1.0
  H  H27  1  0.417600  0.227800  0.042400  1.0
  H  H28  1  0.542400  0.917600  0.772200  1.0
  H  H29  1  0.542400  0.582400  0.727800  1.0
  H  H30  1  0.957600  0.917600  0.727800  1.0
  H  H31  1  0.772200  0.542400  0.917600  1.0
  H  H32  1  0.727800  0.542400  0.582400  1.0
  H  H33  1  0.727800  0.957600  0.917600  1.0
  H  H34  1  0.917600  0.772200  0.542400  1.0
  H  H35  1  0.582400  0.727800  0.542400  1.0
  H  H36  1  0.917600  0.727800  0.957600  1.0
  H  H37  1  0.957600  0.582400  0.772200  1.0
  H  H38  1  0.772200  0.957600  0.582400  1.0
  H  H39  1  0.582400  0.772200  0.957600  1.0
  H  H40  1  0.457600  0.082400  0.227800  1.0
  H  H41  1  0.457600  0.417600  0.272200  1.0
  H  H42  1  0.042400  0.082400  0.272200  1.0
  H  H43  1  0.227800  0.457600  0.082400  1.0
  H  H44  1  0.272200  0.457600  0.417600  1.0
  H  H45  1  0.272200  0.042400  0.082400  1.0
  H  H46  1  0.082400  0.227800  0.457600  1.0
  H  H47  1  0.417600  0.272200  0.457600  1.0
  H  H48  1  0.082400  0.272200  0.042400  1.0
  H  H49  1  0.199600  0.584200  0.132100  1.0
  H  H50  1  0.132100  0.199600  0.584200  1.0
  H  H51  1  0.584200  0.132100  0.199600  1.0
  H  H52  1  0.699600  0.084200  0.867900  1.0
  H  H53  1  0.699600  0.415800  0.632100  1.0
  H  H54  1  0.800400  0.084200  0.632100  1.0
  H  H55  1  0.867900  0.699600  0.084200  1.0
  H  H56  1  0.632100  0.699600  0.415800  1.0
  H  H57  1  0.632100  0.800400  0.084200  1.0
  H  H58  1  0.084200  0.867900  0.699600  1.0
  H  H59  1  0.415800  0.632100  0.699600  1.0
  H  H60  1  0.084200  0.632100  0.800400  1.0
  H  H61  1  0.800400  0.415800  0.867900  1.0
  H  H62  1  0.867900  0.800400  0.415800  1.0
  H  H63  1  0.415800  0.867900  0.800400  1.0
  H  H64  1  0.300400  0.915800  0.132100  1.0
  H  H65  1  0.300400  0.584200  0.367900  1.0
  H  H66  1  0.199600  0.915800  0.367900  1.0
  H  H67  1  0.132100  0.300400  0.915800  1.0
  H  H68  1  0.367900  0.300400  0.584200  1.0
  H  H69  1  0.367900  0.199600  0.915800  1.0
  H  H70  1  0.915800  0.132100  0.300400  1.0
  H  H71  1  0.584200  0.367900  0.300400  1.0
  H  H72  1  0.915800  0.367900  0.199600  1.0
  H  H73  1  0.115500  0.623600  0.075500  1.0
  H  H74  1  0.075500  0.115500  0.623600  1.0
  H  H75  1  0.623600  0.075500  0.115500  1.0
  H  H76  1  0.615500  0.123600  0.924500  1.0
  H  H77  1  0.615500  0.376400  0.575500  1.0
  H  H78  1  0.884500  0.123600  0.575500  1.0
  H  H79  1  0.924500  0.615500  0.123600  1.0
  H  H80  1  0.575500  0.615500  0.376400  1.0
  H  H81  1  0.575500  0.884500  0.123600  1.0
  H  H82  1  0.123600  0.924500  0.615500  1.0
  H  H83  1  0.376400  0.575500  0.615500  1.0
  H  H84  1  0.123600  0.575500  0.884500  1.0
  H  H85  1  0.884500  0.376400  0.924500  1.0
  H  H86  1  0.924500  0.884500  0.376400  1.0
  H  H87  1  0.376400  0.924500  0.884500  1.0
  H  H88  1  0.384500  0.876400  0.075500  1.0
  H  H89  1  0.384500  0.623600  0.424500  1.0
  H  H90  1  0.115500  0.876400  0.424500  1.0
  H  H91  1  0.075500  0.384500  0.876400  1.0
  H  H92  1  0.424500  0.384500  0.623600  1.0
  H  H93  1  0.424500  0.115500  0.876400  1.0
  H  H94  1  0.876400  0.075500  0.384500  1.0
  H  H95  1  0.623600  0.424500  0.384500  1.0
  H  H96  1  0.876400  0.424500  0.115500  1.0
  H  H97  1  0.019500  0.574100  0.081300  1.0
  H  H98  1  0.081300  0.019500  0.574100  1.0
  H  H99  1  0.574100  0.081300  0.019500  1.0
  H  H100  1  0.519500  0.074100  0.918700  1.0
  H  H101  1  0.519500  0.425900  0.581300  1.0
  H  H102  1  0.980500  0.074100  0.581300  1.0
  H  H103  1  0.918700  0.519500  0.074100  1.0
  H  H104  1  0.581300  0.519500  0.425900  1.0
  H  H105  1  0.581300  0.980500  0.074100  1.0
  H  H106  1  0.074100  0.918700  0.519500  1.0
  H  H107  1  0.425900  0.581300  0.519500  1.0
  H  H108  1  0.074100  0.581300  0.980500  1.0
  H  H109  1  0.980500  0.425900  0.918700  1.0
  H  H110  1  0.918700  0.980500  0.425900  1.0
  H  H111  1  0.425900  0.918700  0.980500  1.0
  H  H112  1  0.480500  0.925900  0.081300  1.0
  H  H113  1  0.480500  0.574100  0.418700  1.0
  H  H114  1  0.019500  0.925900  0.418700  1.0
  H  H115  1  0.081300  0.480500  0.925900  1.0
  H  H116  1  0.418700  0.480500  0.574100  1.0
  H  H117  1  0.418700  0.019500  0.925900  1.0
  H  H118  1  0.925900  0.081300  0.480500  1.0
  H  H119  1  0.574100  0.418700  0.480500  1.0
  H  H120  1  0.925900  0.418700  0.019500  1.0
  H  H121  1  0.005000  0.490300  0.151000  1.0
  H  H122  1  0.151000  0.005000  0.490300  1.0
  H  H123  1  0.490300  0.151000  0.005000  1.0
  H  H124  1  0.505000  0.990300  0.849000  1.0
  H  H125  1  0.505000  0.509700  0.651000  1.0
  H  H126  1  0.995000  0.990300  0.651000  1.0
  H  H127  1  0.849000  0.505000  0.990300  1.0
  H  H128  1  0.651000  0.505000  0.509700  1.0
  H  H129  1  0.651000  0.995000  0.990300  1.0
  H  H130  1  0.990300  0.849000  0.505000  1.0
  H  H131  1  0.509700  0.651000  0.505000  1.0
  H  H132  1  0.990300  0.651000  0.995000  1.0
  H  H133  1  0.995000  0.509700  0.849000  1.0
  H  H134  1  0.849000  0.995000  0.509700  1.0
  H  H135  1  0.509700  0.849000  0.995000  1.0
  H  H136  1  0.495000  0.009700  0.151000  1.0
  H  H137  1  0.495000  0.490300  0.349000  1.0
  H  H138  1  0.005000  0.009700  0.349000  1.0
  H  H139  1  0.151000  0.495000  0.009700  1.0
  H  H140  1  0.349000  0.495000  0.490300  1.0
  H  H141  1  0.349000  0.005000  0.009700  1.0
  H  H142  1  0.009700  0.151000  0.495000  1.0
  H  H143  1  0.490300  0.349000  0.495000  1.0
  H  H144  1  0.009700  0.349000  0.005000  1.0
  C  C145  1  0.223000  0.323000  0.231000  1
  C  C146  1  0.231000  0.223000  0.323000  1
  C  C147  1  0.323000  0.231000  0.223000  1
  C  C148  1  0.723000  0.823000  0.769000  1
  C  C149  1  0.723000  0.677000  0.731000  1
  C  C150  1  0.777000  0.823000  0.731000  1
  C  C151  1  0.769000  0.723000  0.823000  1
  C  C152  1  0.731000  0.723000  0.677000  1
  C  C153  1  0.731000  0.777000  0.823000  1
  C  C154  1  0.823000  0.769000  0.723000  1
  C  C155  1  0.677000  0.731000  0.723000  1
  C  C156  1  0.823000  0.731000  0.777000  1
  C  C157  1  0.777000  0.677000  0.769000  1
  C  C158  1  0.769000  0.777000  0.677000  1
  C  C159  1  0.677000  0.769000  0.777000  1
  C  C160  1  0.277000  0.177000  0.231000  1
  C  C161  1  0.277000  0.323000  0.269000  1
  C  C162  1  0.223000  0.177000  0.269000  1
  C  C163  1  0.231000  0.277000  0.177000  1
  C  C164  1  0.269000  0.277000  0.323000  1
  C  C165  1  0.269000  0.223000  0.177000  1
  C  C166  1  0.177000  0.231000  0.277000  1
  C  C167  1  0.323000  0.269000  0.277000  1
  C  C168  1  0.177000  0.269000  0.223000  1
  C  C169  1  0.178900  0.321100  0.178900  1
  C  C170  1  0.178900  0.178900  0.321100  1
  C  C171  1  0.321100  0.178900  0.178900  1
  C  C172  1  0.678900  0.821100  0.821100  1
  C  C173  1  0.678900  0.678900  0.678900  1
  C  C174  1  0.821100  0.821100  0.678900  1
  C  C175  1  0.821100  0.678900  0.821100  1
  C  C176  1  0.321100  0.321100  0.321100  1
  C  C177  1  0.538000  0.557000  0.995000  1
  C  C178  1  0.995000  0.538000  0.557000  1
  C  C179  1  0.557000  0.995000  0.538000  1
  C  C180  1  0.038000  0.057000  0.005000  1
  C  C181  1  0.038000  0.443000  0.495000  1
  C  C182  1  0.462000  0.057000  0.495000  1
  C  C183  1  0.005000  0.038000  0.057000  1
  C  C184  1  0.495000  0.038000  0.443000  1
  C  C185  1  0.495000  0.462000  0.057000  1
  C  C186  1  0.057000  0.005000  0.038000  1
  C  C187  1  0.443000  0.495000  0.038000  1
  C  C188  1  0.057000  0.495000  0.462000  1
  C  C189  1  0.462000  0.443000  0.005000  1
  C  C190  1  0.005000  0.462000  0.443000  1
  C  C191  1  0.443000  0.005000  0.462000  1
  C  C192  1  0.962000  0.943000  0.995000  1
  C  C193  1  0.962000  0.557000  0.505000  1
  C  C194  1  0.538000  0.943000  0.505000  1
  C  C195  1  0.995000  0.962000  0.943000  1
  C  C196  1  0.505000  0.962000  0.557000  1
  C  C197  1  0.505000  0.538000  0.943000  1
  C  C198  1  0.943000  0.995000  0.962000  1
  C  C199  1  0.557000  0.505000  0.962000  1
  C  C200  1  0.943000  0.505000  0.538000  1
  C  C201  1  0.450000  0.553000  0.996000  1
  C  C202  1  0.996000  0.450000  0.553000  1
  C  C203  1  0.553000  0.996000  0.450000  1
  C  C204  1  0.950000  0.053000  0.004000  1
  C  C205  1  0.950000  0.447000  0.496000  1
  C  C206  1  0.550000  0.053000  0.496000  1
  C  C207  1  0.004000  0.950000  0.053000  1
  C  C208  1  0.496000  0.950000  0.447000  1
  C  C209  1  0.496000  0.550000  0.053000  1
  C  C210  1  0.053000  0.004000  0.950000  1
  C  C211  1  0.447000  0.496000  0.950000  1
  C  C212  1  0.053000  0.496000  0.550000  1
  C  C213  1  0.550000  0.447000  0.004000  1
  C  C214  1  0.004000  0.550000  0.447000  1
  C  C215  1  0.447000  0.004000  0.550000  1
  C  C216  1  0.050000  0.947000  0.996000  1
  C  C217  1  0.050000  0.553000  0.504000  1
  C  C218  1  0.450000  0.947000  0.504000  1
  C  C219  1  0.996000  0.050000  0.947000  1
  C  C220  1  0.504000  0.050000  0.553000  1
  C  C221  1  0.504000  0.450000  0.947000  1
  C  C222  1  0.947000  0.996000  0.050000  1
  C  C223  1  0.553000  0.504000  0.050000  1
  C  C224  1  0.947000  0.504000  0.450000  1
  C  C225  1  0.491300  0.620000  0.002200  1
  C  C226  1  0.002200  0.491300  0.620000  1
  C  C227  1  0.620000  0.002200  0.491300  1
  C  C228  1  0.991300  0.120000  0.997800  1
  C  C229  1  0.991300  0.380000  0.502200  1
  C  C230  1  0.508700  0.120000  0.502200  1
  C  C231  1  0.997800  0.991300  0.120000  1
  C  C232  1  0.502200  0.991300  0.380000  1
  C  C233  1  0.502200  0.508700  0.120000  1
  C  C234  1  0.120000  0.997800  0.991300  1
  C  C235  1  0.380000  0.502200  0.991300  1
  C  C236  1  0.120000  0.502200  0.508700  1
  C  C237  1  0.508700  0.380000  0.997800  1
  C  C238  1  0.997800  0.508700  0.380000  1
  C  C239  1  0.380000  0.997800  0.508700  1
  C  C240  1  0.008700  0.880000  0.002200  1
  C  C241  1  0.008700  0.620000  0.497800  1
  C  C242  1  0.491300  0.880000  0.497800  1
  C  C243  1  0.002200  0.008700  0.880000  1
  C  C244  1  0.497800  0.008700  0.620000  1
  C  C245  1  0.497800  0.491300  0.880000  1
  C  C246  1  0.880000  0.002200  0.008700  1
  C  C247  1  0.620000  0.497800  0.008700  1
  C  C248  1  0.880000  0.497800  0.491300  1
  C  C249  1  0.978400  0.749500  0.190300  1.0
  C  C250  1  0.190300  0.978400  0.749500  1.0
  C  C251  1  0.749500  0.190300  0.978400  1.0
  C  C252  1  0.478400  0.249500  0.809700  1.0
  C  C253  1  0.478400  0.250500  0.690300  1.0
  C  C254  1  0.021600  0.249500  0.690300  1.0
  C  C255  1  0.809700  0.478400  0.249500  1.0
  C  C256  1  0.690300  0.478400  0.250500  1.0
  C  C257  1  0.690300  0.021600  0.249500  1.0
  C  C258  1  0.249500  0.809700  0.478400  1.0
  C  C259  1  0.250500  0.690300  0.478400  1.0
  C  C260  1  0.249500  0.690300  0.021600  1.0
  C  C261  1  0.021600  0.250500  0.809700  1.0
  C  C262  1  0.809700  0.021600  0.250500  1.0
  C  C263  1  0.250500  0.809700  0.021600  1.0
  C  C264  1  0.521600  0.750500  0.190300  1.0
  C  C265  1  0.521600  0.749500  0.309700  1.0
  C  C266  1  0.978400  0.750500  0.309700  1.0
  C  C267  1  0.190300  0.521600  0.750500  1.0
  C  C268  1  0.309700  0.521600  0.749500  1.0
  C  C269  1  0.309700  0.978400  0.750500  1.0
  C  C270  1  0.750500  0.190300  0.521600  1.0
  C  C271  1  0.749500  0.309700  0.521600  1.0
  C  C272  1  0.750500  0.309700  0.978400  1.0
  C  C273  1  0.014000  0.748300  0.130500  1.0
  C  C274  1  0.130500  0.014000  0.748300  1.0
  C  C275  1  0.748300  0.130500  0.014000  1.0
  C  C276  1  0.514000  0.248300  0.869500  1.0
  C  C277  1  0.514000  0.251700  0.630500  1.0
  C  C278  1  0.986000  0.248300  0.630500  1.0
  C  C279  1  0.869500  0.514000  0.248300  1.0
  C  C280  1  0.630500  0.514000  0.251700  1.0
  C  C281  1  0.630500  0.986000  0.248300  1.0
  C  C282  1  0.248300  0.869500  0.514000  1.0
  C  C283  1  0.251700  0.630500  0.514000  1.0
  C  C284  1  0.248300  0.630500  0.986000  1.0
  C  C285  1  0.986000  0.251700  0.869500  1.0
  C  C286  1  0.869500  0.986000  0.251700  1.0
  C  C287  1  0.251700  0.869500  0.986000  1.0
  C  C288  1  0.486000  0.751700  0.130500  1.0
  C  C289  1  0.486000  0.748300  0.369500  1.0
  C  C290  1  0.014000  0.751700  0.369500  1.0
  C  C291  1  0.130500  0.486000  0.751700  1.0
  C  C292  1  0.369500  0.486000  0.748300  1.0
  C  C293  1  0.369500  0.014000  0.751700  1.0
  C  C294  1  0.751700  0.130500  0.486000  1.0
  C  C295  1  0.748300  0.369500  0.486000  1.0
  C  C296  1  0.751700  0.369500  0.014000  1.0
  C  C297  1  0.058000  0.814900  0.247300  1.0
  C  C298  1  0.247300  0.058000  0.814900  1.0
  C  C299  1  0.814900  0.247300  0.058000  1.0
  C  C300  1  0.558000  0.314900  0.752700  1.0
  C  C301  1  0.558000  0.185100  0.747300  1.0
  C  C302  1  0.942000  0.314900  0.747300  1.0
  C  C303  1  0.752700  0.558000  0.314900  1.0
  C  C304  1  0.747300  0.558000  0.185100  1.0
  C  C305  1  0.747300  0.942000  0.314900  1.0
  C  C306  1  0.314900  0.752700  0.558000  1.0
  C  C307  1  0.185100  0.747300  0.558000  1.0
  C  C308  1  0.314900  0.747300  0.942000  1.0
  C  C309  1  0.942000  0.185100  0.752700  1.0
  C  C310  1  0.752700  0.942000  0.185100  1.0
  C  C311  1  0.185100  0.752700  0.942000  1.0
  C  C312  1  0.442000  0.685100  0.247300  1.0
  C  C313  1  0.442000  0.814900  0.252700  1.0
  C  C314  1  0.058000  0.685100  0.252700  1.0
  C  C315  1  0.247300  0.442000  0.685100  1.0
  C  C316  1  0.252700  0.442000  0.814900  1.0
  C  C317  1  0.252700  0.058000  0.685100  1.0
  C  C318  1  0.685100  0.247300  0.442000  1.0
  C  C319  1  0.814900  0.252700  0.442000  1.0
  C  C320  1  0.685100  0.252700  0.058000  1.0
  C  C321  1  0.022500  0.867200  0.239200  1.0
  C  C322  1  0.239200  0.022500  0.867200  1.0
  C  C323  1  0.867200  0.239200  0.022500  1.0
  C  C324  1  0.522500  0.367200  0.760800  1.0
  C  C325  1  0.522500  0.132800  0.739200  1.0
  C  C326  1  0.977500  0.367200  0.739200  1.0
  C  C327  1  0.760800  0.522500  0.367200  1.0
  C  C328  1  0.739200  0.522500  0.132800  1.0
  C  C329  1  0.739200  0.977500  0.367200  1.0
  C  C330  1  0.367200  0.760800  0.522500  1.0
  C  C331  1  0.132800  0.739200  0.522500  1.0
  C  C332  1  0.367200  0.739200  0.977500  1.0
  C  C333  1  0.977500  0.132800  0.760800  1.0
  C  C334  1  0.760800  0.977500  0.132800  1.0
  C  C335  1  0.132800  0.760800  0.977500  1.0
  C  C336  1  0.477500  0.632800  0.239200  1.0
  C  C337  1  0.477500  0.867200  0.260800  1.0
  C  C338  1  0.022500  0.632800  0.260800  1.0
  C  C339  1  0.239200  0.477500  0.632800  1.0
  C  C340  1  0.260800  0.477500  0.867200  1.0
  C  C341  1  0.260800  0.022500  0.632800  1.0
  C  C342  1  0.632800  0.239200  0.477500  1.0
  C  C343  1  0.867200  0.260800  0.477500  1.0
  C  C344  1  0.632800  0.260800  0.022500  1.0
  C  C345  1  0.250000  0.683000  0.250000  1.0
  C  C346  1  0.250000  0.250000  0.683000  1.0
  C  C347  1  0.683000  0.250000  0.250000  1.0
  C  C348  1  0.750000  0.183000  0.750000  1.0
  C  C349  1  0.750000  0.317000  0.750000  1.0
  C  C350  1  0.750000  0.750000  0.183000  1.0
  C  C351  1  0.750000  0.750000  0.317000  1.0
  C  C352  1  0.183000  0.750000  0.750000  1.0
  C  C353  1  0.317000  0.750000  0.750000  1.0
  C  C354  1  0.250000  0.817000  0.250000  1.0
  C  C355  1  0.250000  0.250000  0.817000  1.0
  C  C356  1  0.817000  0.250000  0.250000  1.0
  C  C357  1  0.273000  0.784000  0.198000  1.0
  C  C358  1  0.198000  0.273000  0.784000  1.0
  C  C359  1  0.784000  0.198000  0.273000  1.0
  C  C360  1  0.773000  0.284000  0.802000  1.0
  C  C361  1  0.773000  0.216000  0.698000  1.0
  C  C362  1  0.727000  0.284000  0.698000  1.0
  C  C363  1  0.802000  0.773000  0.284000  1.0
  C  C364  1  0.698000  0.773000  0.216000  1.0
  C  C365  1  0.698000  0.727000  0.284000  1.0
  C  C366  1  0.284000  0.802000  0.773000  1.0
  C  C367  1  0.216000  0.698000  0.773000  1.0
  C  C368  1  0.284000  0.698000  0.727000  1.0
  C  C369  1  0.727000  0.216000  0.802000  1.0
  C  C370  1  0.802000  0.727000  0.216000  1.0
  C  C371  1  0.216000  0.802000  0.727000  1.0
  C  C372  1  0.227000  0.716000  0.198000  1.0
  C  C373  1  0.227000  0.784000  0.302000  1.0
  C  C374  1  0.273000  0.716000  0.302000  1.0
  C  C375  1  0.198000  0.227000  0.716000  1.0
  C  C376  1  0.302000  0.227000  0.784000  1.0
  C  C377  1  0.302000  0.273000  0.716000  1.0
  C  C378  1  0.716000  0.198000  0.227000  1.0
  C  C379  1  0.784000  0.302000  0.227000  1.0
  C  C380  1  0.716000  0.302000  0.273000  1.0
  C  C381  1  0.131700  0.368300  0.368300  1.0
  C  C382  1  0.368300  0.131700  0.368300  1.0
  C  C383  1  0.368300  0.368300  0.131700  1.0
  C  C384  1  0.631700  0.868300  0.631700  1.0
  C  C385  1  0.631700  0.631700  0.868300  1.0
  C  C386  1  0.868300  0.868300  0.868300  1.0
  C  C387  1  0.868300  0.631700  0.631700  1.0
  C  C388  1  0.131700  0.131700  0.131700  1.0
  C  C389  1  0.079000  0.441100  0.233300  1.0
  C  C390  1  0.233300  0.079000  0.441100  1.0
  C  C391  1  0.441100  0.233300  0.079000  1.0
  C  C392  1  0.579000  0.941100  0.766700  1.0
  C  C393  1  0.579000  0.558900  0.733300  1.0
  C  C394  1  0.921000  0.941100  0.733300  1.0
  C  C395  1  0.766700  0.579000  0.941100  1.0
  C  C396  1  0.733300  0.579000  0.558900  1.0
  C  C397  1  0.733300  0.921000  0.941100  1.0
  C  C398  1  0.941100  0.766700  0.579000  1.0
  C  C399  1  0.558900  0.733300  0.579000  1.0
  C  C400  1  0.941100  0.733300  0.921000  1.0
  C  C401  1  0.921000  0.558900  0.766700  1.0
  C  C402  1  0.766700  0.921000  0.558900  1.0
  C  C403  1  0.558900  0.766700  0.921000  1.0
  C  C404  1  0.421000  0.058900  0.233300  1.0
  C  C405  1  0.421000  0.441100  0.266700  1.0
  C  C406  1  0.079000  0.058900  0.266700  1.0
  C  C407  1  0.233300  0.421000  0.058900  1.0
  C  C408  1  0.266700  0.421000  0.441100  1.0
  C  C409  1  0.266700  0.079000  0.058900  1.0
  C  C410  1  0.058900  0.233300  0.421000  1.0
  C  C411  1  0.441100  0.266700  0.421000  1.0
  C  C412  1  0.058900  0.266700  0.079000  1.0
  C  C413  1  0.093100  0.489800  0.186600  1.0
  C  C414  1  0.186600  0.093100  0.489800  1.0
  C  C415  1  0.489800  0.186600  0.093100  1.0
  C  C416  1  0.593100  0.989800  0.813400  1.0
  C  C417  1  0.593100  0.510200  0.686600  1.0
  C  C418  1  0.906900  0.989800  0.686600  1.0
  C  C419  1  0.813400  0.593100  0.989800  1.0
  C  C420  1  0.686600  0.593100  0.510200  1.0
  C  C421  1  0.686600  0.906900  0.989800  1.0
  C  C422  1  0.989800  0.813400  0.593100  1.0
  C  C423  1  0.510200  0.686600  0.593100  1.0
  C  C424  1  0.989800  0.686600  0.906900  1.0
  C  C425  1  0.906900  0.510200  0.813400  1.0
  C  C426  1  0.813400  0.906900  0.510200  1.0
  C  C427  1  0.510200  0.813400  0.906900  1.0
  C  C428  1  0.406900  0.010200  0.186600  1.0
  C  C429  1  0.406900  0.489800  0.313400  1.0
  C  C430  1  0.093100  0.010200  0.313400  1.0
  C  C431  1  0.186600  0.406900  0.010200  1.0
  C  C432  1  0.313400  0.406900  0.489800  1.0
  C  C433  1  0.313400  0.093100  0.010200  1.0
  C  C434  1  0.010200  0.186600  0.406900  1.0
  C  C435  1  0.489800  0.313400  0.406900  1.0
  C  C436  1  0.010200  0.313400  0.093100  1.0
  C  C437  1  0.154000  0.517400  0.178800  1.0
  C  C438  1  0.178800  0.154000  0.517400  1.0
  C  C439  1  0.517400  0.178800  0.154000  1.0
  C  C440  1  0.654000  0.017400  0.821200  1.0
  C  C441  1  0.654000  0.482600  0.678800  1.0
  C  C442  1  0.846000  0.017400  0.678800  1.0
  C  C443  1  0.821200  0.654000  0.017400  1.0
  C  C444  1  0.678800  0.654000  0.482600  1.0
  C  C445  1  0.678800  0.846000  0.017400  1.0
  C  C446  1  0.017400  0.821200  0.654000  1.0
  C  C447  1  0.482600  0.678800  0.654000  1.0
  C  C448  1  0.017400  0.678800  0.846000  1.0
  C  C449  1  0.846000  0.482600  0.821200  1.0
  C  C450  1  0.821200  0.846000  0.482600  1.0
  C  C451  1  0.482600  0.821200  0.846000  1.0
  C  C452  1  0.346000  0.982600  0.178800  1.0
  C  C453  1  0.346000  0.517400  0.321200  1.0
  C  C454  1  0.154000  0.982600  0.321200  1.0
  C  C455  1  0.178800  0.346000  0.982600  1.0
  C  C456  1  0.321200  0.346000  0.517400  1.0
  C  C457  1  0.321200  0.154000  0.982600  1.0
  C  C458  1  0.982600  0.178800  0.346000  1.0
  C  C459  1  0.517400  0.321200  0.346000  1.0
  C  C460  1  0.982600  0.321200  0.154000  1.0
  C  C461  1  0.160200  0.565800  0.137100  1.0
  C  C462  1  0.137100  0.160200  0.565800  1.0
  C  C463  1  0.565800  0.137100  0.160200  1.0
  C  C464  1  0.660200  0.065800  0.862900  1.0
  C  C465  1  0.660200  0.434200  0.637100  1.0
  C  C466  1  0.839800  0.065800  0.637100  1.0
  C  C467  1  0.862900  0.660200  0.065800  1.0
  C  C468  1  0.637100  0.660200  0.434200  1.0
  C  C469  1  0.637100  0.839800  0.065800  1.0
  C  C470  1  0.065800  0.862900  0.660200  1.0
  C  C471  1  0.434200  0.637100  0.660200  1.0
  C  C472  1  0.065800  0.637100  0.839800  1.0
  C  C473  1  0.839800  0.434200  0.862900  1.0
  C  C474  1  0.862900  0.839800  0.434200  1.0
  C  C475  1  0.434200  0.862900  0.839800  1.0
  C  C476  1  0.339800  0.934200  0.137100  1.0
  C  C477  1  0.339800  0.565800  0.362900  1.0
  C  C478  1  0.160200  0.934200  0.362900  1.0
  C  C479  1  0.137100  0.339800  0.934200  1.0
  C  C480  1  0.362900  0.339800  0.565800  1.0
  C  C481  1  0.362900  0.160200  0.934200  1.0
  C  C482  1  0.934200  0.137100  0.339800  1.0
  C  C483  1  0.565800  0.362900  0.339800  1.0
  C  C484  1  0.934200  0.362900  0.160200  1.0
  C  C485  1  0.110000  0.589000  0.101800  1.0
  C  C486  1  0.101800  0.110000  0.589000  1.0
  C  C487  1  0.589000  0.101800  0.110000  1.0
  C  C488  1  0.610000  0.089000  0.898200  1.0
  C  C489  1  0.610000  0.411000  0.601800  1.0
  C  C490  1  0.890000  0.089000  0.601800  1.0
  C  C491  1  0.898200  0.610000  0.089000  1.0
  C  C492  1  0.601800  0.610000  0.411000  1.0
  C  C493  1  0.601800  0.890000  0.089000  1.0
  C  C494  1  0.089000  0.898200  0.610000  1.0
  C  C495  1  0.411000  0.601800  0.610000  1.0
  C  C496  1  0.089000  0.601800  0.890000  1.0
  C  C497  1  0.890000  0.411000  0.898200  1.0
  C  C498  1  0.898200  0.890000  0.411000  1.0
  C  C499  1  0.411000  0.898200  0.890000  1.0
  C  C500  1  0.390000  0.911000  0.101800  1.0
  C  C501  1  0.390000  0.589000  0.398200  1.0
  C  C502  1  0.110000  0.911000  0.398200  1.0
  C  C503  1  0.101800  0.390000  0.911000  1.0
  C  C504  1  0.398200  0.390000  0.589000  1.0
  C  C505  1  0.398200  0.110000  0.911000  1.0
  C  C506  1  0.911000  0.101800  0.390000  1.0
  C  C507  1  0.589000  0.398200  0.390000  1.0
  C  C508  1  0.911000  0.398200  0.110000  1.0
  C  C509  1  0.052700  0.560400  0.106200  1.0
  C  C510  1  0.106200  0.052700  0.560400  1.0
  C  C511  1  0.560400  0.106200  0.052700  1.0
  C  C512  1  0.552700  0.060400  0.893800  1.0
  C  C513  1  0.552700  0.439600  0.606200  1.0
  C  C514  1  0.947300  0.060400  0.606200  1.0
  C  C515  1  0.893800  0.552700  0.060400  1.0
  C  C516  1  0.606200  0.552700  0.439600  1.0
  C  C517  1  0.606200  0.947300  0.060400  1.0
  C  C518  1  0.060400  0.893800  0.552700  1.0
  C  C519  1  0.439600  0.606200  0.552700  1.0
  C  C520  1  0.060400  0.606200  0.947300  1.0
  C  C521  1  0.947300  0.439600  0.893800  1.0
  C  C522  1  0.893800  0.947300  0.439600  1.0
  C  C523  1  0.439600  0.893800  0.947300  1.0
  C  C524  1  0.447300  0.939600  0.106200  1.0
  C  C525  1  0.447300  0.560400  0.393800  1.0
  C  C526  1  0.052700  0.939600  0.393800  1.0
  C  C527  1  0.106200  0.447300  0.939600  1.0
  C  C528  1  0.393800  0.447300  0.560400  1.0
  C  C529  1  0.393800  0.052700  0.939600  1.0
  C  C530  1  0.939600  0.106200  0.447300  1.0
  C  C531  1  0.560400  0.393800  0.447300  1.0
  C  C532  1  0.939600  0.393800  0.052700  1.0
  C  C533  1  0.043900  0.510000  0.148500  1.0
  C  C534  1  0.148500  0.043900  0.510000  1.0
  C  C535  1  0.510000  0.148500  0.043900  1.0
  C  C536  1  0.543900  0.010000  0.851500  1.0
  C  C537  1  0.543900  0.490000  0.648500  1.0
  C  C538  1  0.956100  0.010000  0.648500  1.0
  C  C539  1  0.851500  0.543900  0.010000  1.0
  C  C540  1  0.648500  0.543900  0.490000  1.0
  C  C541  1  0.648500  0.956100  0.010000  1.0
  C  C542  1  0.010000  0.851500  0.543900  1.0
  C  C543  1  0.490000  0.648500  0.543900  1.0
  C  C544  1  0.010000  0.648500  0.956100  1.0
  C  C545  1  0.956100  0.490000  0.851500  1.0
  C  C546  1  0.851500  0.956100  0.490000  1.0
  C  C547  1  0.490000  0.851500  0.956100  1.0
  C  C548  1  0.456100  0.990000  0.148500  1.0
  C  C549  1  0.456100  0.510000  0.351500  1.0
  C  C550  1  0.043900  0.990000  0.351500  1.0
  C  C551  1  0.148500  0.456100  0.990000  1.0
  C  C552  1  0.351500  0.456100  0.510000  1.0
  C  C553  1  0.351500  0.043900  0.990000  1.0
  C  C554  1  0.990000  0.148500  0.456100  1.0
  C  C555  1  0.510000  0.351500  0.456100  1.0
  C  C556  1  0.990000  0.351500  0.043900  1.0
  N  N557  1  0.022800  0.750000  0.250000  1
  N  N558  1  0.250000  0.022800  0.750000  1
  N  N559  1  0.750000  0.250000  0.022800  1
  N  N560  1  0.522800  0.250000  0.750000  1
  N  N561  1  0.977200  0.250000  0.750000  1
  N  N562  1  0.750000  0.522800  0.250000  1
  N  N563  1  0.750000  0.977200  0.250000  1
  N  N564  1  0.250000  0.750000  0.522800  1
  N  N565  1  0.250000  0.750000  0.977200  1
  N  N566  1  0.477200  0.750000  0.250000  1
  N  N567  1  0.250000  0.477200  0.750000  1
  N  N568  1  0.750000  0.250000  0.477200  1
  N  N569  1  0.250000  0.750000  0.250000  1
  N  N570  1  0.250000  0.250000  0.750000  1
  N  N571  1  0.750000  0.250000  0.250000  1
  N  N572  1  0.750000  0.250000  0.750000  1
  N  N573  1  0.750000  0.750000  0.250000  1
  N  N574  1  0.250000  0.750000  0.750000  1
  N  N575  1  0.250000  0.250000  0.250000  1
  N  N576  1  0.750000  0.750000  0.750000  1
  N  N577  1  0.500000  0.500000  0.000000  1
  N  N578  1  0.000000  0.500000  0.500000  1
  N  N579  1  0.500000  0.000000  0.500000  1
  N  N580  1  0.000000  0.000000  0.000000  1
  N  N581  1  0.181000  0.407200  0.379800  1.0
  N  N582  1  0.379800  0.181000  0.407200  1.0
  N  N583  1  0.407200  0.379800  0.181000  1.0
  N  N584  1  0.681000  0.907200  0.620200  1.0
  N  N585  1  0.681000  0.592800  0.879800  1.0
  N  N586  1  0.819000  0.907200  0.879800  1.0
  N  N587  1  0.620200  0.681000  0.907200  1.0
  N  N588  1  0.879800  0.681000  0.592800  1.0
  N  N589  1  0.879800  0.819000  0.907200  1.0
  N  N590  1  0.907200  0.620200  0.681000  1.0
  N  N591  1  0.592800  0.879800  0.681000  1.0
  N  N592  1  0.907200  0.879800  0.819000  1.0
  N  N593  1  0.819000  0.592800  0.620200  1.0
  N  N594  1  0.620200  0.819000  0.592800  1.0
  N  N595  1  0.592800  0.620200  0.819000  1.0
  N  N596  1  0.319000  0.092800  0.379800  1.0
  N  N597  1  0.319000  0.407200  0.120200  1.0
  N  N598  1  0.181000  0.092800  0.120200  1.0
  N  N599  1  0.379800  0.319000  0.092800  1.0
  N  N600  1  0.120200  0.319000  0.407200  1.0
  N  N601  1  0.120200  0.181000  0.092800  1.0
  N  N602  1  0.092800  0.379800  0.319000  1.0
  N  N603  1  0.407200  0.120200  0.319000  1.0
  N  N604  1  0.092800  0.120200  0.181000  1.0
  N  N605  1  0.113300  0.428500  0.281200  1.0
  N  N606  1  0.281200  0.113300  0.428500  1.0
  N  N607  1  0.428500  0.281200  0.113300  1.0
  N  N608  1  0.613300  0.928500  0.718800  1.0
  N  N609  1  0.613300  0.571500  0.781200  1.0
  N  N610  1  0.886700  0.928500  0.781200  1.0
  N  N611  1  0.718800  0.613300  0.928500  1.0
  N  N612  1  0.781200  0.613300  0.571500  1.0
  N  N613  1  0.781200  0.886700  0.928500  1.0
  N  N614  1  0.928500  0.718800  0.613300  1.0
  N  N615  1  0.571500  0.781200  0.613300  1.0
  N  N616  1  0.928500  0.781200  0.886700  1.0
  N  N617  1  0.886700  0.571500  0.718800  1.0
  N  N618  1  0.718800  0.886700  0.571500  1.0
  N  N619  1  0.571500  0.718800  0.886700  1.0
  N  N620  1  0.386700  0.071500  0.281200  1.0
  N  N621  1  0.386700  0.428500  0.218800  1.0
  N  N622  1  0.113300  0.071500  0.218800  1.0
  N  N623  1  0.281200  0.386700  0.071500  1.0
  N  N624  1  0.218800  0.386700  0.428500  1.0
  N  N625  1  0.218800  0.113300  0.071500  1.0
  N  N626  1  0.071500  0.281200  0.386700  1.0
  N  N627  1  0.428500  0.218800  0.386700  1.0
  N  N628  1  0.071500  0.218800  0.113300  1.0
  Cl  Cl629  1  0.160340  0.588630  0.363800  1.0
  Cl  Cl630  1  0.363800  0.160340  0.588630  1.0
  Cl  Cl631  1  0.588630  0.363800  0.160340  1.0
  Cl  Cl632  1  0.660340  0.088630  0.636200  1.0
  Cl  Cl633  1  0.660340  0.411370  0.863800  1.0
  Cl  Cl634  1  0.839660  0.088630  0.863800  1.0
  Cl  Cl635  1  0.636200  0.660340  0.088630  1.0
  Cl  Cl636  1  0.863800  0.660340  0.411370  1.0
  Cl  Cl637  1  0.863800  0.839660  0.088630  1.0
  Cl  Cl638  1  0.088630  0.636200  0.660340  1.0
  Cl  Cl639  1  0.411370  0.863800  0.660340  1.0
  Cl  Cl640  1  0.088630  0.863800  0.839660  1.0
  Cl  Cl641  1  0.839660  0.411370  0.636200  1.0
  Cl  Cl642  1  0.636200  0.839660  0.411370  1.0
  Cl  Cl643  1  0.411370  0.636200  0.839660  1.0
  Cl  Cl644  1  0.339660  0.911370  0.363800  1.0
  Cl  Cl645  1  0.339660  0.588630  0.136200  1.0
  Cl  Cl646  1  0.160340  0.911370  0.136200  1.0
  Cl  Cl647  1  0.363800  0.339660  0.911370  1.0
  Cl  Cl648  1  0.136200  0.339660  0.588630  1.0
  Cl  Cl649  1  0.136200  0.160340  0.911370  1.0
  Cl  Cl650  1  0.911370  0.363800  0.339660  1.0
  Cl  Cl651  1  0.588630  0.136200  0.339660  1.0
  Cl  Cl652  1  0.911370  0.136200  0.160340  1.0
  O  O653  1  0.304000  0.768000  0.151000  1.0
  O  O654  1  0.151000  0.304000  0.768000  1.0
  O  O655  1  0.768000  0.151000  0.304000  1.0
  O  O656  1  0.804000  0.268000  0.849000  1.0
  O  O657  1  0.804000  0.232000  0.651000  1.0
  O  O658  1  0.696000  0.268000  0.651000  1.0
  O  O659  1  0.849000  0.804000  0.268000  1.0
  O  O660  1  0.651000  0.804000  0.232000  1.0
  O  O661  1  0.651000  0.696000  0.268000  1.0
  O  O662  1  0.268000  0.849000  0.804000  1.0
  O  O663  1  0.232000  0.651000  0.804000  1.0
  O  O664  1  0.268000  0.651000  0.696000  1.0
  O  O665  1  0.696000  0.232000  0.849000  1.0
  O  O666  1  0.849000  0.696000  0.232000  1.0
  O  O667  1  0.232000  0.849000  0.696000  1.0
  O  O668  1  0.196000  0.732000  0.151000  1.0
  O  O669  1  0.196000  0.768000  0.349000  1.0
  O  O670  1  0.304000  0.732000  0.349000  1.0
  O  O671  1  0.151000  0.196000  0.732000  1.0
  O  O672  1  0.349000  0.196000  0.768000  1.0
  O  O673  1  0.349000  0.304000  0.732000  1.0
  O  O674  1  0.732000  0.151000  0.196000  1.0
  O  O675  1  0.768000  0.349000  0.196000  1.0
  O  O676  1  0.732000  0.349000  0.304000  1.0
  O  O677  1  0.202600  0.495900  0.210500  1.0
  O  O678  1  0.210500  0.202600  0.495900  1.0
  O  O679  1  0.495900  0.210500  0.202600  1.0
  O  O680  1  0.702600  0.995900  0.789500  1.0
  O  O681  1  0.702600  0.504100  0.710500  1.0
  O  O682  1  0.797400  0.995900  0.710500  1.0
  O  O683  1  0.789500  0.702600  0.995900  1.0
  O  O684  1  0.710500  0.702600  0.504100  1.0
  O  O685  1  0.710500  0.797400  0.995900  1.0
  O  O686  1  0.995900  0.789500  0.702600  1.0
  O  O687  1  0.504100  0.710500  0.702600  1.0
  O  O688  1  0.995900  0.710500  0.797400  1.0
  O  O689  1  0.797400  0.504100  0.789500  1.0
  O  O690  1  0.789500  0.797400  0.504100  1.0
  O  O691  1  0.504100  0.789500  0.797400  1.0
  O  O692  1  0.297400  0.004100  0.210500  1.0
  O  O693  1  0.297400  0.495900  0.289500  1.0
  O  O694  1  0.202600  0.004100  0.289500  1.0
  O  O695  1  0.210500  0.297400  0.004100  1.0
  O  O696  1  0.289500  0.297400  0.495900  1.0
  O  O697  1  0.289500  0.202600  0.004100  1.0
  O  O698  1  0.004100  0.210500  0.297400  1.0
  O  O699  1  0.495900  0.289500  0.297400  1.0
  O  O700  1  0.004100  0.289500  0.202600  1.0
