# generated using pymatgen
data_ZrSi2C71F8
_symmetry_space_group_name_H-M   'P 1'
_cell_length_a   12.01730000
_cell_length_b   16.09390000
_cell_length_c   16.53900000
_cell_angle_alpha   85.78500000
_cell_angle_beta   71.94900000
_cell_angle_gamma   88.62700000
_symmetry_Int_Tables_number   1
_chemical_formula_structural   ZrSi2C71F8
_chemical_formula_sum   'Zr2 Si4 C142 F16'
_cell_volume   3033.06276704
_cell_formula_units_Z   2
loop_
 _symmetry_equiv_pos_site_id
 _symmetry_equiv_pos_as_xyz
  1  'x, y, z'
loop_
 _atom_site_type_symbol
 _atom_site_label
 _atom_site_symmetry_multiplicity
 _atom_site_fract_x
 _atom_site_fract_y
 _atom_site_fract_z
 _atom_site_occupancy
  Zr  Zr1  1  0.650200  0.212030  0.331640  1.0
  Zr  Zr2  1  0.349800  0.787970  0.668360  1.0
  Si  Si3  1  0.384700  0.255320  0.261180  1.0
  Si  Si4  1  0.615300  0.744680  0.738820  1.0
  Si  Si5  1  0.824200  0.013780  0.316610  1.0
  Si  Si6  1  0.175800  0.986220  0.683390  1.0
  C  C7  1  0.150600  0.411800  0.779700  1
  C  C8  1  0.849400  0.588200  0.220300  1
  C  C9  1  0.197300  0.339700  0.786400  1
  C  C10  1  0.802700  0.660300  0.213600  1
  C  C11  1  0.198400  0.282100  0.732900  1
  C  C12  1  0.801600  0.717900  0.267100  1
  C  C13  1  0.149400  0.295900  0.671100  1
  C  C14  1  0.850600  0.704100  0.328900  1
  C  C15  1  0.097100  0.370800  0.662800  1
  C  C16  1  0.902900  0.629200  0.337200  1
  C  C17  1  0.097500  0.430200  0.718500  1
  C  C18  1  0.902500  0.569800  0.281500  1
  C  C19  1  0.843100  0.383700  0.570100  1
  C  C20  1  0.156900  0.616300  0.429900  1
  C  C21  1  0.921700  0.395500  0.490800  1
  C  C22  1  0.078300  0.604500  0.509200  1
  C  C23  1  0.987700  0.329600  0.454000  1
  C  C24  1  0.012300  0.670400  0.546000  1
  C  C25  1  0.972800  0.254700  0.495400  1
  C  C26  1  0.027200  0.745300  0.504600  1
  C  C27  1  0.896300  0.242700  0.573800  1
  C  C28  1  0.103700  0.757300  0.426200  1
  C  C29  1  0.832400  0.307500  0.610400  1
  C  C30  1  0.167600  0.692500  0.389600  1
  C  C31  1  0.502300  0.185800  0.280200  1.0
  C  C32  1  0.497700  0.814200  0.719800  1.0
  C  C33  1  0.517000  0.104900  0.259200  1.0
  C  C34  1  0.483000  0.895100  0.740800  1.0
  C  C35  1  0.433600  0.062600  0.222900  1.0
  C  C36  1  0.566400  0.937400  0.777100  1.0
  C  C37  1  0.444300  0.071100  0.137100  1.0
  C  C38  1  0.555700  0.928900  0.862900  1.0
  C  C39  1  0.344800  0.011200  0.276400  1.0
  C  C40  1  0.655200  0.988800  0.723600  1.0
  C  C41  1  0.372900  0.026800  0.103900  1.0
  C  C42  1  0.627100  0.973200  0.896100  1.0
  C  C43  1  0.273600  0.967100  0.243000  1.0
  C  C44  1  0.726400  0.032900  0.757000  1.0
  C  C45  1  0.287400  0.972300  0.157200  1.0
  C  C46  1  0.712600  0.027700  0.842800  1.0
  C  C47  1  0.218000  0.918600  0.121000  1.0
  C  C48  1  0.782000  0.081400  0.879000  1.0
  C  C49  1  0.183000  0.946600  0.051700  1.0
  C  C50  1  0.817000  0.053400  0.948300  1.0
  C  C51  1  0.187400  0.837900  0.156300  1.0
  C  C52  1  0.812600  0.162100  0.843700  1.0
  C  C53  1  0.119800  0.895000  0.017100  1.0
  C  C54  1  0.880200  0.105000  0.982900  1.0
  C  C55  1  0.124800  0.786300  0.122700  1.0
  C  C56  1  0.875200  0.213700  0.877300  1.0
  C  C57  1  0.090900  0.814500  0.052900  1.0
  C  C58  1  0.909100  0.185500  0.947100  1.0
  C  C59  1  0.025000  0.758200  0.016100  1.0
  C  C60  1  0.975000  0.241800  0.983900  1.0
  C  C61  1  0.063700  0.679100  0.994000  1.0
  C  C62  1  0.936300  0.320900  0.006000  1.0
  C  C63  1  0.919800  0.782200  0.002800  1.0
  C  C64  1  0.080200  0.217800  0.997200  1.0
  C  C65  1  0.004300  0.627600  0.958500  1.0
  C  C66  1  0.995700  0.372400  0.041500  1.0
  C  C67  1  0.857200  0.729600  0.970600  1.0
  C  C68  1  0.142800  0.270400  0.029400  1.0
  C  C69  1  0.897000  0.650300  0.949100  1.0
  C  C70  1  0.103000  0.349700  0.050900  1.0
  C  C71  1  0.824100  0.590000  0.923300  1.0
  C  C72  1  0.175900  0.410000  0.076700  1.0
  C  C73  1  0.732200  0.549800  0.985600  1.0
  C  C74  1  0.267800  0.450200  0.014400  1.0
  C  C75  1  0.845200  0.568000  0.841500  1.0
  C  C76  1  0.154800  0.432000  0.158500  1.0
  C  C77  1  0.778400  0.508700  0.820900  1.0
  C  C78  1  0.221600  0.491300  0.179100  1.0
  C  C79  1  0.667400  0.490300  0.964900  1.0
  C  C80  1  0.332600  0.509700  0.035100  1.0
  C  C81  1  0.686300  0.467000  0.883400  1.0
  C  C82  1  0.313700  0.533000  0.116600  1.0
  C  C83  1  0.619100  0.399500  0.862600  1.0
  C  C84  1  0.380900  0.600500  0.137400  1.0
  C  C85  1  0.602000  0.324200  0.912500  1.0
  C  C86  1  0.398000  0.675800  0.087500  1.0
  C  C87  1  0.574100  0.408800  0.794400  1.0
  C  C88  1  0.425900  0.591200  0.205600  1.0
  C  C89  1  0.545100  0.258700  0.891500  1.0
  C  C90  1  0.454900  0.741300  0.108500  1.0
  C  C91  1  0.517000  0.342900  0.773900  1.0
  C  C92  1  0.483000  0.657100  0.226100  1.0
  C  C93  1  0.503200  0.266300  0.822100  1.0
  C  C94  1  0.496800  0.733700  0.177900  1.0
  C  C95  1  0.452700  0.192000  0.797100  1.0
  C  C96  1  0.547300  0.808000  0.202900  1.0
  C  C97  1  0.390400  0.132500  0.859000  1.0
  C  C98  1  0.609600  0.867500  0.141000  1.0
  C  C99  1  0.474400  0.175900  0.712300  1.0
  C  C100  1  0.525600  0.824100  0.287700  1.0
  C  C101  1  0.444400  0.099600  0.690300  1.0
  C  C102  1  0.555600  0.900400  0.309700  1.0
  C  C103  1  0.359700  0.057100  0.837200  1.0
  C  C104  1  0.640300  0.942900  0.162800  1.0
  C  C105  1  0.390600  0.037900  0.752600  1.0
  C  C106  1  0.609400  0.962100  0.247400  1.0
  C  C107  1  0.616200  0.050900  0.270300  1.0
  C  C108  1  0.383800  0.949100  0.729700  1.0
  C  C109  1  0.700600  0.079000  0.301700  1.0
  C  C110  1  0.299400  0.921000  0.698300  1.0
  C  C111  1  0.436500  0.300400  0.148800  1.0
  C  C112  1  0.563500  0.699600  0.851200  1.0
  C  C113  1  0.359000  0.343200  0.333100  1.0
  C  C114  1  0.641000  0.656800  0.666900  1.0
  C  C115  1  0.237600  0.207200  0.280800  1.0
  C  C116  1  0.762400  0.792800  0.719200  1.0
  C  C117  1  0.775100  0.941300  0.413900  1.0
  C  C118  1  0.224900  0.058700  0.586100  1.0
  C  C119  1  0.898900  0.953600  0.223100  1.0
  C  C120  1  0.101100  0.046400  0.776900  1.0
  C  C121  1  0.940900  0.080200  0.332600  1.0
  C  C122  1  0.059100  0.919800  0.667400  1.0
  C  C123  1  0.738300  0.268600  0.179600  1.0
  C  C124  1  0.261700  0.731400  0.820400  1.0
  C  C125  1  0.829300  0.234500  0.206000  1.0
  C  C126  1  0.170700  0.765500  0.794000  1.0
  C  C127  1  0.843400  0.282200  0.269500  1.0
  C  C128  1  0.156600  0.717800  0.730500  1.0
  C  C129  1  0.762400  0.346800  0.281300  1.0
  C  C130  1  0.237600  0.653200  0.718700  1.0
  C  C131  1  0.697300  0.338700  0.225200  1.0
  C  C132  1  0.302700  0.661300  0.774800  1.0
  C  C133  1  0.657400  0.168000  0.480000  1.0
  C  C134  1  0.342600  0.832000  0.520000  1.0
  C  C135  1  0.648400  0.254600  0.475800  1.0
  C  C136  1  0.351600  0.745400  0.524200  1.0
  C  C137  1  0.539000  0.276800  0.466400  1.0
  C  C138  1  0.461000  0.723200  0.533600  1.0
  C  C139  1  0.479800  0.203800  0.465600  1.0
  C  C140  1  0.520200  0.796200  0.534400  1.0
  C  C141  1  0.553200  0.136900  0.472700  1.0
  C  C142  1  0.446800  0.863100  0.527300  1.0
  C  C143  1  0.617200  0.508000  0.483700  1.0
  C  C144  1  0.382800  0.492000  0.516300  1.0
  C  C145  1  0.549800  0.478200  0.561900  1.0
  C  C146  1  0.450200  0.521800  0.438100  1.0
  C  C147  1  0.570400  0.529600  0.421000  1.0
  C  C148  1  0.429600  0.470400  0.579000  1.0
  F  F149  1  0.166000  0.651600  0.003100  1.0
  F  F150  1  0.834000  0.348400  0.996900  1.0
  F  F151  1  0.875200  0.858500  0.022800  1.0
  F  F152  1  0.124800  0.141500  0.977200  1.0
  F  F153  1  0.050900  0.554000  0.933500  1.0
  F  F154  1  0.949100  0.446000  0.066500  1.0
  F  F155  1  0.753200  0.755500  0.963200  1.0
  F  F156  1  0.246800  0.244500  0.036800  1.0
  F  F157  1  0.707300  0.568500  0.067100  1.0
  F  F158  1  0.292700  0.431500  0.932900  1.0
  F  F159  1  0.932500  0.605300  0.777400  1.0
  F  F160  1  0.067500  0.394700  0.222600  1.0
  F  F161  1  0.806000  0.490200  0.739300  1.0
  F  F162  1  0.194000  0.509800  0.260700  1.0
  F  F163  1  0.580900  0.453400  0.030500  1.0
  F  F164  1  0.419100  0.546600  0.969500  1.0
