# generated using pymatgen
data_SiH99Pd6C82N34O55
_symmetry_space_group_name_H-M   'P 1'
_cell_length_a   17.45260000
_cell_length_b   17.98660000
_cell_length_c   23.83340000
_cell_angle_alpha   93.65000000
_cell_angle_beta   97.55600000
_cell_angle_gamma   101.68600000
_symmetry_Int_Tables_number   1
_chemical_formula_structural   SiH99Pd6C82N34O55
_chemical_formula_sum   'Si2 H198 Pd12 C164 N68 O110'
_cell_volume   7231.43200807
_cell_formula_units_Z   2
loop_
 _symmetry_equiv_pos_site_id
 _symmetry_equiv_pos_as_xyz
  1  'x, y, z'
loop_
 _atom_site_type_symbol
 _atom_site_label
 _atom_site_symmetry_multiplicity
 _atom_site_fract_x
 _atom_site_fract_y
 _atom_site_fract_z
 _atom_site_occupancy
  Si  Si1  1  0.773000  0.818700  0.034600  1
  Si  Si2  1  0.227000  0.181300  0.965400  1
  H  H3  1  0.918000  0.091600  0.985600  1
  H  H4  1  0.082000  0.908400  0.014400  1
  H  H5  1  0.796000  0.214800  0.957000  1
  H  H6  1  0.204000  0.785200  0.043000  1
  H  H7  1  0.552200  0.708000  0.051200  1
  H  H8  1  0.447800  0.292000  0.948800  1
  H  H9  1  0.665400  0.568500  0.091300  1
  H  H10  1  0.334600  0.431500  0.908700  1
  H  H11  1  0.919100  0.969800  0.007700  1
  H  H12  1  0.080900  0.030200  0.992300  1
  H  H13  1  0.555400  0.830800  0.026800  1
  H  H14  1  0.444600  0.169200  0.973200  1
  H  H15  1  0.660000  0.184800  0.956400  1
  H  H16  1  0.340000  0.815200  0.043600  1
  H  H17  1  0.799400  0.582900  0.094600  1
  H  H18  1  0.200600  0.417100  0.905400  1
  H  H19  1  0.947200  0.947000  0.102500  1
  H  H20  1  0.052800  0.053000  0.897500  1
  H  H21  1  0.610000  0.199300  0.039900  1
  H  H22  1  0.390000  0.800700  0.960100  1
  H  H23  1  0.560500  0.926800  0.094700  1
  H  H24  1  0.439500  0.073200  0.905300  1
  H  H25  1  0.882800  0.652100  0.171700  1
  H  H26  1  0.117200  0.347900  0.828300  1
  H  H27  1  0.965800  0.170100  0.147100  1
  H  H28  1  0.034200  0.829900  0.852900  1
  H  H29  1  0.830800  0.251400  0.122900  1
  H  H30  1  0.169200  0.748600  0.877100  1
  H  H31  1  0.562000  0.777900  0.211600  1
  H  H32  1  0.438000  0.222100  0.788400  1
  H  H33  1  0.695100  0.702100  0.232400  1
  H  H34  1  0.304900  0.297900  0.767600  1
  H  H35  1  0.018000  0.952100  0.186600  1
  H  H36  1  0.982000  0.047900  0.813400  1
  H  H37  1  0.938800  0.770900  0.221000  1
  H  H38  1  0.061200  0.229100  0.779000  1
  H  H39  1  0.583300  0.160900  0.126600  1
  H  H40  1  0.416700  0.839100  0.873400  1
  H  H41  1  0.519500  0.997400  0.159000  1
  H  H42  1  0.480500  0.002600  0.841000  1
  H  H43  1  0.936700  0.135400  0.229700  1
  H  H44  1  0.063300  0.864600  0.770300  1
  H  H45  1  0.782200  0.313400  0.189500  1
  H  H46  1  0.217800  0.686600  0.810500  1
  H  H47  1  0.776000  0.707500  0.320000  1
  H  H48  1  0.224000  0.292500  0.680000  1
  H  H49  1  0.610600  0.875600  0.275000  1
  H  H50  1  0.389400  0.124400  0.725000  1
  H  H51  1  0.976600  0.856000  0.379700  1
  H  H52  1  0.023400  0.144000  0.620300  1
  H  H53  1  0.017100  0.011100  0.347200  1
  H  H54  1  0.982900  0.988900  0.652800  1
  H  H55  1  0.614500  0.247500  0.284800  1
  H  H56  1  0.385500  0.752500  0.715200  1
  H  H57  1  0.558600  0.075800  0.319900  1
  H  H58  1  0.441400  0.924200  0.680100  1
  H  H59  1  0.997600  0.229200  0.304100  1
  H  H60  1  0.002400  0.770800  0.695900  1
  H  H61  1  0.730800  0.776000  0.387500  1
  H  H62  1  0.269200  0.224000  0.612500  1
  H  H63  1  0.583300  0.854800  0.366800  1
  H  H64  1  0.416700  0.145200  0.633200  1
  H  H65  1  0.858800  0.318500  0.278500  1
  H  H66  1  0.141200  0.681500  0.721500  1
  H  H67  1  0.049500  0.414600  0.078400  1
  H  H68  1  0.950500  0.585400  0.921600  1
  H  H69  1  0.052500  0.443800  0.017700  1
  H  H70  1  0.947500  0.556200  0.982300  1
  H  H71  1  0.146600  0.367600  0.042500  1
  H  H72  1  0.853400  0.632400  0.957500  1
  H  H73  1  0.091600  0.338400  0.984400  1
  H  H74  1  0.908400  0.661600  0.015600  1
  H  H75  1  0.665100  0.081100  0.392600  1
  H  H76  1  0.334900  0.918900  0.607400  1
  H  H77  1  0.914700  0.060100  0.393900  1
  H  H78  1  0.085300  0.939900  0.606100  1
  H  H79  1  0.667200  0.374500  0.329400  1
  H  H80  1  0.332800  0.625500  0.670600  1
  H  H81  1  0.954100  0.808500  0.467600  1
  H  H82  1  0.045900  0.191500  0.532400  1
  H  H83  1  0.749700  0.444700  0.407500  1
  H  H84  1  0.250300  0.555300  0.592500  1
  H  H85  1  0.721600  0.064700  0.482000  1
  H  H86  1  0.278400  0.935300  0.518000  1
  H  H87  1  0.893500  0.149100  0.462000  1
  H  H88  1  0.106500  0.850900  0.538000  1
  H  H89  1  0.908300  0.819000  0.552700  1
  H  H90  1  0.091700  0.181000  0.447300  1
  H  H91  1  0.694100  0.944900  0.515200  1
  H  H92  1  0.305900  0.055100  0.484800  1
  H  H93  1  0.883100  0.451700  0.418500  1
  H  H94  1  0.116900  0.548300  0.581500  1
  H  H95  1  0.925500  0.277900  0.447300  1
  H  H96  1  0.074500  0.722100  0.552700  1
  H  H97  1  0.773100  0.804900  0.555200  1
  H  H98  1  0.226900  0.195100  0.444800  1
  H  H99  1  0.294300  0.916600  0.281100  1
  H  H100  1  0.705700  0.083400  0.718900  1
  H  H101  1  0.259600  0.910700  0.338800  1
  H  H102  1  0.740400  0.089300  0.661200  1
  H  H103  1  0.205900  0.806200  0.240500  1
  H  H104  1  0.794100  0.193800  0.759500  1
  H  H105  1  0.246400  0.786700  0.299100  1
  H  H106  1  0.753600  0.213300  0.700900  1
  H  H107  1  0.202300  0.468000  0.389000  1
  H  H108  1  0.797700  0.532000  0.611000  1
  H  H109  1  0.183900  0.438700  0.324500  1
  H  H110  1  0.816100  0.561300  0.675500  1
  H  H111  1  0.128800  0.521400  0.310300  1
  H  H112  1  0.871200  0.478600  0.689700  1
  H  H113  1  0.143800  0.548300  0.375100  1
  H  H114  1  0.856200  0.451700  0.624900  1
  H  H115  1  0.342000  0.530000  0.174000  1
  H  H116  1  0.658000  0.470000  0.826000  1
  H  H117  1  0.376900  0.507200  0.119400  1
  H  H118  1  0.623100  0.492800  0.880600  1
  H  H119  1  0.422000  0.446000  0.184000  1
  H  H120  1  0.578000  0.554000  0.816000  1
  H  H121  1  0.441400  0.516800  0.229000  1
  H  H122  1  0.558600  0.483200  0.771000  1
  H  H123  1  0.302200  0.105600  0.160400  1
  H  H124  1  0.697800  0.894400  0.839600  1
  H  H125  1  0.262300  0.096000  0.215700  1
  H  H126  1  0.737700  0.904000  0.784300  1
  H  H127  1  0.345100  0.204000  0.260500  1
  H  H128  1  0.654900  0.796000  0.739500  1
  H  H129  1  0.307600  0.224800  0.201500  1
  H  H130  1  0.692400  0.775200  0.798500  1
  H  H131  1  0.507300  0.606700  0.515100  1
  H  H132  1  0.492700  0.393300  0.484900  1
  H  H133  1  0.526800  0.683400  0.554500  1
  H  H134  1  0.473200  0.316600  0.445500  1
  H  H135  1  0.420800  0.687900  0.494000  1
  H  H136  1  0.579200  0.312100  0.506000  1
  H  H137  1  0.458200  0.661100  0.441800  1
  H  H138  1  0.541800  0.338900  0.558200  1
  H  H139  1  0.945800  0.357800  0.982200  1
  H  H140  1  0.054200  0.642200  0.017800  1
  H  H141  1  0.925800  0.382300  0.036900  1
  H  H142  1  0.074200  0.617700  0.963100  1
  H  H143  1  0.087300  0.272000  0.083800  1
  H  H144  1  0.912700  0.728000  0.916200  1
  H  H145  1  0.079400  0.233700  0.026800  1
  H  H146  1  0.920600  0.766300  0.973200  1
  H  H147  1  0.184200  0.949400  0.238000  1
  H  H148  1  0.815800  0.050600  0.762000  1
  H  H149  1  0.192800  0.990800  0.293900  1
  H  H150  1  0.807200  0.009200  0.706100  1
  H  H151  1  0.140400  0.792000  0.338100  1
  H  H152  1  0.859600  0.208000  0.661900  1
  H  H153  1  0.105300  0.754700  0.281900  1
  H  H154  1  0.894700  0.245300  0.718100  1
  H  H155  1  0.131200  0.367000  0.408100  1
  H  H156  1  0.868800  0.633000  0.591900  1
  H  H157  1  0.122100  0.336500  0.348800  1
  H  H158  1  0.877900  0.663500  0.651200  1
  H  H159  1  0.010100  0.497000  0.315400  1
  H  H160  1  0.989900  0.503000  0.684600  1
  H  H161  1  0.024300  0.518300  0.376500  1
  H  H162  1  0.975700  0.481700  0.623500  1
  H  H163  1  0.418000  0.643300  0.183900  1
  H  H164  1  0.582000  0.356700  0.816100  1
  H  H165  1  0.407100  0.630900  0.122000  1
  H  H166  1  0.592900  0.369100  0.878000  1
  H  H167  1  0.534700  0.486800  0.148200  1
  H  H168  1  0.465300  0.513200  0.851800  1
  H  H169  1  0.562100  0.514000  0.208100  1
  H  H170  1  0.437900  0.486000  0.791900  1
  H  H171  1  0.364900  0.024200  0.205500  1
  H  H172  1  0.635100  0.975800  0.794500  1
  H  H173  1  0.369500  0.063300  0.261900  1
  H  H174  1  0.630500  0.936700  0.738100  1
  H  H175  1  0.449200  0.261000  0.224000  1
  H  H176  1  0.550800  0.739000  0.776000  1
  H  H177  1  0.418700  0.225900  0.166400  1
  H  H178  1  0.581300  0.774100  0.833600  1
  H  H179  1  0.610300  0.644400  0.472300  1
  H  H180  1  0.389700  0.355600  0.527700  1
  H  H181  1  0.642300  0.678500  0.530000  1
  H  H182  1  0.357700  0.321500  0.470000  1
  H  H183  1  0.495400  0.802600  0.499600  1
  H  H184  1  0.504600  0.197400  0.500400  1
  H  H185  1  0.482100  0.784800  0.438100  1
  H  H186  1  0.517900  0.215200  0.561900  1
  H  H187  1  0.791900  0.974400  0.327900  1
  H  H188  1  0.208100  0.025600  0.672100  1
  H  H189  1  0.790500  0.837400  0.156800  1
  H  H190  1  0.209500  0.162600  0.843200  1
  H  H191  1  0.802600  0.882700  0.260300  1
  H  H192  1  0.197400  0.117300  0.739700  1
  H  H193  1  0.764100  0.090500  0.302500  1
  H  H194  1  0.235900  0.909500  0.697500  1
  H  H195  1  0.738800  0.110600  0.208800  1
  H  H196  1  0.261200  0.889400  0.791200  1
  H  H197  1  0.726900  0.063300  0.105900  1
  H  H198  1  0.273100  0.936700  0.894100  1
  H  H199  1  0.733100  0.971100  0.038400  1
  H  H200  1  0.266900  0.028900  0.961600  1
  Pd  Pd201  1  0.945700  0.249900  0.042300  1
  Pd  Pd202  1  0.054300  0.750100  0.957700  1
  Pd  Pd203  1  0.075400  0.883500  0.286900  1
  Pd  Pd204  1  0.924600  0.116500  0.713100  1
  Pd  Pd205  1  0.998700  0.378000  0.362600  1
  Pd  Pd206  1  0.001300  0.622000  0.637400  1
  Pd  Pd207  1  0.548600  0.625400  0.156900  1
  Pd  Pd208  1  0.451400  0.374600  0.843100  1
  Pd  Pd209  1  0.481700  0.133800  0.217600  1
  Pd  Pd210  1  0.518300  0.866200  0.782400  1
  Pd  Pd211  1  0.622500  0.783600  0.471500  1
  Pd  Pd212  1  0.377500  0.216400  0.528500  1
  C  C213  1  0.928700  0.082600  0.023600  1
  C  C214  1  0.071300  0.917400  0.976400  1
  C  C215  1  0.776200  0.216300  0.991300  1
  C  C216  1  0.223800  0.783700  0.008700  1
  C  C217  1  0.554600  0.747200  0.079100  1
  C  C218  1  0.445400  0.252800  0.920900  1
  C  C219  1  0.698900  0.598700  0.121400  1
  C  C220  1  0.301100  0.401300  0.878600  1
  C  C221  1  0.929300  0.009600  0.036400  1
  C  C222  1  0.070700  0.990400  0.963600  1
  C  C223  1  0.556500  0.820600  0.064700  1
  C  C224  1  0.443500  0.179400  0.935300  1
  C  C225  1  0.693900  0.200300  0.990500  1
  C  C226  1  0.306100  0.799700  0.009500  1
  C  C227  1  0.779000  0.606000  0.123500  1
  C  C228  1  0.221000  0.394000  0.876500  1
  C  C229  1  0.945500  0.996000  0.092900  1
  C  C230  1  0.054500  0.004000  0.907100  1
  C  C231  1  0.664400  0.207900  0.040100  1
  C  C232  1  0.335600  0.792100  0.959900  1
  C  C233  1  0.559900  0.877900  0.105500  1
  C  C234  1  0.440100  0.122100  0.894500  1
  C  C235  1  0.828500  0.648000  0.169100  1
  C  C236  1  0.171500  0.352000  0.830900  1
  C  C237  1  0.562600  0.866300  0.162600  1
  C  C238  1  0.437400  0.133700  0.837400  1
  C  C239  1  0.959200  0.057000  0.135700  1
  C  C240  1  0.040800  0.943000  0.864300  1
  C  C241  1  0.715900  0.228500  0.091400  1
  C  C242  1  0.284100  0.771500  0.908600  1
  C  C243  1  0.797900  0.684500  0.211400  1
  C  C244  1  0.202100  0.315500  0.788600  1
  C  C245  1  0.957200  0.129500  0.119200  1
  C  C246  1  0.042800  0.870500  0.880800  1
  C  C247  1  0.796000  0.239400  0.089000  1
  C  C248  1  0.204000  0.760600  0.911000  1
  C  C249  1  0.560400  0.789100  0.174000  1
  C  C250  1  0.439600  0.210900  0.826000  1
  C  C251  1  0.716600  0.676700  0.205300  1
  C  C252  1  0.283400  0.323300  0.794700  1
  C  C253  1  0.006800  0.985300  0.214300  1
  C  C254  1  0.993200  0.014700  0.785700  1
  C  C255  1  0.921600  0.773900  0.256300  1
  C  C256  1  0.078400  0.226100  0.743700  1
  C  C257  1  0.614500  0.194200  0.156200  1
  C  C258  1  0.385500  0.805800  0.843800  1
  C  C259  1  0.536800  0.991000  0.196700  1
  C  C260  1  0.463200  0.009000  0.803300  1
  C  C261  1  0.975100  0.046200  0.197300  1
  C  C262  1  0.024900  0.953800  0.802700  1
  C  C263  1  0.688300  0.236500  0.147100  1
  C  C264  1  0.311700  0.763500  0.852900  1
  C  C265  1  0.564800  0.925100  0.208500  1
  C  C266  1  0.435200  0.074900  0.791500  1
  C  C267  1  0.849300  0.731800  0.262200  1
  C  C268  1  0.150700  0.268200  0.737800  1
  C  C269  1  0.959000  0.094400  0.239600  1
  C  C270  1  0.041000  0.905600  0.760400  1
  C  C271  1  0.733200  0.284000  0.193700  1
  C  C272  1  0.266800  0.716000  0.806300  1
  C  C273  1  0.824500  0.736500  0.314500  1
  C  C274  1  0.175500  0.263500  0.685500  1
  C  C275  1  0.591300  0.918200  0.265100  1
  C  C276  1  0.408700  0.081800  0.734900  1
  C  C277  1  0.975100  0.082900  0.296000  1
  C  C278  1  0.024900  0.917100  0.704000  1
  C  C279  1  0.871700  0.784400  0.359200  1
  C  C280  1  0.128300  0.215600  0.640800  1
  C  C281  1  0.706900  0.288500  0.245400  1
  C  C282  1  0.293100  0.711500  0.754600  1
  C  C283  1  0.589000  0.975500  0.307400  1
  C  C284  1  0.411000  0.024500  0.692600  1
  C  C285  1  0.943900  0.824400  0.349900  1
  C  C286  1  0.056100  0.175600  0.650100  1
  C  C287  1  0.006600  0.020000  0.309200  1
  C  C288  1  0.993400  0.980000  0.690800  1
  C  C289  1  0.633300  0.245400  0.250100  1
  C  C290  1  0.366700  0.754600  0.749900  1
  C  C291  1  0.560200  0.037700  0.292000  1
  C  C292  1  0.439800  0.962300  0.708000  1
  C  C293  1  0.977400  0.212800  0.336400  1
  C  C294  1  0.022600  0.787200  0.663600  1
  C  C295  1  0.766900  0.784600  0.420800  1
  C  C296  1  0.233100  0.215400  0.579200  1
  C  C297  1  0.609200  0.898000  0.390600  1
  C  C298  1  0.390800  0.102000  0.609400  1
  C  C299  1  0.835700  0.343300  0.305100  1
  C  C300  1  0.164300  0.656700  0.694900  1
  C  C301  1  0.040800  0.398700  0.038000  1
  C  C302  1  0.959200  0.601300  0.962000  1
  C  C303  1  0.960500  0.135900  0.342100  1
  C  C304  1  0.039500  0.864100  0.657900  1
  C  C305  1  0.846600  0.790500  0.416800  1
  C  C306  1  0.153400  0.209500  0.583200  1
  C  C307  1  0.756000  0.337600  0.295600  1
  C  C308  1  0.244000  0.662400  0.704400  1
  C  C309  1  0.618700  0.968200  0.368000  1
  C  C310  1  0.381300  0.031800  0.632000  1
  C  C311  1  0.092500  0.345700  0.025200  1
  C  C312  1  0.907500  0.654300  0.974800  1
  C  C313  1  0.659600  0.032500  0.405000  1
  C  C314  1  0.340400  0.967500  0.595000  1
  C  C315  1  0.927900  0.111900  0.389300  1
  C  C316  1  0.072100  0.888100  0.610700  1
  C  C317  1  0.721400  0.376600  0.334400  1
  C  C318  1  0.278600  0.623400  0.665600  1
  C  C319  1  0.900200  0.803800  0.468400  1
  C  C320  1  0.099800  0.196200  0.531600  1
  C  C321  1  0.770900  0.418400  0.380700  1
  C  C322  1  0.229100  0.581600  0.619300  1
  C  C323  1  0.690600  0.023400  0.458400  1
  C  C324  1  0.309400  0.976600  0.541600  1
  C  C325  1  0.914800  0.164500  0.429700  1
  C  C326  1  0.085200  0.835500  0.570300  1
  C  C327  1  0.873000  0.809900  0.519000  1
  C  C328  1  0.127000  0.190100  0.481000  1
  C  C329  1  0.675400  0.950500  0.477600  1
  C  C330  1  0.324600  0.049500  0.522400  1
  C  C331  1  0.850800  0.421800  0.387600  1
  C  C332  1  0.149200  0.578200  0.612400  1
  C  C333  1  0.934700  0.241900  0.420700  1
  C  C334  1  0.065300  0.758100  0.579300  1
  C  C335  1  0.791500  0.802200  0.520400  1
  C  C336  1  0.208500  0.197800  0.479600  1
  C  C337  1  0.246500  0.900700  0.297800  1
  C  C338  1  0.753500  0.099300  0.702200  1
  C  C339  1  0.211800  0.817200  0.281400  1
  C  C340  1  0.788200  0.182800  0.718600  1
  C  C341  1  0.159700  0.448800  0.357800  1
  C  C342  1  0.840300  0.551200  0.642200  1
  C  C343  1  0.120100  0.505200  0.347500  1
  C  C344  1  0.879900  0.494800  0.652500  1
  C  C345  1  0.390300  0.533500  0.157300  1
  C  C346  1  0.609700  0.466500  0.842700  1
  C  C347  1  0.441400  0.500800  0.189400  1
  C  C348  1  0.558600  0.499200  0.810600  1
  C  C349  1  0.311800  0.113700  0.201600  1
  C  C350  1  0.688200  0.886300  0.798400  1
  C  C351  1  0.342400  0.194900  0.219700  1
  C  C352  1  0.657600  0.805100  0.780300  1
  C  C353  1  0.525000  0.661500  0.516000  1
  C  C354  1  0.475000  0.338500  0.484000  1
  C  C355  1  0.469900  0.691000  0.478400  1
  C  C356  1  0.530100  0.309000  0.521600  1
  C  C357  1  0.761800  0.891200  0.090400  1
  C  C358  1  0.238200  0.108800  0.909600  1
  C  C359  1  0.777200  0.882700  0.146600  1
  C  C360  1  0.222800  0.117300  0.853400  1
  C  C361  1  0.774500  0.939400  0.191900  1
  C  C362  1  0.225500  0.060600  0.808100  1
  C  C363  1  0.789200  0.927800  0.249600  1
  C  C364  1  0.210800  0.072200  0.750400  1
  C  C365  1  0.783800  0.982900  0.289700  1
  C  C366  1  0.216200  0.017100  0.710300  1
  C  C367  1  0.766000  0.052800  0.274500  1
  C  C368  1  0.234000  0.947200  0.725500  1
  C  C369  1  0.751500  0.064900  0.218700  1
  C  C370  1  0.248500  0.935100  0.781300  1
  C  C371  1  0.755600  0.008700  0.175300  1
  C  C372  1  0.244400  0.991300  0.824700  1
  C  C373  1  0.739800  0.018200  0.116900  1
  C  C374  1  0.260200  0.981800  0.883100  1
  C  C375  1  0.743200  0.962500  0.076500  1
  C  C376  1  0.256800  0.037500  0.923500  1
  N  N377  1  0.827000  0.233500  0.039600  1
  N  N378  1  0.173000  0.766500  0.960400  1
  N  N379  1  0.943100  0.142500  0.064100  1
  N  N380  1  0.056900  0.857500  0.935900  1
  N  N381  1  0.667200  0.633500  0.161100  1
  N  N382  1  0.332800  0.366500  0.838900  1
  N  N383  1  0.556200  0.732400  0.135000  1
  N  N384  1  0.443800  0.267600  0.865000  1
  N  N385  1  0.022200  0.971700  0.269200  1
  N  N386  1  0.977800  0.028300  0.730800  1
  N  N387  1  0.968800  0.819200  0.299200  1
  N  N388  1  0.031200  0.180800  0.700800  1
  N  N389  1  0.588100  0.200300  0.205700  1
  N  N390  1  0.411900  0.799700  0.794300  1
  N  N391  1  0.533800  0.045200  0.237100  1
  N  N392  1  0.466200  0.954800  0.762900  1
  N  N393  1  0.739100  0.790800  0.471300  1
  N  N394  1  0.260900  0.209200  0.528700  1
  N  N395  1  0.966200  0.265700  0.375400  1
  N  N396  1  0.033800  0.734300  0.624600  1
  N  N397  1  0.635300  0.889200  0.444300  1
  N  N398  1  0.364700  0.110800  0.555700  1
  N  N399  1  0.882800  0.383200  0.351000  1
  N  N400  1  0.117200  0.616800  0.649000  1
  N  N401  1  0.958400  0.358300  0.020100  1
  N  N402  1  0.041600  0.641700  0.979900  1
  N  N403  1  0.065000  0.270900  0.047400  1
  N  N404  1  0.935000  0.729100  0.952600  1
  N  N405  1  0.183200  0.944000  0.275200  1
  N  N406  1  0.816800  0.056000  0.724800  1
  N  N407  1  0.133900  0.798500  0.300800  1
  N  N408  1  0.866100  0.201500  0.699200  1
  N  N409  1  0.114500  0.374900  0.372000  1
  N  N410  1  0.885500  0.625100  0.628000  1
  N  N411  1  0.035700  0.487900  0.348700  1
  N  N412  1  0.964300  0.512100  0.651300  1
  N  N413  1  0.427700  0.614500  0.154400  1
  N  N414  1  0.572300  0.385500  0.845600  1
  N  N415  1  0.528500  0.518800  0.177100  1
  N  N416  1  0.471500  0.481200  0.822900  1
  N  N417  1  0.373000  0.070200  0.225100  1
  N  N418  1  0.627000  0.929800  0.774900  1
  N  N419  1  0.422800  0.217500  0.203400  1
  N  N420  1  0.577200  0.782500  0.796600  1
  N  N421  1  0.605800  0.679200  0.499800  1
  N  N422  1  0.394200  0.320800  0.500200  1
  N  N423  1  0.504600  0.771800  0.471100  1
  N  N424  1  0.495400  0.228200  0.528900  1
  N  N425  1  0.975600  0.321900  0.201900  1
  N  N426  1  0.024400  0.678100  0.798100  1
  N  N427  1  0.573500  0.702400  0.314800  1
  N  N428  1  0.426500  0.297600  0.685200  1
  N  N429  1  0.708300  0.227200  0.417300  1
  N  N430  1  0.291700  0.772800  0.582700  1
  N  N431  1  0.383300  0.822700  0.215800  1
  N  N432  1  0.616700  0.177300  0.784200  1
  N  N433  1  0.185900  0.951300  0.138700  1
  N  N434  1  0.814100  0.048700  0.861300  1
  N  N435  1  0.028100  0.795500  0.123300  1
  N  N436  1  0.971900  0.204500  0.876700  1
  N  N437  1  0.540500  0.354600  0.090500  1
  N  N438  1  0.459500  0.645400  0.909500  1
  N  N439  1  0.154100  0.385100  0.517400  1
  N  N440  1  0.845900  0.614900  0.482600  1
  N  N441  1  0.849800  0.808500  0.707800  1
  N  N442  1  0.150200  0.191500  0.292200  1
  N  N443  1  0.473400  0.049800  0.060100  1
  N  N444  1  0.526600  0.950200  0.939900  1
  O  O445  1  0.866400  0.814700  0.034500  1
  O  O446  1  0.133600  0.185300  0.965500  1
  O  O447  1  0.719000  0.737300  0.047500  1
  O  O448  1  0.281000  0.262700  0.952500  1
  O  O449  1  0.746100  0.842600  0.971100  1
  O  O450  1  0.253900  0.157400  0.028900  1
  O  O451  1  0.376100  0.076700  0.348500  1
  O  O452  1  0.623900  0.923300  0.651500  1
  O  O453  1  0.927100  0.269700  0.208400  1
  O  O454  1  0.072900  0.730300  0.791600  1
  O  O455  1  0.015300  0.367400  0.240200  1
  O  O456  1  0.984700  0.632600  0.759800  1
  O  O457  1  0.000200  0.334900  0.159400  1
  O  O458  1  0.999800  0.665100  0.840600  1
  O  O459  1  0.858400  0.898500  0.904400  1
  O  O460  1  0.141600  0.101500  0.095600  1
  O  O461  1  0.593400  0.810800  0.922400  1
  O  O462  1  0.406600  0.189200  0.077600  1
  O  O463  1  0.146900  0.235500  0.154400  1
  O  O464  1  0.853100  0.764500  0.845600  1
  O  O465  1  0.631000  0.750600  0.306200  1
  O  O466  1  0.369000  0.249400  0.693800  1
  O  O467  1  0.557800  0.696100  0.363500  1
  O  O468  1  0.442200  0.303900  0.636500  1
  O  O469  1  0.523000  0.668300  0.278700  1
  O  O470  1  0.477000  0.331700  0.721300  1
  O  O471  1  0.226800  0.063600  0.371500  1
  O  O472  1  0.773200  0.936400  0.628500  1
  O  O473  1  0.752300  0.416600  0.102900  1
  O  O474  1  0.247700  0.583400  0.897100  1
  O  O475  1  0.769900  0.256100  0.446500  1
  O  O476  1  0.230100  0.743900  0.553500  1
  O  O477  1  0.706200  0.201500  0.367700  1
  O  O478  1  0.293800  0.798500  0.632300  1
  O  O479  1  0.643500  0.219500  0.436700  1
  O  O480  1  0.356500  0.780500  0.563300  1
  O  O481  1  0.623000  0.368500  0.969200  1
  O  O482  1  0.377000  0.631500  0.030800  1
  O  O483  1  0.878300  0.466300  0.071200  1
  O  O484  1  0.121700  0.533700  0.928800  1
  O  O485  1  0.361200  0.809400  0.160400  1
  O  O486  1  0.638800  0.190600  0.839600  1
  O  O487  1  0.397200  0.882900  0.241300  1
  O  O488  1  0.602800  0.117100  0.758700  1
  O  O489  1  0.389000  0.757400  0.236400  1
  O  O490  1  0.611000  0.242600  0.763600  1
  O  O491  1  0.165600  0.821600  0.429900  1
  O  O492  1  0.834400  0.178400  0.570100  1
  O  O493  1  0.763500  0.483400  0.984800  1
  O  O494  1  0.236500  0.516600  0.015200  1
  O  O495  1  0.505100  0.205800  0.353400  1
  O  O496  1  0.494900  0.794200  0.646600  1
  O  O497  1  0.213800  0.957500  0.082700  1
  O  O498  1  0.786200  0.042500  0.917300  1
  O  O499  1  0.134900  0.969400  0.142000  1
  O  O500  1  0.865100  0.030600  0.858000  1
  O  O501  1  0.227500  0.909600  0.165600  1
  O  O502  1  0.772500  0.090400  0.834400  1
  O  O503  1  0.284800  0.685900  0.375500  1
  O  O504  1  0.715200  0.314100  0.624500  1
  O  O505  1  0.323800  0.823600  0.456400  1
  O  O506  1  0.676200  0.176400  0.543600  1
  O  O507  1  0.332700  0.515800  0.484700  1
  O  O508  1  0.667300  0.484200  0.515300  1
  O  O509  1  0.962700  0.810600  0.130700  1
  O  O510  1  0.037300  0.189400  0.869300  1
  O  O511  1  0.051300  0.794300  0.080700  1
  O  O512  1  0.948700  0.205700  0.919300  1
  O  O513  1  0.067400  0.783600  0.170800  1
  O  O514  1  0.932600  0.216400  0.829200  1
  O  O515  1  0.687000  0.594800  0.358500  1
  O  O516  1  0.313000  0.405200  0.641500  1
  O  O517  1  0.373400  0.607600  0.312200  1
  O  O518  1  0.626600  0.392400  0.687800  1
  O  O519  1  0.037000  0.702400  0.434600  1
  O  O520  1  0.963000  0.297600  0.565400  1
  O  O521  1  0.529000  0.302800  0.053400  1
  O  O522  1  0.471000  0.697200  0.946600  1
  O  O523  1  0.594600  0.415500  0.093400  1
  O  O524  1  0.405400  0.584500  0.906600  1
  O  O525  1  0.506100  0.346500  0.134600  1
  O  O526  1  0.493900  0.653500  0.865400  1
  O  O527  1  0.406500  0.507300  0.390800  1
  O  O528  1  0.593500  0.492700  0.609200  1
  O  O529  1  0.207800  0.715700  0.146600  1
  O  O530  1  0.792200  0.284300  0.853400  1
  O  O531  1  0.159600  0.457500  0.184900  1
  O  O532  1  0.840400  0.542500  0.815100  1
  O  O533  1  0.085400  0.361400  0.492800  1
  O  O534  1  0.914600  0.638600  0.507200  1
  O  O535  1  0.164900  0.396800  0.573400  1
  O  O536  1  0.835100  0.603200  0.426600  1
  O  O537  1  0.210800  0.384100  0.490600  1
  O  O538  1  0.789200  0.615900  0.509400  1
  O  O539  1  0.008300  0.585000  0.104700  1
  O  O540  1  0.991700  0.415000  0.895300  1
  O  O541  1  0.840900  0.865100  0.736200  1
  O  O542  1  0.159100  0.134900  0.263800  1
  O  O543  1  0.841900  0.811800  0.652100  1
  O  O544  1  0.158100  0.188200  0.347900  1
  O  O545  1  0.865800  0.751900  0.727800  1
  O  O546  1  0.134200  0.248100  0.272200  1
  O  O547  1  0.432000  0.055400  0.087500  1
  O  O548  1  0.568000  0.944600  0.912500  1
  O  O549  1  0.434100  0.967600  0.029200  1
  O  O550  1  0.565900  0.032400  0.970800  1
  O  O551  1  0.507400  0.069200  0.020500  1
  O  O552  1  0.492600  0.930800  0.979500  1
  O  O553  1  0.720600  0.813200  0.361300  1
  O  O554  1  0.279400  0.186800  0.638700  1
