# generated using pymatgen
data_CuH7C10O3
_symmetry_space_group_name_H-M   'P 1'
_cell_length_a   11.05720000
_cell_length_b   11.77190000
_cell_length_c   12.20960000
_cell_angle_alpha   69.51800000
_cell_angle_beta   67.48300000
_cell_angle_gamma   65.83200000
_symmetry_Int_Tables_number   1
_chemical_formula_structural   CuH7C10O3
_chemical_formula_sum   'Cu6 H42 C60 O18'
_cell_volume   1303.77809983
_cell_formula_units_Z   6
loop_
 _symmetry_equiv_pos_site_id
 _symmetry_equiv_pos_as_xyz
  1  'x, y, z'
loop_
 _atom_site_type_symbol
 _atom_site_label
 _atom_site_symmetry_multiplicity
 _atom_site_fract_x
 _atom_site_fract_y
 _atom_site_fract_z
 _atom_site_occupancy
  Cu  Cu1  1  0.143200  0.990990  0.113330  1.0
  Cu  Cu2  1  0.856800  0.009010  0.886670  1.0
  Cu  Cu3  1  0.982590  0.876660  0.084800  1.0
  Cu  Cu4  1  0.017410  0.123340  0.915200  1.0
  Cu  Cu5  1  0.833360  0.780730  0.029010  1.0
  Cu  Cu6  1  0.166640  0.219270  0.970990  1.0
  H  H7  1  0.843000  0.176700  0.384300  1.0
  H  H8  1  0.157000  0.823300  0.615700  1.0
  H  H9  1  0.656100  0.283600  0.515600  1.0
  H  H10  1  0.343900  0.716400  0.484400  1.0
  H  H11  1  0.603500  0.052400  0.310300  1.0
  H  H12  1  0.396500  0.947600  0.689700  1.0
  H  H13  1  0.413000  0.156100  0.447300  1.0
  H  H14  1  0.587000  0.843900  0.552700  1.0
  H  H15  1  0.215300  0.324000  0.677900  1.0
  H  H16  1  0.784700  0.676000  0.322100  1.0
  H  H17  1  0.272100  0.205400  0.620800  1.0
  H  H18  1  0.727900  0.794600  0.379200  1.0
  H  H19  1  0.306000  0.511500  0.459100  1.0
  H  H20  1  0.694000  0.488500  0.540900  1.0
  H  H21  1  0.112200  0.269900  0.504600  1.0
  H  H22  1  0.887800  0.730100  0.495400  1.0
  H  H23  1  0.099800  0.574800  0.226400  1.0
  H  H24  1  0.900200  0.425200  0.773600  1.0
  H  H25  1  0.918300  0.396300  0.358100  1.0
  H  H26  1  0.081700  0.603700  0.641900  1.0
  H  H27  1  0.021500  0.415800  0.227400  1.0
  H  H28  1  0.978500  0.584200  0.772600  1.0
  H  H29  1  0.240400  0.345200  0.133800  1.0
  H  H30  1  0.759600  0.654800  0.866200  1.0
  H  H31  1  0.204200  0.005700  0.350400  1.0
  H  H32  1  0.795800  0.994300  0.649600  1.0
  H  H33  1  0.464100  0.244500  0.039500  1.0
  H  H34  1  0.535900  0.755500  0.960500  1.0
  H  H35  1  0.427000  0.905600  0.251800  1.0
  H  H36  1  0.573000  0.094400  0.748200  1.0
  H  H37  1  0.261600  0.687900  0.170100  1.0
  H  H38  1  0.738400  0.312100  0.829900  1.0
  H  H39  1  0.189500  0.751400  0.282000  1.0
  H  H40  1  0.810500  0.248600  0.718000  1.0
  H  H41  1  0.630400  0.649300  0.222000  1.0
  H  H42  1  0.369600  0.350700  0.778000  1.0
  H  H43  1  0.421100  0.480000  0.161700  1.0
  H  H44  1  0.578900  0.520000  0.838300  1.0
  H  H45  1  0.835100  0.511300  0.135400  1.0
  H  H46  1  0.164900  0.488700  0.864600  1.0
  H  H47  1  0.627000  0.340200  0.076000  1.0
  H  H48  1  0.373000  0.659800  0.924000  1.0
  C  C49  1  0.866000  0.035200  0.245800  1.0
  C  C50  1  0.134000  0.964800  0.754200  1.0
  C  C51  1  0.744000  0.102500  0.333100  1.0
  C  C52  1  0.256000  0.897500  0.666900  1.0
  C  C53  1  0.756400  0.172500  0.396600  1.0
  C  C54  1  0.243600  0.827500  0.603400  1.0
  C  C55  1  0.645500  0.234900  0.476200  1.0
  C  C56  1  0.354500  0.765100  0.523800  1.0
  C  C57  1  0.614300  0.097800  0.352900  1.0
  C  C58  1  0.385700  0.902200  0.647100  1.0
  C  C59  1  0.499900  0.159600  0.435100  1.0
  C  C60  1  0.500100  0.840400  0.564900  1.0
  C  C61  1  0.516500  0.226300  0.498900  1.0
  C  C62  1  0.483500  0.773700  0.501100  1.0
  C  C63  1  0.274300  0.291100  0.605900  1.0
  C  C64  1  0.725700  0.708900  0.394100  1.0
  C  C65  1  0.219000  0.375000  0.498700  1.0
  C  C66  1  0.781000  0.625000  0.501300  1.0
  C  C67  1  0.253500  0.486600  0.433400  1.0
  C  C68  1  0.746500  0.513400  0.566600  1.0
  C  C69  1  0.137900  0.342700  0.460400  1.0
  C  C70  1  0.862100  0.657300  0.539600  1.0
  C  C71  1  0.094000  0.414900  0.358800  1.0
  C  C72  1  0.906000  0.585100  0.641200  1.0
  C  C73  1  0.210000  0.560100  0.331000  1.0
  C  C74  1  0.790000  0.439900  0.669000  1.0
  C  C75  1  0.130000  0.524500  0.294800  1.0
  C  C76  1  0.870000  0.475500  0.705200  1.0
  C  C77  1  0.015000  0.372400  0.312200  1.0
  C  C78  1  0.985000  0.627600  0.687800  1.0
  C  C79  1  0.199700  0.186800  0.255900  1.0
  C  C80  1  0.800300  0.813200  0.744100  1.0
  C  C81  1  0.278500  0.257200  0.159200  1.0
  C  C82  1  0.721500  0.742800  0.840800  1.0
  C  C83  1  0.256800  0.053800  0.288400  1.0
  C  C84  1  0.743200  0.946200  0.711600  1.0
  C  C85  1  0.412100  0.196200  0.102000  1.0
  C  C86  1  0.587900  0.803800  0.898000  1.0
  C  C87  1  0.389800  0.994100  0.229400  1.0
  C  C88  1  0.610200  0.005900  0.770600  1.0
  C  C89  1  0.471800  0.065800  0.134000  1.0
  C  C90  1  0.528200  0.934200  0.866000  1.0
  C  C91  1  0.615000  0.002000  0.068900  1.0
  C  C92  1  0.385000  0.998000  0.931100  1.0
  C  C93  1  0.257400  0.675800  0.254100  1.0
  C  C94  1  0.742600  0.324200  0.745900  1.0
  C  C95  1  0.504500  0.578300  0.203600  1.0
  C  C96  1  0.495500  0.421700  0.796400  1.0
  C  C97  1  0.629400  0.586600  0.193000  1.0
  C  C98  1  0.370600  0.413400  0.807000  1.0
  C  C99  1  0.504200  0.485900  0.157400  1.0
  C  C100  1  0.495800  0.514100  0.842600  1.0
  C  C101  1  0.751900  0.504800  0.140700  1.0
  C  C102  1  0.248100  0.495200  0.859300  1.0
  C  C103  1  0.627500  0.403000  0.105200  1.0
  C  C104  1  0.372500  0.597000  0.894800  1.0
  C  C105  1  0.751500  0.412200  0.095700  1.0
  C  C106  1  0.248500  0.587800  0.904300  1.0
  C  C107  1  0.884500  0.323000  0.036800  1.0
  C  C108  1  0.115500  0.677000  0.963200  1.0
  O  O109  1  0.982100  0.043800  0.230400  1.0
  O  O110  1  0.017900  0.956200  0.769600  1.0
  O  O111  1  0.847100  0.970000  0.194600  1.0
  O  O112  1  0.152900  0.030000  0.805400  1.0
  O  O113  1  0.681900  0.071700  0.985800  1.0
  O  O114  1  0.318100  0.928300  0.014200  1.0
  O  O115  1  0.660600  0.880300  0.100900  1.0
  O  O116  1  0.339400  0.119700  0.899100  1.0
  O  O117  1  0.996300  0.332900  0.029500  1.0
  O  O118  1  0.003700  0.667100  0.970500  1.0
  O  O119  1  0.874600  0.240700  0.998400  1.0
  O  O120  1  0.125400  0.759300  0.001600  1.0
  O  O121  1  0.412800  0.285600  0.585800  1.0
  O  O122  1  0.587200  0.714400  0.414200  1.0
  O  O123  1  0.068100  0.235900  0.323100  1.0
  O  O124  1  0.931900  0.764100  0.676900  1.0
  O  O125  1  0.390200  0.663600  0.259100  1.0
  O  O126  1  0.609800  0.336400  0.740900  1.0
