# generated using pymatgen
data_Co2Ru8C166S7N8(O19F9)2
_symmetry_space_group_name_H-M   'P 1'
_cell_length_a   18.62860000
_cell_length_b   22.38570000
_cell_length_c   27.53130000
_cell_angle_alpha   70.43700000
_cell_angle_beta   76.34000000
_cell_angle_gamma   68.85500000
_symmetry_Int_Tables_number   1
_chemical_formula_structural   Co2Ru8C166S7N8(O19F9)2
_chemical_formula_sum   'Co4 Ru16 C332 S14 N16 O76 F36'
_cell_volume   10002.48793973
_cell_formula_units_Z   2
loop_
 _symmetry_equiv_pos_site_id
 _symmetry_equiv_pos_as_xyz
  1  'x, y, z'
loop_
 _atom_site_type_symbol
 _atom_site_label
 _atom_site_symmetry_multiplicity
 _atom_site_fract_x
 _atom_site_fract_y
 _atom_site_fract_z
 _atom_site_occupancy
  Co  Co1  1  0.190170  0.522400  0.397400  1
  Co  Co2  1  0.809830  0.477600  0.602600  1
  Co  Co3  1  0.461280  0.689330  0.262930  1
  Co  Co4  1  0.538720  0.310670  0.737070  1
  Ru  Ru5  1  0.851640  0.411040  0.205170  1
  Ru  Ru6  1  0.148360  0.588960  0.794830  1
  Ru  Ru7  1  0.909620  0.850290  0.235030  1
  Ru  Ru8  1  0.090380  0.149710  0.764970  1
  Ru  Ru9  1  0.086120  0.768540  0.557130  1
  Ru  Ru10  1  0.913880  0.231460  0.442870  1
  Ru  Ru11  1  0.373400  0.976620  0.395660  1
  Ru  Ru12  1  0.626600  0.023380  0.604340  1
  Ru  Ru13  1  0.574540  0.715410  0.961150  1
  Ru  Ru14  1  0.425460  0.284590  0.038850  1
  Ru  Ru15  1  0.294070  0.024870  0.052040  1
  Ru  Ru16  1  0.705930  0.975130  0.947960  1
  Ru  Ru17  1  0.164210  0.576890  0.098580  1
  Ru  Ru18  1  0.835790  0.423110  0.901420  1
  Ru  Ru19  1  0.534430  0.229010  0.351590  1
  Ru  Ru20  1  0.465570  0.770990  0.648410  1
  C  C21  1  0.846000  0.646200  0.704900  1
  C  C22  1  0.154000  0.353800  0.295100  1
  C  C23  1  0.472000  0.451000  0.171900  1
  C  C24  1  0.528000  0.549000  0.828100  1
  C  C25  1  0.427000  0.999000  0.814000  1
  C  C26  1  0.573000  0.001000  0.186000  1
  C  C27  1  0.845000  0.584000  0.359900  1
  C  C28  1  0.155000  0.416000  0.640100  1
  C  C29  1  0.232100  0.556200  0.322100  1
  C  C30  1  0.767900  0.443800  0.677900  1
  C  C31  1  0.221300  0.605700  0.388100  1
  C  C32  1  0.778700  0.394300  0.611900  1
  C  C33  1  0.295000  0.518000  0.351200  1
  C  C34  1  0.705000  0.482000  0.648800  1
  C  C35  1  0.295500  0.551900  0.389000  1
  C  C36  1  0.704500  0.448100  0.611000  1
  C  C37  1  0.184500  0.610600  0.344100  1
  C  C38  1  0.815500  0.389400  0.655900  1
  C  C39  1  0.758100  0.336600  0.283200  1
  C  C40  1  0.241900  0.663400  0.716800  1
  C  C41  1  0.660800  0.286300  0.323400  1
  C  C42  1  0.339200  0.713700  0.676600  1
  C  C43  1  0.736100  0.345700  0.230100  1
  C  C44  1  0.263900  0.654300  0.769900  1
  C  C45  1  0.640300  0.290400  0.274100  1
  C  C46  1  0.359700  0.709600  0.725900  1
  C  C47  1  0.719900  0.308500  0.328000  1
  C  C48  1  0.280100  0.691500  0.672000  1
  C  C49  1  0.676700  0.319700  0.228300  1
  C  C50  1  0.323300  0.680300  0.771700  1
  C  C51  1  0.029500  0.665800  0.140200  1
  C  C52  1  0.970500  0.334200  0.859800  1
  C  C53  1  0.950200  0.749600  0.182000  1
  C  C54  1  0.049800  0.250400  0.818000  1
  C  C55  1  0.086400  0.707100  0.115200  1
  C  C56  1  0.913600  0.292900  0.884800  1
  C  C57  1  0.961800  0.689500  0.173500  1
  C  C58  1  0.038200  0.310500  0.826500  1
  C  C59  1  0.072300  0.769600  0.120600  1
  C  C60  1  0.927700  0.230400  0.879400  1
  C  C61  1  0.007200  0.791200  0.154200  1
  C  C62  1  0.992800  0.208800  0.845800  1
  C  C63  1  0.216600  0.820500  0.522600  1
  C  C64  1  0.783400  0.179500  0.477400  1
  C  C65  1  0.300200  0.884800  0.475600  1
  C  C66  1  0.699800  0.115200  0.524400  1
  C  C67  1  0.242500  0.927500  0.437800  1
  C  C68  1  0.757500  0.072500  0.562200  1
  C  C69  1  0.153600  0.868400  0.486300  1
  C  C70  1  0.846400  0.131600  0.513700  1
  C  C71  1  0.168200  0.919900  0.445300  1
  C  C72  1  0.831800  0.080100  0.554700  1
  C  C73  1  0.289200  0.831100  0.515800  1
  C  C74  1  0.710800  0.168900  0.484200  1
  C  C75  1  0.354100  0.912500  0.007600  1
  C  C76  1  0.645900  0.087500  0.992400  1
  C  C77  1  0.494700  0.909900  0.978200  1
  C  C78  1  0.505300  0.090100  0.021800  1
  C  C79  1  0.504200  0.850400  0.969600  1
  C  C80  1  0.495800  0.149600  0.030400  1
  C  C81  1  0.423600  0.942100  0.998100  1
  C  C82  1  0.576400  0.057900  0.001900  1
  C  C83  1  0.364200  0.857000  0.994800  1
  C  C84  1  0.635800  0.143000  0.005200  1
  C  C85  1  0.438700  0.823900  0.977100  1
  C  C86  1  0.561300  0.176100  0.022900  1
  C  C87  1  0.403700  0.355700  0.316600  1
  C  C88  1  0.596300  0.644300  0.683400  1
  C  C89  1  0.417300  0.428400  0.372500  1
  C  C90  1  0.582700  0.571600  0.627500  1
  C  C91  1  0.353100  0.453800  0.347400  1
  C  C92  1  0.646900  0.546200  0.652600  1
  C  C93  1  0.469800  0.363600  0.371900  1
  C  C94  1  0.530200  0.636400  0.628100  1
  C  C95  1  0.346700  0.417700  0.316800  1
  C  C96  1  0.653300  0.582300  0.683200  1
  C  C97  1  0.217400  0.552900  0.271500  1
  C  C98  1  0.782600  0.447100  0.728500  1
  C  C99  1  0.251300  0.574700  0.180200  1
  C  C100  1  0.748700  0.425300  0.819800  1
  C  C101  1  0.152500  0.541700  0.267200  1
  C  C102  1  0.847500  0.458300  0.732800  1
  C  C103  1  0.268800  0.568600  0.228300  1
  C  C104  1  0.731200  0.431400  0.771700  1
  C  C105  1  0.139100  0.546900  0.218700  1
  C  C106  1  0.860900  0.453100  0.781300  1
  C  C107  1  0.074000  0.774600  0.265400  1
  C  C108  1  0.926000  0.225400  0.734600  1
  C  C109  1  0.118300  0.665900  0.320900  1
  C  C110  1  0.881700  0.334100  0.679100  1
  C  C111  1  0.048000  0.658500  0.324300  1
  C  C112  1  0.952000  0.341500  0.675700  1
  C  C113  1  0.990600  0.712500  0.298700  1
  C  C114  1  0.009400  0.287500  0.701300  1
  C  C115  1  0.130700  0.722600  0.291500  1
  C  C116  1  0.869300  0.277400  0.708500  1
  C  C117  1  0.192500  0.648300  0.422400  1
  C  C118  1  0.807500  0.351700  0.577600  1
  C  C119  1  0.094100  0.735200  0.461200  1
  C  C120  1  0.905900  0.264800  0.538800  1
  C  C121  1  0.120500  0.694900  0.422600  1
  C  C122  1  0.879500  0.305100  0.577400  1
  C  C123  1  0.235200  0.641300  0.459600  1
  C  C124  1  0.764800  0.358700  0.540400  1
  C  C125  1  0.205800  0.678200  0.495700  1
  C  C126  1  0.794200  0.321800  0.504300  1
  C  C127  1  0.689300  0.515600  0.194900  1
  C  C128  1  0.310700  0.484400  0.805100  1
  C  C129  1  0.697100  0.577500  0.262600  1
  C  C130  1  0.302900  0.422500  0.737400  1
  C  C131  1  0.753000  0.518800  0.255500  1
  C  C132  1  0.247000  0.481200  0.744500  1
  C  C133  1  0.635900  0.606300  0.231300  1
  C  C134  1  0.364100  0.393700  0.768700  1
  C  C135  1  0.632900  0.570200  0.200400  1
  C  C136  1  0.367100  0.429800  0.799600  1
  C  C137  1  0.539300  0.716500  0.142400  1
  C  C138  1  0.460700  0.283500  0.857600  1
  C  C139  1  0.604000  0.728500  0.108700  1
  C  C140  1  0.396000  0.271500  0.891300  1
  C  C141  1  0.485000  0.701500  0.124100  1
  C  C142  1  0.515000  0.298500  0.875900  1
  C  C143  1  0.613300  0.726500  0.057700  1
  C  C144  1  0.386700  0.273500  0.942300  1
  C  C145  1  0.496100  0.701400  0.072100  1
  C  C146  1  0.503900  0.298600  0.927900  1
  C  C147  1  0.434600  0.834700  0.181400  1
  C  C148  1  0.565400  0.165300  0.818600  1
  C  C149  1  0.461100  0.889900  0.159000  1
  C  C150  1  0.538900  0.110100  0.841000  1
  C  C151  1  0.325100  0.891900  0.134800  1
  C  C152  1  0.674900  0.108100  0.865200  1
  C  C153  1  0.415700  0.945800  0.125400  1
  C  C154  1  0.584300  0.054200  0.874600  1
  C  C155  1  0.363700  0.836200  0.170000  1
  C  C156  1  0.636300  0.163800  0.830000  1
  C  C157  1  0.464900  0.807200  0.299800  1
  C  C158  1  0.535100  0.192800  0.700200  1
  C  C159  1  0.363100  0.901100  0.324500  1
  C  C160  1  0.636900  0.098900  0.675500  1
  C  C161  1  0.392000  0.854200  0.293300  1
  C  C162  1  0.608000  0.145800  0.706700  1
  C  C163  1  0.476100  0.852000  0.365700  1
  C  C164  1  0.523900  0.148000  0.634300  1
  C  C165  1  0.504700  0.807100  0.337400  1
  C  C166  1  0.495300  0.192900  0.662600  1
  C  C167  1  0.564500  0.704400  0.276800  1
  C  C168  1  0.435500  0.295600  0.723200  1
  C  C169  1  0.578800  0.671800  0.236800  1
  C  C170  1  0.421200  0.328200  0.763200  1
  C  C171  1  0.531100  0.716700  0.196700  1
  C  C172  1  0.468900  0.283300  0.803300  1
  C  C173  1  0.502600  0.761500  0.267600  1
  C  C174  1  0.497400  0.238500  0.732400  1
  C  C175  1  0.484900  0.772300  0.216500  1
  C  C176  1  0.515100  0.227700  0.783500  1
  C  C177  1  0.015800  0.810200  0.622700  1
  C  C178  1  0.984200  0.189800  0.377300  1
  C  C179  1  0.067500  0.745900  0.642100  1
  C  C180  1  0.932500  0.254100  0.357900  1
  C  C181  1  0.968300  0.818300  0.584000  1
  C  C182  1  0.031700  0.181700  0.416000  1
  C  C183  1  0.066900  0.689800  0.626600  1
  C  C184  1  0.933100  0.310200  0.373400  1
  C  C185  1  0.015400  0.700400  0.590800  1
  C  C186  1  0.984600  0.299600  0.409200  1
  C  C187  1  0.969400  0.766100  0.568900  1
  C  C188  1  0.030600  0.233900  0.431100  1
  C  C189  1  0.015400  0.870900  0.636200  1
  C  C190  1  0.984600  0.129100  0.363800  1
  C  C191  1  0.019500  0.640400  0.573700  1
  C  C192  1  0.980500  0.359600  0.426300  1
  C  C193  1  0.481500  0.002500  0.358500  1
  C  C194  1  0.518500  0.997500  0.641500  1
  C  C195  1  0.422400  0.040400  0.328700  1
  C  C196  1  0.577600  0.959600  0.671300  1
  C  C197  1  0.396600  0.038000  0.432700  1
  C  C198  1  0.603400  0.962000  0.567300  1
  C  C199  1  0.336700  0.078500  0.402900  1
  C  C200  1  0.663300  0.921500  0.597100  1
  C  C201  1  0.467300  0.997200  0.413200  1
  C  C202  1  0.532700  0.002800  0.586800  1
  C  C203  1  0.284800  0.125200  0.313900  1
  C  C204  1  0.715200  0.874800  0.686100  1
  C  C205  1  0.351100  0.079300  0.350200  1
  C  C206  1  0.648900  0.920700  0.649800  1
  C  C207  1  0.285000  0.126800  0.045300  1
  C  C208  1  0.715000  0.873200  0.954700  1
  C  C209  1  0.255300  0.100900  0.095700  1
  C  C210  1  0.744700  0.899100  0.904300  1
  C  C211  1  0.255700  0.127700  0.000100  1
  C  C212  1  0.744300  0.872300  0.999900  1
  C  C213  1  0.192900  0.070700  0.103100  1
  C  C214  1  0.807100  0.929300  0.896900  1
  C  C215  1  0.787600  0.906700  0.237600  1
  C  C216  1  0.212400  0.093300  0.762400  1
  C  C217  1  0.828100  0.947100  0.204700  1
  C  C218  1  0.171900  0.052900  0.795300  1
  C  C219  1  0.804300  0.874100  0.293500  1
  C  C220  1  0.195700  0.125900  0.706500  1
  C  C221  1  0.889800  0.955600  0.218200  1
  C  C222  1  0.110200  0.044400  0.781800  1
  C  C223  1  0.906400  0.922800  0.272700  1
  C  C224  1  0.093600  0.077200  0.727300  1
  C  C225  1  0.240200  0.577200  0.026300  1
  C  C226  1  0.759800  0.422800  0.973700  1
  C  C227  1  0.280100  0.527300  0.063300  1
  C  C228  1  0.719900  0.472700  0.936700  1
  C  C229  1  0.167700  0.583900  0.018100  1
  C  C230  1  0.832300  0.416100  0.981900  1
  C  C231  1  0.243300  0.477700  0.100600  1
  C  C232  1  0.756700  0.522300  0.899400  1
  C  C233  1  0.133000  0.532700  0.050800  1
  C  C234  1  0.867000  0.467300  0.949200  1
  C  C235  1  0.172600  0.478700  0.092200  1
  C  C236  1  0.827400  0.521300  0.907800  1
  C  C237  1  0.272400  0.632400  0.988800  1
  C  C238  1  0.727600  0.367600  0.011200  1
  C  C239  1  0.131700  0.429800  0.128800  1
  C  C240  1  0.868300  0.570200  0.871200  1
  C  C241  1  0.687900  0.668000  0.937200  1
  C  C242  1  0.312100  0.332000  0.062800  1
  C  C243  1  0.660800  0.619100  0.976700  1
  C  C244  1  0.339200  0.380900  0.023300  1
  C  C245  1  0.658900  0.702600  0.892600  1
  C  C246  1  0.341100  0.297400  0.107400  1
  C  C247  1  0.558500  0.647400  0.927100  1
  C  C248  1  0.441500  0.352600  0.072900  1
  C  C249  1  0.694100  0.579700  0.027200  1
  C  C250  1  0.305900  0.420300  0.972800  1
  C  C251  1  0.594900  0.612700  0.970100  1
  C  C252  1  0.405100  0.387300  0.029900  1
  C  C253  1  0.944100  0.449100  0.208200  1
  C  C254  1  0.055900  0.550900  0.791800  1
  C  C255  1  0.939700  0.378900  0.144500  1
  C  C256  1  0.060300  0.621100  0.855500  1
  C  C257  1  0.911500  0.487200  0.161500  1
  C  C258  1  0.088500  0.512800  0.838500  1
  C  C259  1  0.909600  0.451800  0.126800  1
  C  C260  1  0.090400  0.548200  0.873200  1
  C  C261  1  0.971300  0.380800  0.221100  1
  C  C262  1  0.028700  0.619200  0.778900  1
  C  C263  1  0.875100  0.561800  0.148200  1
  C  C264  1  0.124900  0.438200  0.851800  1
  C  C265  1  0.001300  0.266800  0.209700  1
  C  C266  1  0.998700  0.733200  0.790300  1
  C  C267  1  0.968700  0.344600  0.190700  1
  C  C268  1  0.031300  0.655400  0.809300  1
  C  C269  1  0.452800  0.183100  0.347600  1
  C  C270  1  0.547200  0.816900  0.652400  1
  C  C271  1  0.526400  0.149100  0.326000  1
  C  C272  1  0.473600  0.850900  0.674000  1
  C  C273  1  0.571500  0.134500  0.409700  1
  C  C274  1  0.428500  0.865500  0.590300  1
  C  C275  1  0.435300  0.194800  0.395100  1
  C  C276  1  0.564700  0.805200  0.604900  1
  C  C277  1  0.586800  0.121800  0.360700  1
  C  C278  1  0.413200  0.878200  0.639300  1
  C  C279  1  0.498000  0.170800  0.429100  1
  C  C280  1  0.502000  0.829200  0.570900  1
  C  C281  1  0.084100  0.515400  0.439000  1
  C  C282  1  0.915900  0.484600  0.561000  1
  C  C283  1  0.116600  0.468700  0.411600  1
  C  C284  1  0.883400  0.531300  0.588400  1
  C  C285  1  0.359600  0.677100  0.257400  1
  C  C286  1  0.640400  0.322900  0.742600  1
  C  C287  1  0.346300  0.702600  0.299900  1
  C  C288  1  0.653700  0.297400  0.700100  1
  C  C289  1  0.422100  0.612100  0.267900  1
  C  C290  1  0.577900  0.387900  0.732100  1
  C  C291  1  0.867800  0.883200  0.306700  1
  C  C292  1  0.132200  0.116800  0.693300  1
  C  C293  1  0.943000  0.997100  0.178700  1
  C  C294  1  0.057000  0.002900  0.821300  1
  C  C295  1  0.768400  0.821800  0.330300  1
  C  C296  1  0.231600  0.178200  0.669700  1
  C  C297  1  0.743200  0.778600  0.307600  1
  C  C298  1  0.256800  0.221400  0.692400  1
  C  C299  1  0.687400  0.859900  0.362200  1
  C  C300  1  0.312600  0.140100  0.637800  1
  C  C301  1  0.350500  0.235600  0.411900  1
  C  C302  1  0.649500  0.764400  0.588100  1
  C  C303  1  0.134000  0.508700  0.469200  1
  C  C304  1  0.866000  0.491300  0.530800  1
  C  C305  1  0.195000  0.456700  0.468800  1
  C  C306  1  0.805000  0.543300  0.531200  1
  C  C307  1  0.191700  0.430300  0.431000  1
  C  C308  1  0.808300  0.569700  0.569000  1
  C  C309  1  0.404000  0.655500  0.336100  1
  C  C310  1  0.596000  0.344500  0.663900  1
  C  C311  1  0.445900  0.602200  0.317700  1
  C  C312  1  0.554100  0.397800  0.682300  1
  C  C313  1  0.196500  0.099800  0.014800  1
  C  C314  1  0.803500  0.900200  0.985200  1
  C  C315  1  0.167200  0.068000  0.061800  1
  C  C316  1  0.832800  0.932000  0.938200  1
  C  C317  1  0.289100  0.097700  0.142900  1
  C  C318  1  0.710900  0.902300  0.857100  1
  C  C319  1  0.964000  0.236500  0.189200  1
  C  C320  1  0.036000  0.763500  0.810800  1
  C  C321  1  0.087200  0.249900  0.191800  1
  C  C322  1  0.912800  0.750100  0.808200  1
  C  C323  1  0.311800  0.614100  0.938900  1
  C  C324  1  0.688200  0.385900  0.061100  1
  C  C325  1  0.334400  0.646900  0.012500  1
  C  C326  1  0.665600  0.353100  0.987500  1
  C  C327  1  0.591600  0.692000  0.888100  1
  C  C328  1  0.408400  0.308000  0.111900  1
  C  C329  1  0.573500  0.808600  0.806400  1
  C  C330  1  0.426500  0.191400  0.193600  1
  C  C331  1  0.547000  0.739900  0.836800  1
  C  C332  1  0.453000  0.260100  0.163200  1
  C  C333  1  0.528800  0.952500  0.447600  1
  C  C334  1  0.471200  0.047500  0.552400  1
  C  C335  1  0.283700  0.090400  0.274100  1
  C  C336  1  0.716300  0.909600  0.725900  1
  C  C337  1  0.205500  0.141900  0.346500  1
  C  C338  1  0.794500  0.858100  0.653500  1
  C  C339  1  0.097000  0.851400  0.657500  1
  C  C340  1  0.903000  0.148600  0.342500  1
  C  C341  1  0.667000  0.070000  0.321000  1
  C  C342  1  0.333000  0.930000  0.679000  1
  C  C343  1  0.170000  0.087700  0.957500  1
  C  C344  1  0.830000  0.912300  0.042500  1
  C  C345  1  0.732000  0.105700  0.346400  1
  C  C346  1  0.268000  0.894300  0.653600  1
  C  C347  1  0.149000  0.029000  0.530400  1
  C  C348  1  0.851000  0.971000  0.469600  1
  C  C349  1  0.158000  0.966000  0.320200  1
  C  C350  1  0.842000  0.034000  0.679800  1
  C  C351  1  0.144200  0.303500  0.014600  1
  C  C352  1  0.855800  0.696500  0.985400  1
  S  S353  1  0.751500  0.671700  0.745900  1
  S  S354  1  0.248500  0.328300  0.254100  1
  S  S355  1  0.485500  0.529900  0.124300  1
  S  S356  1  0.514500  0.470100  0.875700  1
  S  S357  1  0.434700  0.036500  0.780600  1
  S  S358  1  0.565300  0.963500  0.219400  1
  S  S359  1  0.917500  0.534900  0.320300  1
  S  S360  1  0.082500  0.465100  0.679700  1
  S  S361  1  0.199300  0.109400  0.532600  1
  S  S362  1  0.800700  0.890600  0.467400  1
  S  S363  1  0.174300  0.913000  0.257300  1
  S  S364  1  0.825700  0.087000  0.742700  1
  S  S365  1  0.081300  0.367500  0.015400  1
  S  S366  1  0.918700  0.632500  0.984600  1
  N  N367  1  0.464800  0.329400  0.344500  1
  N  N368  1  0.535200  0.670600  0.655500  1
  N  N369  1  0.187200  0.564700  0.173700  1
  N  N370  1  0.812800  0.435300  0.826300  1
  N  N371  1  0.000500  0.771400  0.271300  1
  N  N372  1  0.999500  0.228600  0.728700  1
  N  N373  1  0.136300  0.722000  0.497400  1
  N  N374  1  0.863700  0.278000  0.502600  1
  N  N375  1  0.405500  0.898700  0.359400  1
  N  N376  1  0.594500  0.101300  0.640600  1
  N  N377  1  0.559600  0.714400  0.040600  1
  N  N378  1  0.440400  0.285600  0.959400  1
  N  N379  1  0.752500  0.488600  0.222000  1
  N  N380  1  0.247500  0.511400  0.778000  1
  N  N381  1  0.351600  0.945800  0.111900  1
  N  N382  1  0.648400  0.054200  0.888100  1
  O  O383  1  0.733600  0.608200  0.770800  1
  O  O384  1  0.266400  0.391800  0.229200  1
  O  O385  1  0.699600  0.718100  0.708900  1
  O  O386  1  0.300400  0.281900  0.291100  1
  O  O387  1  0.770100  0.702700  0.777500  1
  O  O388  1  0.229900  0.297300  0.222500  1
  O  O389  1  0.562000  0.530600  0.121300  1
  O  O390  1  0.438000  0.469400  0.878700  1
  O  O391  1  0.422300  0.579300  0.142200  1
  O  O392  1  0.577700  0.420700  0.857800  1
  O  O393  1  0.472400  0.518900  0.078300  1
  O  O394  1  0.527600  0.481100  0.921700  1
  O  O395  1  0.519100  0.018000  0.777800  1
  O  O396  1  0.480900  0.982000  0.222200  1
  O  O397  1  0.395700  0.098700  0.786500  1
  O  O398  1  0.604300  0.901300  0.213500  1
  O  O399  1  0.407500  0.021600  0.742700  1
  O  O400  1  0.592500  0.978400  0.257300  1
  O  O401  1  0.899200  0.476900  0.324600  1
  O  O402  1  0.100800  0.523100  0.675400  1
  O  O403  1  0.991300  0.522200  0.341800  1
  O  O404  1  0.008700  0.477800  0.658200  1
  O  O405  1  0.892100  0.585900  0.270800  1
  O  O406  1  0.107900  0.414100  0.729200  1
  O  O407  1  0.584500  0.268100  0.277000  1
  O  O408  1  0.415500  0.731900  0.723000  1
  O  O409  1  0.619100  0.258100  0.365100  1
  O  O410  1  0.380900  0.741900  0.634900  1
  O  O411  1  0.196000  0.772300  0.556900  1
  O  O412  1  0.804000  0.227700  0.443100  1
  O  O413  1  0.145400  0.677600  0.088800  1
  O  O414  1  0.854600  0.322400  0.911200  1
  O  O415  1  0.090600  0.853700  0.497800  1
  O  O416  1  0.909400  0.146300  0.502200  1
  O  O417  1  0.048600  0.610700  0.131700  1
  O  O418  1  0.951400  0.389300  0.868300  1
  O  O419  1  0.990300  0.845100  0.167200  1
  O  O420  1  0.009700  0.154900  0.832800  1
  O  O421  1  0.893900  0.775400  0.213100  1
  O  O422  1  0.106100  0.224600  0.786900  1
  O  O423  1  0.813900  0.357500  0.278700  1
  O  O424  1  0.186100  0.642500  0.721300  1
  O  O425  1  0.774000  0.373600  0.190600  1
  O  O426  1  0.226000  0.626400  0.809400  1
  O  O427  1  0.455200  0.767900  0.967000  1
  O  O428  1  0.544800  0.232100  0.033000  1
  O  O429  1  0.572100  0.812000  0.952100  1
  O  O430  1  0.427900  0.188000  0.047900  1
  O  O431  1  0.404200  0.996700  0.009500  1
  O  O432  1  0.595800  0.003300  0.990500  1
  O  O433  1  0.289200  0.947000  0.027400  1
  O  O434  1  0.710800  0.053000  0.972600  1
  O  O435  1  0.262100  0.976200  0.401800  1
  O  O436  1  0.737900  0.023800  0.598200  1
  O  O437  1  0.362900  0.900200  0.464100  1
  O  O438  1  0.637100  0.099800  0.535900  1
  O  O439  1  0.344600  0.536900  0.416200  1
  O  O440  1  0.655400  0.463100  0.583800  1
  O  O441  1  0.607100  0.680600  0.315200  1
  O  O442  1  0.392900  0.319400  0.684800  1
  O  O443  1  0.173400  0.145900  0.570800  1
  O  O444  1  0.826600  0.854100  0.429200  1
  O  O445  1  0.184100  0.146500  0.482300  1
  O  O446  1  0.815900  0.853500  0.517700  1
  O  O447  1  0.277500  0.068100  0.540900  1
  O  O448  1  0.722500  0.931900  0.459100  1
  O  O449  1  0.210400  0.844600  0.263700  1
  O  O450  1  0.789600  0.155400  0.736300  1
  O  O451  1  0.115700  0.935100  0.225300  1
  O  O452  1  0.884300  0.064900  0.774700  1
  O  O453  1  0.228200  0.954200  0.238900  1
  O  O454  1  0.771800  0.045800  0.761100  1
  O  O455  1  0.991000  0.369000  0.032000  1
  O  O456  1  0.009000  0.631000  0.968000  1
  O  O457  1  0.076000  0.425000  0.974300  1
  O  O458  1  0.924000  0.575000  0.025700  1
  F  F459  1  0.898100  0.599100  0.732200  1
  F  F460  1  0.101900  0.400900  0.267800  1
  F  F461  1  0.874500  0.696000  0.683700  1
  F  F462  1  0.125500  0.304000  0.316300  1
  F  F463  1  0.833800  0.624400  0.669900  1
  F  F464  1  0.166200  0.375600  0.330100  1
  F  F465  1  0.531500  0.400200  0.160800  1
  F  F466  1  0.468500  0.599800  0.839200  1
  F  F467  1  0.406300  0.446100  0.174300  1
  F  F468  1  0.593700  0.553900  0.825700  1
  F  F469  1  0.495900  0.451400  0.213700  1
  F  F470  1  0.504100  0.548600  0.786300  1
  F  F471  1  0.421800  0.006800  0.875400  1
  F  F472  1  0.578200  0.993200  0.124600  1
  F  F473  1  0.439700  0.925400  0.855700  1
  F  F474  1  0.560300  0.074600  0.144300  1
  F  F475  1  0.334200  0.988100  0.851900  1
  F  F476  1  0.665800  0.011900  0.148100  1
  F  F477  1  0.857200  0.635900  0.359100  1
  F  F478  1  0.142800  0.364100  0.640900  1
  F  F479  1  0.776600  0.591700  0.354400  1
  F  F480  1  0.223400  0.408300  0.645600  1
  F  F481  1  0.846900  0.537100  0.407000  1
  F  F482  1  0.153100  0.462900  0.593000  1
  F  F483  1  0.072400  0.085700  0.545600  1
  F  F484  1  0.927600  0.914300  0.454400  1
  F  F485  1  0.130900  0.029900  0.598600  1
  F  F486  1  0.869100  0.970100  0.401400  1
  F  F487  1  0.077000  0.862500  0.332200  1
  F  F488  1  0.923000  0.137500  0.667800  1
  F  F489  1  0.089000  0.943000  0.323000  1
  F  F490  1  0.911000  0.057000  0.677000  1
  F  F491  1  0.185200  0.298500  0.973600  1
  F  F492  1  0.814800  0.701500  0.026400  1
  F  F493  1  0.093300  0.250800  0.020200  1
  F  F494  1  0.906700  0.749200  0.979800  1
