# generated using pymatgen
data_Si4P4H92Pd2C64N8(OF8)3
_symmetry_space_group_name_H-M   'P 1'
_cell_length_a   17.76160000
_cell_length_b   21.21950000
_cell_length_c   23.63220000
_cell_angle_alpha   90.00000000
_cell_angle_beta   90.00000000
_cell_angle_gamma   106.26700000
_symmetry_Int_Tables_number   1
_chemical_formula_structural   Si4P4H92Pd2C64N8(OF8)3
_chemical_formula_sum   'Si16 P16 H368 Pd8 C256 N32 O12 F96'
_cell_volume   8550.22595273
_cell_formula_units_Z   4
loop_
 _symmetry_equiv_pos_site_id
 _symmetry_equiv_pos_as_xyz
  1  'x, y, z'
loop_
 _atom_site_type_symbol
 _atom_site_label
 _atom_site_symmetry_multiplicity
 _atom_site_fract_x
 _atom_site_fract_y
 _atom_site_fract_z
 _atom_site_occupancy
  Si  Si1  1  0.108760  0.493360  0.914260  1
  Si  Si2  1  0.391240  0.006640  0.414260  1
  Si  Si3  1  0.891240  0.506640  0.085740  1
  Si  Si4  1  0.608760  0.993360  0.585740  1
  Si  Si5  1  0.461610  0.475680  0.850970  1
  Si  Si6  1  0.038390  0.024320  0.350970  1
  Si  Si7  1  0.538390  0.524320  0.149030  1
  Si  Si8  1  0.961610  0.975680  0.649030  1
  Si  Si9  1  0.132740  0.034920  0.926680  1
  Si  Si10  1  0.367260  0.465080  0.426680  1
  Si  Si11  1  0.867260  0.965080  0.073320  1
  Si  Si12  1  0.632740  0.534920  0.573320  1
  Si  Si13  1  0.780470  0.051050  0.858990  1
  Si  Si14  1  0.719530  0.448950  0.358990  1
  Si  Si15  1  0.219530  0.948950  0.141010  1
  Si  Si16  1  0.280470  0.551050  0.641010  1
  P  P17  1  0.166100  0.903060  0.750780  1
  P  P18  1  0.333900  0.596940  0.250780  1
  P  P19  1  0.833900  0.096940  0.249220  1
  P  P20  1  0.666100  0.403060  0.749220  1
  P  P21  1  0.060270  0.618480  0.735370  1
  P  P22  1  0.439730  0.881520  0.235370  1
  P  P23  1  0.939730  0.381520  0.264630  1
  P  P24  1  0.560270  0.118480  0.764630  1
  P  P25  1  0.885070  0.253740  0.990300  1
  P  P26  1  0.614930  0.246260  0.490300  1
  P  P27  1  0.114930  0.746260  0.009700  1
  P  P28  1  0.385070  0.753740  0.509700  1
  P  P29  1  0.881770  0.741400  0.348900  1
  P  P30  1  0.618230  0.758600  0.848900  1
  P  P31  1  0.118230  0.258600  0.651100  1
  P  P32  1  0.381770  0.241400  0.151100  1
  H  H33  1  0.868500  0.397500  0.807900  1
  H  H34  1  0.631500  0.102500  0.307900  1
  H  H35  1  0.131500  0.602500  0.192100  1
  H  H36  1  0.368500  0.897500  0.692100  1
  H  H37  1  0.942100  0.451800  0.882000  1
  H  H38  1  0.557900  0.048200  0.382000  1
  H  H39  1  0.057900  0.548200  0.118000  1
  H  H40  1  0.442100  0.951800  0.618000  1
  H  H41  1  0.132500  0.416800  0.812200  1
  H  H42  1  0.367500  0.083200  0.312200  1
  H  H43  1  0.867500  0.583200  0.187800  1
  H  H44  1  0.632500  0.916800  0.687800  1
  H  H45  1  0.054900  0.360900  0.740200  1
  H  H46  1  0.445100  0.139100  0.240200  1
  H  H47  1  0.945100  0.639100  0.259800  1
  H  H48  1  0.554900  0.860900  0.759800  1
  H  H49  1  0.126100  0.603900  0.940600  1
  H  H50  1  0.373900  0.896100  0.440600  1
  H  H51  1  0.873900  0.396100  0.059400  1
  H  H52  1  0.626100  0.103900  0.559400  1
  H  H53  1  0.039100  0.573300  0.916800  1
  H  H54  1  0.460900  0.926700  0.416800  1
  H  H55  1  0.960900  0.426700  0.083200  1
  H  H56  1  0.539100  0.073300  0.583200  1
  H  H57  1  0.111300  0.595800  0.873900  1
  H  H58  1  0.388700  0.904200  0.373900  1
  H  H59  1  0.888700  0.404200  0.126100  1
  H  H60  1  0.611300  0.095800  0.626100  1
  H  H61  1  0.106500  0.479000  0.013600  1
  H  H62  1  0.393500  0.021000  0.513600  1
  H  H63  1  0.893500  0.521000  0.986400  1
  H  H64  1  0.606500  0.979000  0.486400  1
  H  H65  1  0.081600  0.409000  0.983000  1
  H  H66  1  0.418400  0.091000  0.483000  1
  H  H67  1  0.918400  0.591000  0.017000  1
  H  H68  1  0.581600  0.909000  0.517000  1
  H  H69  1  0.019800  0.450900  0.988600  1
  H  H70  1  0.480200  0.049100  0.488600  1
  H  H71  1  0.980200  0.549100  0.011400  1
  H  H72  1  0.519800  0.950900  0.511400  1
  H  H73  1  0.233200  0.559700  0.835100  1
  H  H74  1  0.266800  0.940300  0.335100  1
  H  H75  1  0.766800  0.440300  0.164900  1
  H  H76  1  0.733200  0.059700  0.664900  1
  H  H77  1  0.359700  0.558000  0.814700  1
  H  H78  1  0.140300  0.942000  0.314700  1
  H  H79  1  0.640300  0.442000  0.185300  1
  H  H80  1  0.859700  0.058000  0.685300  1
  H  H81  1  0.350100  0.430600  0.941000  1
  H  H82  1  0.149900  0.069400  0.441000  1
  H  H83  1  0.649900  0.569400  0.059000  1
  H  H84  1  0.850100  0.930600  0.559000  1
  H  H85  1  0.225800  0.434300  0.964100  1
  H  H86  1  0.274200  0.065700  0.464100  1
  H  H87  1  0.774200  0.565700  0.035900  1
  H  H88  1  0.725800  0.934300  0.535900  1
  H  H89  1  0.531600  0.578000  0.812000  1
  H  H90  1  0.968400  0.922000  0.312000  1
  H  H91  1  0.468400  0.422000  0.188000  1
  H  H92  1  0.031600  0.078000  0.688000  1
  H  H93  1  0.475500  0.534700  0.764900  1
  H  H94  1  0.024500  0.965300  0.264900  1
  H  H95  1  0.524500  0.465300  0.235100  1
  H  H96  1  0.975500  0.034700  0.735100  1
  H  H97  1  0.556600  0.520000  0.780700  1
  H  H98  1  0.943400  0.980000  0.280700  1
  H  H99  1  0.443400  0.480000  0.219300  1
  H  H100  1  0.056600  0.020000  0.719300  1
  H  H101  1  0.544800  0.515700  0.928600  1
  H  H102  1  0.955200  0.984300  0.428600  1
  H  H103  1  0.455200  0.484300  0.071400  1
  H  H104  1  0.044800  0.015700  0.571400  1
  H  H105  1  0.572000  0.458900  0.897300  1
  H  H106  1  0.928000  0.041100  0.397300  1
  H  H107  1  0.428000  0.541100  0.102700  1
  H  H108  1  0.072000  0.958900  0.602700  1
  H  H109  1  0.497900  0.440400  0.938900  1
  H  H110  1  0.002100  0.059600  0.438900  1
  H  H111  1  0.502100  0.559600  0.061100  1
  H  H112  1  0.997900  0.940400  0.561100  1
  H  H113  1  0.509300  0.349300  0.843100  1
  H  H114  1  0.990700  0.150700  0.343100  1
  H  H115  1  0.490700  0.650700  0.156900  1
  H  H116  1  0.009300  0.849300  0.656900  1
  H  H117  1  0.466900  0.252800  0.792600  1
  H  H118  1  0.033100  0.247200  0.292600  1
  H  H119  1  0.533100  0.747200  0.207400  1
  H  H120  1  0.966900  0.752800  0.707400  1
  H  H121  1  0.289900  0.310900  0.729800  1
  H  H122  1  0.210100  0.189100  0.229800  1
  H  H123  1  0.710100  0.689100  0.270200  1
  H  H124  1  0.789900  0.810900  0.770200  1
  H  H125  1  0.330000  0.408000  0.778700  1
  H  H126  1  0.170000  0.092000  0.278700  1
  H  H127  1  0.670000  0.592000  0.221300  1
  H  H128  1  0.830000  0.908000  0.721300  1
  H  H129  1  0.365500  0.122100  0.808600  1
  H  H130  1  0.134500  0.377900  0.308600  1
  H  H131  1  0.634500  0.877900  0.191400  1
  H  H132  1  0.865500  0.622100  0.691400  1
  H  H133  1  0.295700  0.067900  0.885300  1
  H  H134  1  0.204300  0.432100  0.385300  1
  H  H135  1  0.704300  0.932100  0.114700  1
  H  H136  1  0.795700  0.567900  0.614700  1
  H  H137  1  0.102000  0.107600  0.823900  1
  H  H138  1  0.398000  0.392400  0.323900  1
  H  H139  1  0.898000  0.892400  0.176100  1
  H  H140  1  0.602000  0.607600  0.676100  1
  H  H141  1  0.174700  0.160200  0.748200  1
  H  H142  1  0.325300  0.339800  0.248200  1
  H  H143  1  0.825300  0.839800  0.251800  1
  H  H144  1  0.674700  0.660200  0.751800  1
  H  H145  1  0.139300  0.059500  0.024200  1
  H  H146  1  0.360700  0.440500  0.524200  1
  H  H147  1  0.860700  0.940500  0.975800  1
  H  H148  1  0.639300  0.559500  0.475800  1
  H  H149  1  0.158800  0.126000  0.988200  1
  H  H150  1  0.341200  0.374000  0.488200  1
  H  H151  1  0.841200  0.874000  0.011800  1
  H  H152  1  0.658800  0.626000  0.511800  1
  H  H153  1  0.224100  0.087800  0.996100  1
  H  H154  1  0.275900  0.412200  0.496100  1
  H  H155  1  0.775900  0.912200  0.003900  1
  H  H156  1  0.724100  0.587800  0.503900  1
  H  H157  1  0.120700  0.928100  0.961200  1
  H  H158  1  0.379300  0.571900  0.461200  1
  H  H159  1  0.879300  0.071900  0.038800  1
  H  H160  1  0.620700  0.428100  0.538800  1
  H  H161  1  0.205500  0.957500  0.933400  1
  H  H162  1  0.294500  0.542500  0.433400  1
  H  H163  1  0.794500  0.042500  0.066600  1
  H  H164  1  0.705500  0.457500  0.566600  1
  H  H165  1  0.130500  0.929300  0.893800  1
  H  H166  1  0.369500  0.570700  0.393800  1
  H  H167  1  0.869500  0.070700  0.106200  1
  H  H168  1  0.630500  0.429300  0.606200  1
  H  H169  1  0.023200  0.108500  0.964000  1
  H  H170  1  0.476800  0.391500  0.464000  1
  H  H171  1  0.976800  0.891500  0.036000  1
  H  H172  1  0.523200  0.608500  0.536000  1
  H  H173  1  0.899700  0.112100  0.938700  1
  H  H174  1  0.600300  0.387900  0.438700  1
  H  H175  1  0.100300  0.887900  0.061300  1
  H  H176  1  0.399700  0.612100  0.561300  1
  H  H177  1  0.877400  0.959100  0.832800  1
  H  H178  1  0.622600  0.540900  0.332800  1
  H  H179  1  0.122600  0.040900  0.167200  1
  H  H180  1  0.377400  0.459100  0.667200  1
  H  H181  1  0.002700  0.953600  0.858300  1
  H  H182  1  0.497300  0.546400  0.358300  1
  H  H183  1  0.997300  0.046400  0.141700  1
  H  H184  1  0.502700  0.453600  0.641700  1
  H  H185  1  0.700500  0.013600  0.939400  1
  H  H186  1  0.799500  0.486400  0.439400  1
  H  H187  1  0.299500  0.986400  0.060600  1
  H  H188  1  0.200500  0.513600  0.560600  1
  H  H189  1  0.669800  0.067500  0.906500  1
  H  H190  1  0.830200  0.432500  0.406500  1
  H  H191  1  0.330200  0.932500  0.093500  1
  H  H192  1  0.169800  0.567500  0.593500  1
  H  H193  1  0.745400  0.089900  0.946500  1
  H  H194  1  0.754600  0.410100  0.446500  1
  H  H195  1  0.254600  0.910100  0.053500  1
  H  H196  1  0.245400  0.589900  0.553500  1
  H  H197  1  0.710700  0.945600  0.825000  1
  H  H198  1  0.789300  0.554400  0.325000  1
  H  H199  1  0.289300  0.054400  0.175000  1
  H  H200  1  0.210700  0.445600  0.675000  1
  H  H201  1  0.763400  0.986700  0.775300  1
  H  H202  1  0.736600  0.513300  0.275300  1
  H  H203  1  0.236600  0.013300  0.224700  1
  H  H204  1  0.263400  0.486700  0.724700  1
  H  H205  1  0.682400  0.000800  0.792000  1
  H  H206  1  0.817600  0.499200  0.292000  1
  H  H207  1  0.317600  0.999200  0.208000  1
  H  H208  1  0.182400  0.500800  0.708000  1
  H  H209  1  0.912900  0.119700  0.786600  1
  H  H210  1  0.587100  0.380300  0.286600  1
  H  H211  1  0.087100  0.880300  0.213400  1
  H  H212  1  0.412900  0.619700  0.713400  1
  H  H213  1  0.947200  0.214300  0.733100  1
  H  H214  1  0.552800  0.285700  0.233100  1
  H  H215  1  0.052800  0.785700  0.266900  1
  H  H216  1  0.447200  0.714300  0.766900  1
  H  H217  1  0.762500  0.264800  0.790100  1
  H  H218  1  0.737500  0.235200  0.290100  1
  H  H219  1  0.237500  0.735200  0.209900  1
  H  H220  1  0.262500  0.764800  0.709900  1
  H  H221  1  0.726400  0.172400  0.846200  1
  H  H222  1  0.773600  0.327600  0.346200  1
  H  H223  1  0.273600  0.827600  0.153800  1
  H  H224  1  0.226400  0.672400  0.653800  1
  H  H225  1  0.011000  0.471700  0.615000  1
  H  H226  1  0.489000  0.028300  0.115000  1
  H  H227  1  0.989000  0.528300  0.385000  1
  H  H228  1  0.511000  0.971700  0.885000  1
  H  H229  1  0.025500  0.401900  0.627600  1
  H  H230  1  0.474500  0.098100  0.127600  1
  H  H231  1  0.974500  0.598100  0.372400  1
  H  H232  1  0.525500  0.901900  0.872400  1
  H  H233  1  0.023600  0.451000  0.678700  1
  H  H234  1  0.476400  0.049000  0.178700  1
  H  H235  1  0.976400  0.549000  0.321300  1
  H  H236  1  0.523600  0.951000  0.821300  1
  H  H237  1  0.894400  0.494900  0.639800  1
  H  H238  1  0.605600  0.005100  0.139800  1
  H  H239  1  0.105600  0.505100  0.360200  1
  H  H240  1  0.394400  0.994900  0.860200  1
  H  H241  1  0.899300  0.473400  0.704300  1
  H  H242  1  0.600700  0.026600  0.204300  1
  H  H243  1  0.100700  0.526600  0.295700  1
  H  H244  1  0.399300  0.973400  0.795700  1
  H  H245  1  0.822600  0.440600  0.667600  1
  H  H246  1  0.677400  0.059400  0.167600  1
  H  H247  1  0.177400  0.559400  0.332400  1
  H  H248  1  0.322600  0.940600  0.832400  1
  H  H249  1  0.877300  0.414400  0.567100  1
  H  H250  1  0.622700  0.085600  0.067100  1
  H  H251  1  0.122700  0.585600  0.432900  1
  H  H252  1  0.377300  0.914400  0.932900  1
  H  H253  1  0.922100  0.358700  0.572600  1
  H  H254  1  0.577900  0.141300  0.072600  1
  H  H255  1  0.077900  0.641300  0.427400  1
  H  H256  1  0.422100  0.858700  0.927400  1
  H  H257  1  0.792100  0.307500  0.559800  1
  H  H258  1  0.707900  0.192500  0.059800  1
  H  H259  1  0.207900  0.692500  0.440200  1
  H  H260  1  0.292100  0.807500  0.940200  1
  H  H261  1  0.768100  0.349100  0.609800  1
  H  H262  1  0.731900  0.150900  0.109800  1
  H  H263  1  0.231900  0.650900  0.390200  1
  H  H264  1  0.268100  0.849100  0.890200  1
  H  H265  1  0.703400  0.219800  0.625100  1
  H  H266  1  0.796600  0.280200  0.125100  1
  H  H267  1  0.296600  0.780200  0.374900  1
  H  H268  1  0.203400  0.719800  0.874900  1
  H  H269  1  0.708900  0.274700  0.672500  1
  H  H270  1  0.791100  0.225300  0.172500  1
  H  H271  1  0.291100  0.725300  0.327500  1
  H  H272  1  0.208900  0.774700  0.827500  1
  H  H273  1  0.735300  0.210300  0.687000  1
  H  H274  1  0.764700  0.289700  0.187000  1
  H  H275  1  0.264700  0.789700  0.313000  1
  H  H276  1  0.235300  0.710300  0.813000  1
  H  H277  1  0.814600  0.202600  0.582900  1
  H  H278  1  0.685400  0.297400  0.082900  1
  H  H279  1  0.185400  0.797400  0.417100  1
  H  H280  1  0.314600  0.702600  0.917100  1
  H  H281  1  0.854100  0.194300  0.642200  1
  H  H282  1  0.645900  0.305700  0.142200  1
  H  H283  1  0.145900  0.805700  0.357800  1
  H  H284  1  0.354100  0.694300  0.857800  1
  H  H285  1  0.900800  0.247700  0.597600  1
  H  H286  1  0.599200  0.252300  0.097600  1
  H  H287  1  0.099200  0.752300  0.402400  1
  H  H288  1  0.400800  0.747700  0.902400  1
  H  H289  1  0.407600  0.309100  0.579000  1
  H  H290  1  0.092400  0.190900  0.079000  1
  H  H291  1  0.592400  0.690900  0.421000  1
  H  H292  1  0.907600  0.809100  0.921000  1
  H  H293  1  0.368600  0.320200  0.637800  1
  H  H294  1  0.131400  0.179800  0.137800  1
  H  H295  1  0.631400  0.679800  0.362200  1
  H  H296  1  0.868600  0.820200  0.862200  1
  H  H297  1  0.322700  0.263200  0.595800  1
  H  H298  1  0.177300  0.236800  0.095800  1
  H  H299  1  0.677300  0.736800  0.404200  1
  H  H300  1  0.822700  0.763200  0.904200  1
  H  H301  1  0.520800  0.299000  0.621000  1
  H  H302  1  0.979200  0.201000  0.121000  1
  H  H303  1  0.479200  0.701000  0.379000  1
  H  H304  1  0.020800  0.799000  0.879000  1
  H  H305  1  0.519200  0.248000  0.671200  1
  H  H306  1  0.980800  0.252000  0.171200  1
  H  H307  1  0.480800  0.752000  0.328800  1
  H  H308  1  0.019200  0.748000  0.828800  1
  H  H309  1  0.490100  0.311700  0.682500  1
  H  H310  1  0.009900  0.188300  0.182500  1
  H  H311  1  0.509900  0.688300  0.317500  1
  H  H312  1  0.990100  0.811700  0.817500  1
  H  H313  1  0.455800  0.166900  0.610900  1
  H  H314  1  0.044200  0.333100  0.110900  1
  H  H315  1  0.544200  0.833100  0.389100  1
  H  H316  1  0.955800  0.666900  0.889100  1
  H  H317  1  0.431400  0.207300  0.560100  1
  H  H318  1  0.068600  0.292700  0.060100  1
  H  H319  1  0.568600  0.792700  0.439900  1
  H  H320  1  0.931400  0.707300  0.939900  1
  H  H321  1  0.298200  0.158200  0.577900  1
  H  H322  1  0.201800  0.341800  0.077900  1
  H  H323  1  0.701800  0.841800  0.422100  1
  H  H324  1  0.798200  0.658200  0.922100  1
  H  H325  1  0.340600  0.101300  0.569600  1
  H  H326  1  0.159400  0.398700  0.069600  1
  H  H327  1  0.659400  0.898700  0.430400  1
  H  H328  1  0.840600  0.601300  0.930400  1
  H  H329  1  0.335000  0.024300  0.645600  1
  H  H330  1  0.165000  0.475700  0.145600  1
  H  H331  1  0.665000  0.975700  0.354400  1
  H  H332  1  0.835000  0.524300  0.854400  1
  H  H333  1  0.334700  0.048800  0.709600  1
  H  H334  1  0.165300  0.451200  0.209600  1
  H  H335  1  0.665300  0.951200  0.290400  1
  H  H336  1  0.834700  0.548800  0.790400  1
  H  H337  1  0.407400  0.081500  0.669100  1
  H  H338  1  0.092600  0.418500  0.169100  1
  H  H339  1  0.592600  0.918500  0.330900  1
  H  H340  1  0.907400  0.581500  0.830900  1
  H  H341  1  0.214400  0.042000  0.624300  1
  H  H342  1  0.285600  0.458000  0.124300  1
  H  H343  1  0.785600  0.958000  0.375700  1
  H  H344  1  0.714400  0.542000  0.875700  1
  H  H345  1  0.197600  0.111100  0.636200  1
  H  H346  1  0.302400  0.388900  0.136200  1
  H  H347  1  0.802400  0.888900  0.363800  1
  H  H348  1  0.697600  0.611100  0.863800  1
  H  H349  1  0.205600  0.064700  0.688000  1
  H  H350  1  0.294400  0.435300  0.188000  1
  H  H351  1  0.794400  0.935300  0.312000  1
  H  H352  1  0.705600  0.564700  0.812000  1
  H  H353  1  0.199100  0.243200  0.386400  1
  H  H354  1  0.300900  0.256800  0.886400  1
  H  H355  1  0.800900  0.756800  0.613600  1
  H  H356  1  0.699100  0.743200  0.113600  1
  H  H357  1  0.221000  0.229700  0.489600  1
  H  H358  1  0.279000  0.270300  0.989600  1
  H  H359  1  0.779000  0.770300  0.510400  1
  H  H360  1  0.721000  0.729700  0.010400  1
  H  H361  1  0.341700  0.208900  0.511500  1
  H  H362  1  0.158300  0.291100  0.011500  1
  H  H363  1  0.658300  0.791100  0.488500  1
  H  H364  1  0.841700  0.708900  0.988500  1
  H  H365  1  0.427000  0.245200  0.424200  1
  H  H366  1  0.073000  0.254800  0.924200  1
  H  H367  1  0.573000  0.754800  0.575800  1
  H  H368  1  0.927000  0.745200  0.075800  1
  H  H369  1  0.765300  0.472100  0.936900  1
  H  H370  1  0.734700  0.027900  0.436900  1
  H  H371  1  0.234700  0.527900  0.063100  1
  H  H372  1  0.265300  0.972100  0.563100  1
  H  H373  1  0.794600  0.374600  0.889100  1
  H  H374  1  0.705400  0.125400  0.389100  1
  H  H375  1  0.205400  0.625400  0.110900  1
  H  H376  1  0.294600  0.874600  0.610900  1
  H  H377  1  0.681600  0.283300  0.891400  1
  H  H378  1  0.818400  0.216700  0.391400  1
  H  H379  1  0.318400  0.716700  0.108600  1
  H  H380  1  0.181600  0.783300  0.608600  1
  H  H381  1  0.586200  0.298300  0.967100  1
  H  H382  1  0.913800  0.201700  0.467100  1
  H  H383  1  0.413800  0.701700  0.032900  1
  H  H384  1  0.086200  0.798300  0.532900  1
  H  H385  1  0.474300  0.229200  0.921800  1
  H  H386  1  0.025700  0.270800  0.421800  1
  H  H387  1  0.525700  0.770800  0.078200  1
  H  H388  1  0.974300  0.729200  0.578200  1
  H  H389  1  0.586400  0.175900  0.942600  1
  H  H390  1  0.913600  0.324100  0.442600  1
  H  H391  1  0.413600  0.824100  0.057400  1
  H  H392  1  0.086400  0.675900  0.557400  1
  H  H393  1  0.526000  0.066100  0.968100  1
  H  H394  1  0.974000  0.433900  0.468100  1
  H  H395  1  0.474000  0.933900  0.031900  1
  H  H396  1  0.026000  0.566100  0.531900  1
  H  H397  1  0.378100  0.045500  0.962900  1
  H  H398  1  0.121900  0.454500  0.462900  1
  H  H399  1  0.621900  0.954500  0.037100  1
  H  H400  1  0.878100  0.545500  0.537100  1
  Pd  Pd401  1  0.885510  0.326300  0.703220  1
  Pd  Pd402  1  0.614490  0.173700  0.203220  1
  Pd  Pd403  1  0.114490  0.673700  0.296780  1
  Pd  Pd404  1  0.385510  0.826300  0.796780  1
  Pd  Pd405  1  0.343090  0.193270  0.705040  1
  Pd  Pd406  1  0.156910  0.306730  0.205040  1
  Pd  Pd407  1  0.656910  0.806730  0.294960  1
  Pd  Pd408  1  0.843090  0.693270  0.794960  1
  C  C409  1  0.923200  0.401800  0.808700  1
  C  C410  1  0.576800  0.098200  0.308700  1
  C  C411  1  0.076800  0.598200  0.191300  1
  C  C412  1  0.423200  0.901800  0.691300  1
  C  C413  1  0.967100  0.434300  0.852800  1
  C  C414  1  0.532900  0.065700  0.352800  1
  C  C415  1  0.032900  0.565700  0.147200  1
  C  C416  1  0.467100  0.934300  0.647200  1
  C  C417  1  0.047100  0.442300  0.856100  1
  C  C418  1  0.452900  0.057700  0.356100  1
  C  C419  1  0.952900  0.557700  0.143900  1
  C  C420  1  0.547100  0.942300  0.643900  1
  C  C421  1  0.078000  0.413500  0.812200  1
  C  C422  1  0.422000  0.086500  0.312200  1
  C  C423  1  0.922000  0.586500  0.187800  1
  C  C424  1  0.578000  0.913500  0.687800  1
  C  C425  1  0.032000  0.380600  0.769000  1
  C  C426  1  0.468000  0.119400  0.269000  1
  C  C427  1  0.968000  0.619400  0.231000  1
  C  C428  1  0.532000  0.880600  0.731000  1
  C  C429  1  0.094700  0.576300  0.911000  1
  C  C430  1  0.405300  0.923700  0.411000  1
  C  C431  1  0.905300  0.423700  0.089000  1
  C  C432  1  0.594700  0.076300  0.589000  1
  C  C433  1  0.075200  0.453400  0.982900  1
  C  C434  1  0.424800  0.046600  0.482900  1
  C  C435  1  0.924800  0.546600  0.017100  1
  C  C436  1  0.575200  0.953400  0.517100  1
  C  C437  1  0.213200  0.495400  0.900400  1
  C  C438  1  0.286800  0.004600  0.400400  1
  C  C439  1  0.786800  0.504600  0.099600  1
  C  C440  1  0.713200  0.995400  0.599600  1
  C  C441  1  0.256400  0.532500  0.857000  1
  C  C442  1  0.243600  0.967500  0.357000  1
  C  C443  1  0.743600  0.467500  0.143000  1
  C  C444  1  0.756400  0.032500  0.643000  1
  C  C445  1  0.332000  0.531200  0.844400  1
  C  C446  1  0.168000  0.968800  0.344400  1
  C  C447  1  0.668000  0.468800  0.155600  1
  C  C448  1  0.832000  0.031200  0.655600  1
  C  C449  1  0.367900  0.491800  0.874200  1
  C  C450  1  0.132100  0.008200  0.374200  1
  C  C451  1  0.632100  0.508200  0.125800  1
  C  C452  1  0.867900  0.991800  0.625800  1
  C  C453  1  0.326200  0.457000  0.918700  1
  C  C454  1  0.173800  0.043000  0.418700  1
  C  C455  1  0.673800  0.543000  0.081300  1
  C  C456  1  0.826200  0.957000  0.581300  1
  C  C457  1  0.251600  0.458600  0.932400  1
  C  C458  1  0.248400  0.041400  0.432400  1
  C  C459  1  0.748400  0.541400  0.067600  1
  C  C460  1  0.751600  0.958600  0.567600  1
  C  C461  1  0.512300  0.533900  0.795600  1
  C  C462  1  0.987700  0.966100  0.295600  1
  C  C463  1  0.487700  0.466100  0.204400  1
  C  C464  1  0.012300  0.033900  0.704400  1
  C  C465  1  0.526700  0.472300  0.911000  1
  C  C466  1  0.973300  0.027700  0.411000  1
  C  C467  1  0.473300  0.527700  0.089000  1
  C  C468  1  0.026700  0.972300  0.589000  1
  C  C469  1  0.425900  0.391500  0.816400  1
  C  C470  1  0.074100  0.108500  0.316400  1
  C  C471  1  0.574100  0.608500  0.183600  1
  C  C472  1  0.925900  0.891500  0.683600  1
  C  C473  1  0.464500  0.342700  0.819500  1
  C  C474  1  0.035500  0.157300  0.319500  1
  C  C475  1  0.535500  0.657300  0.180500  1
  C  C476  1  0.964500  0.842700  0.680500  1
  C  C477  1  0.439500  0.285200  0.789200  1
  C  C478  1  0.060500  0.214800  0.289200  1
  C  C479  1  0.560500  0.714800  0.210800  1
  C  C480  1  0.939500  0.785200  0.710800  1
  C  C481  1  0.335900  0.319400  0.752400  1
  C  C482  1  0.164100  0.180600  0.252400  1
  C  C483  1  0.664100  0.680600  0.247600  1
  C  C484  1  0.835900  0.819400  0.747600  1
  C  C485  1  0.359500  0.377000  0.781800  1
  C  C486  1  0.140500  0.123000  0.281800  1
  C  C487  1  0.640500  0.623000  0.218200  1
  C  C488  1  0.859500  0.877000  0.718200  1
  C  C489  1  0.311200  0.118700  0.811500  1
  C  C490  1  0.188800  0.381300  0.311500  1
  C  C491  1  0.688800  0.881300  0.188500  1
  C  C492  1  0.811200  0.618700  0.688500  1
  C  C493  1  0.269500  0.086500  0.857600  1
  C  C494  1  0.230500  0.413500  0.357600  1
  C  C495  1  0.730500  0.913500  0.142400  1
  C  C496  1  0.769500  0.586500  0.642400  1
  C  C497  1  0.188900  0.080800  0.864200  1
  C  C498  1  0.311100  0.419200  0.364200  1
  C  C499  1  0.811100  0.919200  0.135800  1
  C  C500  1  0.688900  0.580800  0.635800  1
  C  C501  1  0.156100  0.109500  0.821700  1
  C  C502  1  0.343900  0.390500  0.321700  1
  C  C503  1  0.843900  0.890500  0.178300  1
  C  C504  1  0.656100  0.609500  0.678300  1
  C  C505  1  0.199500  0.141000  0.776300  1
  C  C506  1  0.300500  0.359000  0.276300  1
  C  C507  1  0.800500  0.859000  0.223700  1
  C  C508  1  0.699500  0.641000  0.723700  1
  C  C509  1  0.167800  0.082600  0.991400  1
  C  C510  1  0.332200  0.417400  0.491400  1
  C  C511  1  0.832200  0.917400  0.008600  1
  C  C512  1  0.667800  0.582600  0.508600  1
  C  C513  1  0.149300  0.952800  0.929100  1
  C  C514  1  0.350700  0.547200  0.429100  1
  C  C515  1  0.850700  0.047200  0.070900  1
  C  C516  1  0.649300  0.452800  0.570900  1
  C  C517  1  0.028900  0.031200  0.913000  1
  C  C518  1  0.471100  0.468800  0.413000  1
  C  C519  1  0.971100  0.968800  0.087000  1
  C  C520  1  0.528900  0.531200  0.587000  1
  C  C521  1  0.994500  0.078000  0.936900  1
  C  C522  1  0.505500  0.422000  0.436900  1
  C  C523  1  0.005500  0.922000  0.063100  1
  C  C524  1  0.494500  0.578000  0.563100  1
  C  C525  1  0.920800  0.080100  0.921800  1
  C  C526  1  0.579200  0.419900  0.421800  1
  C  C527  1  0.079200  0.919900  0.078200  1
  C  C528  1  0.420800  0.580100  0.578200  1
  C  C529  1  0.876000  0.037000  0.882300  1
  C  C530  1  0.624000  0.463000  0.382300  1
  C  C531  1  0.124000  0.963000  0.117700  1
  C  C532  1  0.376000  0.537000  0.617700  1
  C  C533  1  0.907300  0.989800  0.859300  1
  C  C534  1  0.592700  0.510200  0.359300  1
  C  C535  1  0.092700  0.010200  0.140700  1
  C  C536  1  0.407300  0.489800  0.640700  1
  C  C537  1  0.982700  0.986700  0.874500  1
  C  C538  1  0.517300  0.513300  0.374500  1
  C  C539  1  0.017300  0.013300  0.125500  1
  C  C540  1  0.482700  0.486700  0.625500  1
  C  C541  1  0.716500  0.056100  0.920100  1
  C  C542  1  0.783500  0.443900  0.420100  1
  C  C543  1  0.283500  0.943900  0.079900  1
  C  C544  1  0.216500  0.556100  0.579900  1
  C  C545  1  0.728000  0.988600  0.806600  1
  C  C546  1  0.772000  0.511400  0.306600  1
  C  C547  1  0.272000  0.011400  0.193400  1
  C  C548  1  0.228000  0.488600  0.693400  1
  C  C549  1  0.812200  0.132600  0.820700  1
  C  C550  1  0.687800  0.367400  0.320700  1
  C  C551  1  0.187800  0.867400  0.179300  1
  C  C552  1  0.312200  0.632600  0.679300  1
  C  C553  1  0.880500  0.148500  0.787200  1
  C  C554  1  0.619500  0.351500  0.287200  1
  C  C555  1  0.119500  0.851500  0.212800  1
  C  C556  1  0.380500  0.648500  0.712800  1
  C  C557  1  0.900900  0.204900  0.755400  1
  C  C558  1  0.599100  0.295100  0.255400  1
  C  C559  1  0.099100  0.795100  0.244600  1
  C  C560  1  0.400900  0.704900  0.744600  1
  C  C561  1  0.793000  0.234600  0.789000  1
  C  C562  1  0.707000  0.265400  0.289000  1
  C  C563  1  0.207000  0.765400  0.211000  1
  C  C564  1  0.293000  0.734600  0.711000  1
  C  C565  1  0.770800  0.179000  0.822100  1
  C  C566  1  0.729200  0.321000  0.322100  1
  C  C567  1  0.229200  0.821000  0.177900  1
  C  C568  1  0.270800  0.679000  0.677900  1
  C  C569  1  0.001100  0.435000  0.641800  1
  C  C570  1  0.498900  0.065000  0.141800  1
  C  C571  1  0.998900  0.565000  0.358200  1
  C  C572  1  0.501100  0.935000  0.858200  1
  C  C573  1  0.879800  0.458100  0.666500  1
  C  C574  1  0.620200  0.041900  0.166500  1
  C  C575  1  0.120200  0.541900  0.333500  1
  C  C576  1  0.379800  0.958100  0.833500  1
  C  C577  1  0.884000  0.378200  0.591300  1
  C  C578  1  0.616000  0.121800  0.091300  1
  C  C579  1  0.116000  0.621800  0.408700  1
  C  C580  1  0.384000  0.878200  0.908700  1
  C  C581  1  0.808500  0.328100  0.597000  1
  C  C582  1  0.691500  0.171900  0.097000  1
  C  C583  1  0.191500  0.671900  0.403000  1
  C  C584  1  0.308500  0.828100  0.903000  1
  C  C585  1  0.733700  0.242400  0.657500  1
  C  C586  1  0.766300  0.257600  0.157500  1
  C  C587  1  0.266300  0.757600  0.342500  1
  C  C588  1  0.233700  0.742400  0.842500  1
  C  C589  1  0.848900  0.225800  0.613200  1
  C  C590  1  0.651100  0.274200  0.113200  1
  C  C591  1  0.151100  0.774200  0.386800  1
  C  C592  1  0.348900  0.725800  0.886800  1
  C  C593  1  0.374400  0.287200  0.610400  1
  C  C594  1  0.125600  0.212800  0.110400  1
  C  C595  1  0.625600  0.712800  0.389600  1
  C  C596  1  0.874400  0.787200  0.889600  1
  C  C597  1  0.492200  0.278000  0.654700  1
  C  C598  1  0.007800  0.222000  0.154700  1
  C  C599  1  0.507800  0.722000  0.345300  1
  C  C600  1  0.992200  0.778000  0.845300  1
  C  C601  1  0.415800  0.188100  0.597900  1
  C  C602  1  0.084200  0.311900  0.097900  1
  C  C603  1  0.584200  0.811900  0.402100  1
  C  C604  1  0.915800  0.688100  0.902100  1
  C  C605  1  0.337100  0.137900  0.594500  1
  C  C606  1  0.162900  0.362100  0.094500  1
  C  C607  1  0.662900  0.862100  0.405500  1
  C  C608  1  0.837100  0.637900  0.905500  1
  C  C609  1  0.350400  0.062500  0.670700  1
  C  C610  1  0.149600  0.437500  0.170700  1
  C  C611  1  0.649600  0.937500  0.329300  1
  C  C612  1  0.850400  0.562500  0.829300  1
  C  C613  1  0.224700  0.079700  0.650000  1
  C  C614  1  0.275300  0.420300  0.150000  1
  C  C615  1  0.775300  0.920300  0.350000  1
  C  C616  1  0.724700  0.579700  0.850000  1
  C  C617  1  0.242200  0.232500  0.403800  1
  C  C618  1  0.257800  0.267500  0.903800  1
  C  C619  1  0.757800  0.767500  0.596200  1
  C  C620  1  0.742200  0.732500  0.096200  1
  C  C621  1  0.258400  0.227600  0.461500  1
  C  C622  1  0.241600  0.272400  0.961500  1
  C  C623  1  0.741600  0.772400  0.538500  1
  C  C624  1  0.758400  0.727600  0.038500  1
  C  C625  1  0.326100  0.220000  0.475200  1
  C  C626  1  0.173900  0.280000  0.975200  1
  C  C627  1  0.673900  0.780000  0.524800  1
  C  C628  1  0.826100  0.720000  0.024800  1
  C  C629  1  0.371300  0.231200  0.426400  1
  C  C630  1  0.128700  0.268800  0.926400  1
  C  C631  1  0.628700  0.768800  0.573600  1
  C  C632  1  0.871300  0.731200  0.073600  1
  C  C633  1  0.739400  0.426700  0.941400  1
  C  C634  1  0.760600  0.073300  0.441400  1
  C  C635  1  0.260600  0.573300  0.058600  1
  C  C636  1  0.239400  0.926700  0.558600  1
  C  C637  1  0.749000  0.373200  0.910600  1
  C  C638  1  0.751000  0.126800  0.410600  1
  C  C639  1  0.251000  0.626800  0.089400  1
  C  C640  1  0.249000  0.873200  0.589400  1
  C  C641  1  0.688800  0.321100  0.914500  1
  C  C642  1  0.811200  0.178900  0.414500  1
  C  C643  1  0.311200  0.678900  0.085500  1
  C  C644  1  0.188800  0.821100  0.585500  1
  C  C645  1  0.635500  0.327700  0.957400  1
  C  C646  1  0.864500  0.172300  0.457400  1
  C  C647  1  0.364500  0.672300  0.042600  1
  C  C648  1  0.135500  0.827700  0.542600  1
  C  C649  1  0.475000  0.192100  0.944100  1
  C  C650  1  0.025000  0.307900  0.444100  1
  C  C651  1  0.525000  0.807900  0.055900  1
  C  C652  1  0.975000  0.692100  0.555900  1
  C  C653  1  0.531700  0.157700  0.948700  1
  C  C654  1  0.968300  0.342300  0.448700  1
  C  C655  1  0.468300  0.842300  0.051300  1
  C  C656  1  0.031700  0.657700  0.551300  1
  C  C657  1  0.498400  0.098000  0.962400  1
  C  C658  1  0.001600  0.402000  0.462400  1
  C  C659  1  0.501600  0.902000  0.037600  1
  C  C660  1  0.998400  0.598000  0.537600  1
  C  C661  1  0.418900  0.085000  0.968000  1
  C  C662  1  0.081100  0.415000  0.468000  1
  C  C663  1  0.581100  0.915000  0.032000  1
  C  C664  1  0.918900  0.585000  0.532000  1
  N  N665  1  0.955200  0.375800  0.766600  1
  N  N666  1  0.544800  0.124200  0.266600  1
  N  N667  1  0.044800  0.624200  0.233400  1
  N  N668  1  0.455200  0.875800  0.733400  1
  N  N669  1  0.376400  0.274300  0.754800  1
  N  N670  1  0.123600  0.225700  0.254800  1
  N  N671  1  0.623600  0.725700  0.245200  1
  N  N672  1  0.876400  0.774300  0.745200  1
  N  N673  1  0.277000  0.145200  0.770800  1
  N  N674  1  0.223000  0.354800  0.270800  1
  N  N675  1  0.723000  0.854800  0.229200  1
  N  N676  1  0.777000  0.645200  0.729200  1
  N  N677  1  0.856800  0.247500  0.755200  1
  N  N678  1  0.643200  0.252500  0.255200  1
  N  N679  1  0.143200  0.752500  0.244800  1
  N  N680  1  0.356800  0.747500  0.744800  1
  N  N681  1  0.915300  0.405200  0.647700  1
  N  N682  1  0.584700  0.094800  0.147700  1
  N  N683  1  0.084700  0.594800  0.352300  1
  N  N684  1  0.415300  0.905200  0.852300  1
  N  N685  1  0.814300  0.276000  0.639100  1
  N  N686  1  0.685700  0.224000  0.139100  1
  N  N687  1  0.185700  0.724000  0.360900  1
  N  N688  1  0.314300  0.776000  0.860900  1
  N  N689  1  0.411200  0.240600  0.638400  1
  N  N690  1  0.088800  0.259400  0.138400  1
  N  N691  1  0.588800  0.759400  0.361600  1
  N  N692  1  0.911200  0.740600  0.861600  1
  N  N693  1  0.311100  0.112400  0.652400  1
  N  N694  1  0.188900  0.387600  0.152400  1
  N  N695  1  0.688900  0.887600  0.347600  1
  N  N696  1  0.811100  0.612400  0.847600  1
  O  O697  1  0.312800  0.216100  0.376400  1
  O  O698  1  0.187200  0.283900  0.876400  1
  O  O699  1  0.687200  0.783900  0.623600  1
  O  O700  1  0.812800  0.716100  0.123600  1
  O  O701  1  0.676900  0.393400  0.983600  1
  O  O702  1  0.823100  0.106600  0.483600  1
  O  O703  1  0.323100  0.606600  0.016400  1
  O  O704  1  0.176900  0.893400  0.516400  1
  O  O705  1  0.416000  0.152800  0.985000  1
  O  O706  1  0.084000  0.347200  0.485000  1
  O  O707  1  0.584000  0.847200  0.015000  1
  O  O708  1  0.916000  0.652800  0.515000  1
  F  F709  1  0.214800  0.975900  0.766900  1
  F  F710  1  0.285200  0.524100  0.266900  1
  F  F711  1  0.785200  0.024100  0.233100  1
  F  F712  1  0.714800  0.475900  0.733100  1
  F  F713  1  0.087500  0.916600  0.772900  1
  F  F714  1  0.412500  0.583400  0.272900  1
  F  F715  1  0.912500  0.083400  0.227100  1
  F  F716  1  0.587500  0.416600  0.727100  1
  F  F717  1  0.151500  0.927100  0.689680  1
  F  F718  1  0.348500  0.572900  0.189680  1
  F  F719  1  0.848500  0.072900  0.310320  1
  F  F720  1  0.651500  0.427100  0.810320  1
  F  F721  1  0.245200  0.888900  0.730500  1
  F  F722  1  0.254800  0.611100  0.230500  1
  F  F723  1  0.754800  0.111100  0.269500  1
  F  F724  1  0.745200  0.388900  0.769500  1
  F  F725  1  0.181600  0.879700  0.813500  1
  F  F726  1  0.318400  0.620300  0.313500  1
  F  F727  1  0.818400  0.120300  0.186500  1
  F  F728  1  0.681600  0.379700  0.686500  1
  F  F729  1  0.119000  0.830200  0.734600  1
  F  F730  1  0.381000  0.669800  0.234600  1
  F  F731  1  0.881000  0.169800  0.265400  1
  F  F732  1  0.619000  0.330200  0.765400  1
  F  F733  1  0.104600  0.687700  0.710900  1
  F  F734  1  0.395400  0.812300  0.210900  1
  F  F735  1  0.895400  0.312300  0.289100  1
  F  F736  1  0.604600  0.187700  0.789100  1
  F  F737  1  0.037500  0.647800  0.793000  1
  F  F738  1  0.462500  0.852200  0.293000  1
  F  F739  1  0.962500  0.352200  0.207000  1
  F  F740  1  0.537500  0.147800  0.707000  1
  F  F741  1  0.983800  0.622200  0.706600  1
  F  F742  1  0.516200  0.877800  0.206600  1
  F  F743  1  0.016200  0.377800  0.293400  1
  F  F744  1  0.483800  0.122200  0.793400  1
  F  F745  1  0.088000  0.586400  0.682300  1
  F  F746  1  0.412000  0.913600  0.182300  1
  F  F747  1  0.912000  0.413600  0.317700  1
  F  F748  1  0.588000  0.086400  0.817700  1
  F  F749  1  0.137900  0.614500  0.766500  1
  F  F750  1  0.362100  0.885500  0.266500  1
  F  F751  1  0.862100  0.385500  0.233500  1
  F  F752  1  0.637900  0.114500  0.733500  1
  F  F753  1  0.014900  0.549200  0.759500  1
  F  F754  1  0.485100  0.950800  0.259500  1
  F  F755  1  0.985100  0.450800  0.240500  1
  F  F756  1  0.514900  0.049200  0.740500  1
  F  F757  1  0.935600  0.319900  0.979000  1
  F  F758  1  0.564400  0.180100  0.479000  1
  F  F759  1  0.064400  0.680100  0.021000  1
  F  F760  1  0.435600  0.819900  0.521000  1
  F  F761  1  0.811300  0.280000  0.004200  1
  F  F762  1  0.688700  0.220000  0.504200  1
  F  F763  1  0.188700  0.720000  0.995800  1
  F  F764  1  0.311300  0.780000  0.495800  1
  F  F765  1  0.865100  0.236400  0.931200  1
  F  F766  1  0.634900  0.263600  0.431200  1
  F  F767  1  0.134900  0.763600  0.068800  1
  F  F768  1  0.365100  0.736400  0.568800  1
  F  F769  1  0.955500  0.221600  0.987200  1
  F  F770  1  0.544500  0.278400  0.487200  1
  F  F771  1  0.044500  0.778400  0.012800  1
  F  F772  1  0.455500  0.721600  0.512800  1
  F  F773  1  0.902500  0.268600  0.054100  1
  F  F774  1  0.597500  0.231400  0.554100  1
  F  F775  1  0.097500  0.731400  0.945900  1
  F  F776  1  0.402500  0.768600  0.445900  1
  F  F777  1  0.833700  0.184100  0.004600  1
  F  F778  1  0.666300  0.315900  0.504600  1
  F  F779  1  0.166300  0.815900  0.995400  1
  F  F780  1  0.333700  0.684100  0.495400  1
  F  F781  1  0.923700  0.787700  0.301600  1
  F  F782  1  0.576300  0.712300  0.801600  1
  F  F783  1  0.076300  0.212300  0.698400  1
  F  F784  1  0.423700  0.287700  0.198400  1
  F  F785  1  0.915700  0.792000  0.393800  1
  F  F786  1  0.584300  0.708000  0.893800  1
  F  F787  1  0.084300  0.208000  0.606200  1
  F  F788  1  0.415700  0.292000  0.106200  1
  F  F789  1  0.808800  0.770600  0.341000  1
  F  F790  1  0.691200  0.729400  0.841000  1
  F  F791  1  0.191200  0.229400  0.659000  1
  F  F792  1  0.308800  0.270600  0.159000  1
  F  F793  1  0.846600  0.690100  0.302300  1
  F  F794  1  0.653400  0.809900  0.802300  1
  F  F795  1  0.153400  0.309900  0.697700  1
  F  F796  1  0.346600  0.190100  0.197700  1
  F  F797  1  0.953100  0.711500  0.352200  1
  F  F798  1  0.546900  0.788500  0.852200  1
  F  F799  1  0.046900  0.288500  0.647800  1
  F  F800  1  0.453100  0.211500  0.147800  1
  F  F801  1  0.838300  0.695100  0.394300  1
  F  F802  1  0.661700  0.804900  0.894300  1
  F  F803  1  0.161700  0.304900  0.605700  1
  F  F804  1  0.338300  0.195100  0.105700  1
