# generated using pymatgen
data_P3H49PtC55S2N4(OF11)2
_symmetry_space_group_name_H-M   'P 1'
_cell_length_a   13.33670000
_cell_length_b   14.14310000
_cell_length_c   15.68320000
_cell_angle_alpha   89.39240000
_cell_angle_beta   73.21740000
_cell_angle_gamma   72.01420000
_symmetry_Int_Tables_number   1
_chemical_formula_structural   P3H49PtC55S2N4(OF11)2
_chemical_formula_sum   'P6 H98 Pt2 C110 S4 N8 O4 F44'
_cell_volume   2683.76040234
_cell_formula_units_Z   2
loop_
 _symmetry_equiv_pos_site_id
 _symmetry_equiv_pos_as_xyz
  1  'x, y, z'
loop_
 _atom_site_type_symbol
 _atom_site_label
 _atom_site_symmetry_multiplicity
 _atom_site_fract_x
 _atom_site_fract_y
 _atom_site_fract_z
 _atom_site_occupancy
  P  P1  1  0.620490  0.098100  0.594100  1
  P  P2  1  0.379510  0.901900  0.405900  1
  P  P3  1  0.938900  0.339400  0.876400  1
  P  P4  1  0.061100  0.660600  0.123600  1
  P  P5  1  0.964500  0.329100  0.864300  1
  P  P6  1  0.035500  0.670900  0.135700  1
  H  H7  1  0.907400  0.418300  0.114800  1
  H  H8  1  0.092600  0.581700  0.885200  1
  H  H9  1  0.991300  0.428900  0.166500  1
  H  H10  1  0.008700  0.571100  0.833500  1
  H  H11  1  0.862000  0.487900  0.206400  1
  H  H12  1  0.138000  0.512100  0.793600  1
  H  H13  1  0.999900  0.162800  0.174100  1
  H  H14  1  0.000100  0.837200  0.825900  1
  H  H15  1  0.076600  0.232900  0.156300  1
  H  H16  1  0.923400  0.767100  0.843700  1
  H  H17  1  0.995800  0.237700  0.097000  1
  H  H18  1  0.004200  0.762300  0.903000  1
  H  H19  1  0.593400  0.717500  0.241900  1
  H  H20  1  0.406600  0.282500  0.758100  1
  H  H21  1  0.725200  0.674900  0.217500  1
  H  H22  1  0.274800  0.325100  0.782500  1
  H  H23  1  0.658900  0.608800  0.190800  1
  H  H24  1  0.341100  0.391200  0.809200  1
  H  H25  1  0.778800  0.570300  0.028600  1
  H  H26  1  0.221200  0.429700  0.971400  1
  H  H27  1  0.855200  0.626100  0.054200  1
  H  H28  1  0.144800  0.373900  0.945800  1
  H  H29  1  0.816800  0.651200  0.966600  1
  H  H30  1  0.183200  0.348800  0.033400  1
  H  H31  1  0.124200  0.447000  0.317200  1
  H  H32  1  0.875800  0.553000  0.682800  1
  H  H33  1  0.243300  0.424200  0.172500  1
  H  H34  1  0.756700  0.575800  0.827500  1
  H  H35  1  0.352500  0.256300  0.109600  1
  H  H36  1  0.647500  0.743700  0.890400  1
  H  H37  1  0.330800  0.124000  0.199200  1
  H  H38  1  0.669200  0.876000  0.800800  1
  H  H39  1  0.221000  0.154200  0.341200  1
  H  H40  1  0.779000  0.845800  0.658800  1
  H  H41  1  0.120000  0.311600  0.400900  1
  H  H42  1  0.880000  0.688400  0.599100  1
  H  H43  1  0.439200  0.899500  0.038800  1
  H  H44  1  0.560800  0.100500  0.961200  1
  H  H45  1  0.356400  0.067200  0.021100  1
  H  H46  1  0.643600  0.932800  0.978900  1
  H  H47  1  0.194800  0.119000  0.990500  1
  H  H48  1  0.805200  0.881000  0.009500  1
  H  H49  1  0.101300  0.006500  0.977500  1
  H  H50  1  0.898700  0.993500  0.022500  1
  H  H51  1  0.181800  0.835700  0.999200  1
  H  H52  1  0.818200  0.164300  0.000800  1
  H  H53  1  0.353400  0.791100  0.032700  1
  H  H54  1  0.646600  0.208900  0.967300  1
  H  H55  1  0.654800  0.275300  0.134500  1.0
  H  H56  1  0.345200  0.724700  0.865500  1.0
  H  H57  1  0.683900  0.387000  0.026700  1.0
  H  H58  1  0.316100  0.613000  0.973300  1.0
  H  H59  1  0.568100  0.551000  0.048400  1.0
  H  H60  1  0.431900  0.449000  0.951600  1.0
  H  H61  1  0.442100  0.115500  0.455900  1.0
  H  H62  1  0.557900  0.884500  0.544100  1.0
  H  H63  1  0.314600  0.109700  0.592900  1.0
  H  H64  1  0.685400  0.890300  0.407100  1.0
  H  H65  1  0.174200  0.252300  0.666400  1.0
  H  H66  1  0.825800  0.747700  0.333600  1.0
  H  H67  1  0.397400  0.688300  0.156600  1.0
  H  H68  1  0.602600  0.311700  0.843400  1.0
  H  H69  1  0.256100  0.730600  0.287500  1.0
  H  H70  1  0.743900  0.269400  0.712500  1.0
  H  H71  1  0.067500  0.585300  0.588300  1.0
  H  H72  1  0.932500  0.414700  0.411700  1.0
  H  H73  1  0.077400  0.444700  0.661600  1.0
  H  H74  1  0.922600  0.555300  0.338400  1.0
  H  H75  1  0.150800  0.729600  0.564900  1.0
  H  H76  1  0.849200  0.270400  0.435100  1.0
  H  H77  1  0.902400  0.955500  0.519600  1.0
  H  H78  1  0.097600  0.044500  0.480400  1.0
  H  H79  1  0.921700  0.866400  0.388700  1.0
  H  H80  1  0.078300  0.133600  0.611300  1.0
  H  H81  1  0.057600  0.711200  0.342500  1.0
  H  H82  1  0.942400  0.288800  0.657500  1.0
  H  H83  1  0.187000  0.862600  0.613900  1.0
  H  H84  1  0.813000  0.137400  0.386100  1.0
  H  H85  1  0.020200  0.062200  0.830600  1.0
  H  H86  1  0.979800  0.937800  0.169400  1.0
  H  H87  1  0.855400  0.076300  0.799800  1.0
  H  H88  1  0.144600  0.923700  0.200200  1.0
  H  H89  1  0.854500  0.982500  0.679600  1.0
  H  H90  1  0.145500  0.017500  0.320400  1.0
  H  H91  1  0.295400  0.803900  0.697600  1.0
  H  H92  1  0.704600  0.196100  0.302400  1.0
  H  H93  1  0.486300  0.083400  0.256100  1.0
  H  H94  1  0.513700  0.916600  0.743900  1.0
  H  H95  1  0.620900  0.929300  0.208100  1.0
  H  H96  1  0.379100  0.070700  0.791900  1.0
  H  H97  1  0.199200  0.094300  0.786900  1.0
  H  H98  1  0.800800  0.905700  0.213100  1.0
  H  H99  1  0.357900  0.563900  0.632000  1.0
  H  H100  1  0.642100  0.436100  0.368000  1.0
  H  H101  1  0.393000  0.666667  0.517600  1.0
  H  H102  1  0.607000  0.333333  0.482400  1.0
  H  H103  1  0.467000  0.395600  0.613000  1.0
  H  H104  1  0.533000  0.604400  0.387000  1.0
  Pt  Pt105  1  0.469469  0.290179  0.324737  1.0
  Pt  Pt106  1  0.530531  0.709821  0.675263  1.0
  C  C107  1  0.916800  0.426100  0.173700  1
  C  C108  1  0.083200  0.573900  0.826300  1
  C  C109  1  0.004500  0.228500  0.156800  1
  C  C110  1  0.995500  0.771500  0.843200  1
  C  C111  1  0.661400  0.676800  0.197500  1
  C  C112  1  0.338600  0.323200  0.802500  1
  C  C113  1  0.794900  0.633400  0.028300  1
  C  C114  1  0.205100  0.366600  0.971700  1
  C  C115  1  0.169800  0.381800  0.291500  1
  C  C116  1  0.830200  0.618200  0.708500  1
  C  C117  1  0.238500  0.368700  0.206200  1
  C  C118  1  0.761500  0.631300  0.793800  1
  C  C119  1  0.303200  0.269200  0.168800  1
  C  C120  1  0.696800  0.730800  0.831200  1
  C  C121  1  0.290900  0.191000  0.223000  1
  C  C122  1  0.709100  0.809000  0.777000  1
  C  C123  1  0.225700  0.208500  0.305800  1
  C  C124  1  0.774300  0.791500  0.694200  1
  C  C125  1  0.166100  0.300900  0.340800  1
  C  C126  1  0.833900  0.699100  0.659200  1
  C  C127  1  0.369700  0.920400  0.027600  1
  C  C128  1  0.630300  0.079600  0.972400  1
  C  C129  1  0.320400  0.020000  0.016000  1
  C  C130  1  0.679600  0.980000  0.984000  1
  C  C131  1  0.225600  0.050500  0.998300  1
  C  C132  1  0.774400  0.949500  0.001700  1
  C  C133  1  0.169600  0.984300  0.990800  1
  C  C134  1  0.830400  0.015700  0.009200  1
  C  C135  1  0.216600  0.884200  0.003300  1
  C  C136  1  0.783400  0.115800  0.996700  1
  C  C137  1  0.320300  0.858400  0.022800  1
  C  C138  1  0.679700  0.141600  0.977200  1
  C  C139  1  0.453100  0.466600  0.231900  1.0
  C  C140  1  0.546900  0.533400  0.768100  1.0
  C  C141  1  0.605300  0.341700  0.144600  1.0
  C  C142  1  0.394700  0.658300  0.855400  1.0
  C  C143  1  0.623600  0.408900  0.079900  1.0
  C  C144  1  0.376400  0.591100  0.920100  1.0
  C  C145  1  0.555400  0.505900  0.092500  1.0
  C  C146  1  0.444600  0.494100  0.907500  1.0
  C  C147  1  0.466200  0.538000  0.171600  1.0
  C  C148  1  0.533800  0.462000  0.828400  1.0
  C  C149  1  0.364400  0.494700  0.313300  1.0
  C  C150  1  0.635600  0.505300  0.686700  1.0
  C  C151  1  0.286200  0.432900  0.444000  1.0
  C  C152  1  0.713800  0.567100  0.556000  1.0
  C  C153  1  0.203100  0.524900  0.476600  1.0
  C  C154  1  0.796900  0.475100  0.523400  1.0
  C  C155  1  0.209700  0.600000  0.419500  1.0
  C  C156  1  0.790300  0.400000  0.580500  1.0
  C  C157  1  0.287300  0.590900  0.337400  1.0
  C  C158  1  0.712700  0.409100  0.662600  1.0
  C  C159  1  0.293600  0.344300  0.489000  1.0
  C  C160  1  0.706400  0.655700  0.511000  1.0
  C  C161  1  0.384600  0.174800  0.484100  1.0
  C  C162  1  0.615400  0.825200  0.515900  1.0
  C  C163  1  0.308100  0.171500  0.566900  1.0
  C  C164  1  0.691900  0.828500  0.433100  1.0
  C  C165  1  0.224800  0.255300  0.610400  1.0
  C  C166  1  0.775200  0.744700  0.389600  1.0
  C  C167  1  0.215400  0.346700  0.570400  1.0
  C  C168  1  0.784600  0.653300  0.429600  1.0
  C  C169  1  0.388900  0.638300  0.196400  1.0
  C  C170  1  0.611100  0.361700  0.803600  1.0
  C  C171  1  0.304500  0.663700  0.274400  1.0
  C  C172  1  0.695500  0.336300  0.725600  1.0
  C  C173  1  0.124700  0.525100  0.562000  1.0
  C  C174  1  0.875300  0.474900  0.438000  1.0
  C  C175  1  0.130900  0.441200  0.605500  1.0
  C  C176  1  0.869100  0.558800  0.394500  1.0
  C  C177  1  0.117300  0.704400  0.450100  1.0
  C  C178  1  0.882700  0.295600  0.549900  1.0
  C  C179  1  0.104900  0.757800  0.528600  1.0
  C  C180  1  0.895100  0.242200  0.471400  1.0
  C  C181  1  0.026300  0.852500  0.554900  1.0
  C  C182  1  0.973700  0.147500  0.445100  1.0
  C  C183  1  0.957400  0.892000  0.502000  1.0
  C  C184  1  0.042600  0.108000  0.498000  1.0
  C  C185  1  0.969100  0.838900  0.424000  1.0
  C  C186  1  0.030900  0.161100  0.576000  1.0
  C  C187  1  0.049000  0.746200  0.396900  1.0
  C  C188  1  0.951000  0.253800  0.603100  1.0
  C  C189  1  0.021600  0.911600  0.634600  1.0
  C  C190  1  0.978400  0.088400  0.365400  1.0
  C  C191  1  0.119300  0.905600  0.652300  1.0
  C  C192  1  0.880700  0.094400  0.347700  1.0
  C  C193  1  0.121700  0.960500  0.724600  1.0
  C  C194  1  0.878300  0.039500  0.275400  1.0
  C  C195  1  0.021100  0.024400  0.780500  1.0
  C  C196  1  0.978900  0.975600  0.219500  1.0
  C  C197  1  0.923000  0.032200  0.762400  1.0
  C  C198  1  0.077000  0.967800  0.237600  1.0
  C  C199  1  0.922300  0.976600  0.690800  1.0
  C  C200  1  0.077700  0.023400  0.309200  1.0
  C  C201  1  0.229000  0.951400  0.737700  1.0
  C  C202  1  0.771000  0.048600  0.262300  1.0
  C  C203  1  0.312400  0.859700  0.715300  1.0
  C  C204  1  0.687600  0.140300  0.284700  1.0
  C  C205  1  0.559900  0.074900  0.255900  1.0
  C  C206  1  0.440100  0.925100  0.744100  1.0
  C  C207  1  0.639100  0.982900  0.228700  1.0
  C  C208  1  0.360900  0.017100  0.771300  1.0
  C  C209  1  0.254400  0.031100  0.768300  1.0
  C  C210  1  0.745600  0.968900  0.231700  1.0
  C  C211  1  0.416000  0.537700  0.578100  1.0
  C  C212  1  0.584000  0.462300  0.421900  1.0
  C  C213  1  0.437000  0.598300  0.510200  1.0
  C  C214  1  0.563000  0.401700  0.489800  1.0
  C  C215  1  0.480600  0.438100  0.566800  1.0
  C  C216  1  0.519400  0.561900  0.433200  1.0
  S  S217  1  0.898050  0.322810  0.234700  1
  S  S218  1  0.101950  0.677190  0.765300  1
  S  S219  1  0.673980  0.729720  0.092840  1
  S  S220  1  0.326020  0.270280  0.907160  1
  N  N221  1  0.520800  0.367800  0.219800  1.0
  N  N222  1  0.479200  0.632200  0.780200  1.0
  N  N223  1  0.362100  0.420900  0.366100  1.0
  N  N224  1  0.637900  0.579100  0.633900  1.0
  N  N225  1  0.377700  0.259500  0.444880  1.0
  N  N226  1  0.622300  0.740500  0.555120  1.0
  N  N227  1  0.584400  0.153500  0.282400  1.0
  N  N228  1  0.415600  0.846500  0.717600  1.0
  O  O229  1  0.790500  0.315600  0.232200  1
  O  O230  1  0.209500  0.684400  0.767800  1
  O  O231  1  0.581300  0.722000  0.060600  1
  O  O232  1  0.418700  0.278000  0.939400  1
  F  F233  1  0.521700  0.055260  0.596300  1
  F  F234  1  0.478300  0.944740  0.403700  1
  F  F235  1  0.721100  0.137300  0.588800  1
  F  F236  1  0.278900  0.862700  0.411200  1
  F  F237  1  0.531400  0.207200  0.608700  1
  F  F238  1  0.468600  0.792800  0.391300  1
  F  F239  1  0.592300  0.101500  0.701700  1
  F  F240  1  0.407700  0.898500  0.298300  1
  F  F241  1  0.697200  0.987900  0.588000  1
  F  F242  1  0.302800  0.012100  0.412000  1
  F  F243  1  0.638900  0.096700  0.492700  1
  F  F244  1  0.361100  0.903300  0.507300  1
  F  F245  1  0.906900  0.261300  0.828300  1
  F  F246  1  0.093100  0.738700  0.171700  1
  F  F247  1  0.965300  0.428500  0.916600  1
  F  F248  1  0.034700  0.571500  0.083400  1
  F  F249  1  0.814300  0.411300  0.901100  1
  F  F250  1  0.185700  0.588700  0.098900  1
  F  F251  1  0.915700  0.291600  0.964800  1
  F  F252  1  0.084300  0.708400  0.035200  1
  F  F253  1  0.065000  0.272400  0.844900  1
  F  F254  1  0.935000  0.727600  0.155100  1
  F  F255  1  0.959800  0.395400  0.791500  1
  F  F256  1  0.040200  0.604600  0.208500  1
  F  F257  1  0.612600  0.155600  0.503100  1
  F  F258  1  0.387400  0.844400  0.496900  1
  F  F259  1  0.949700  0.407600  0.941400  1
  F  F260  1  0.050300  0.592400  0.058600  1
  F  F261  1  0.999000  0.240200  0.790200  1
  F  F262  1  0.001000  0.759800  0.209800  1
  F  F263  1  0.847700  0.318200  0.900200  1
  F  F264  1  0.152300  0.681800  0.099800  1
  F  F265  1  0.010600  0.248400  0.928100  1
  F  F266  1  0.989400  0.751600  0.071900  1
  F  F267  1  0.087100  0.335300  0.825900  1
  F  F268  1  0.912900  0.664700  0.174100  1
  F  F269  1  0.931800  0.400900  0.787100  1
  F  F270  1  0.068200  0.599100  0.212900  1
  F  F271  1  0.540400  0.190400  0.649800  1
  F  F272  1  0.459600  0.809600  0.350200  1
  F  F273  1  0.637300  0.036900  0.671600  1
  F  F274  1  0.362700  0.963100  0.328400  1
  F  F275  1  0.710600  0.004600  0.524200  1
  F  F276  1  0.289400  0.995400  0.475800  1
