# generated using pymatgen
data_P2H67PtC59S5N4O7F12
_symmetry_space_group_name_H-M   'P 1'
_cell_length_a   13.43450000
_cell_length_b   14.14450000
_cell_length_c   15.78400000
_cell_angle_alpha   92.78080000
_cell_angle_beta   108.49570000
_cell_angle_gamma   104.88790000
_symmetry_Int_Tables_number   1
_chemical_formula_structural   P2H67PtC59S5N4O7F12
_chemical_formula_sum   'P4 H134 Pt2 C118 S10 N8 O14 F24'
_cell_volume   2721.13060172
_cell_formula_units_Z   2
loop_
 _symmetry_equiv_pos_site_id
 _symmetry_equiv_pos_as_xyz
  1  'x, y, z'
loop_
 _atom_site_type_symbol
 _atom_site_label
 _atom_site_symmetry_multiplicity
 _atom_site_fract_x
 _atom_site_fract_y
 _atom_site_fract_z
 _atom_site_occupancy
  P  P1  1  0.621300  0.905270  0.376560  1
  P  P2  1  0.378700  0.094730  0.623440  1
  P  P3  1  0.041000  0.350000  0.877200  1
  P  P4  1  0.959000  0.650000  0.122800  1
  H  H5  1  0.385700  0.667900  0.220600  1
  H  H6  1  0.614300  0.332100  0.779400  1
  H  H7  1  0.295400  0.576300  0.151300  1
  H  H8  1  0.704600  0.423700  0.848700  1
  H  H9  1  0.258600  0.662100  0.192000  1
  H  H10  1  0.741400  0.337900  0.808000  1
  H  H11  1  0.183300  0.688900  0.950100  1
  H  H12  1  0.816700  0.311100  0.049900  1
  H  H13  1  0.141300  0.674300  0.034100  1
  H  H14  1  0.858700  0.325700  0.965900  1
  H  H15  1  0.179100  0.588900  0.993900  1
  H  H16  1  0.820900  0.411100  0.006100  1
  H  H17  1  0.412000  0.227900  0.922200  1
  H  H18  1  0.588000  0.772100  0.077800  1
  H  H19  1  0.291300  0.161200  0.910600  1
  H  H20  1  0.708700  0.838800  0.089400  1
  H  H21  1  0.349900  0.138000  0.841500  1
  H  H22  1  0.650100  0.862000  0.158500  1
  H  H23  1  0.324900  0.916500  0.954800  1
  H  H24  1  0.675100  0.083500  0.045200  1
  H  H25  1  0.296200  0.957000  0.859600  1
  H  H26  1  0.703800  0.043000  0.140400  1
  H  H27  1  0.239200  0.980000  0.930000  1
  H  H28  1  0.760800  0.020000  0.070000  1
  H  H29  1  0.122300  0.475000  0.203200  1
  H  H30  1  0.877700  0.525000  0.796800  1
  H  H31  1  0.994400  0.417000  0.162700  1
  H  H32  1  0.005600  0.583000  0.837300  1
  H  H33  1  0.077700  0.388100  0.120100  1
  H  H34  1  0.922300  0.611900  0.879900  1
  H  H35  1  0.990800  0.167200  0.225500  1
  H  H36  1  0.009200  0.832800  0.774500  1
  H  H37  1  0.999900  0.204100  0.133300  1
  H  H38  1  0.000100  0.795900  0.866700  1
  H  H39  1  0.916100  0.233200  0.175200  1
  H  H40  1  0.083900  0.766800  0.824800  1
  H  H41  1  0.641600  0.149000  0.218200  1
  H  H42  1  0.358400  0.851000  0.781800  1
  H  H43  1  0.647100  0.276500  0.130800  1
  H  H44  1  0.352900  0.723500  0.869200  1
  H  H45  1  0.780500  0.428000  0.187700  1
  H  H46  1  0.219500  0.572000  0.812300  1
  H  H47  1  0.908200  0.450300  0.332700  1
  H  H48  1  0.091800  0.549700  0.667300  1
  H  H49  1  0.902200  0.322800  0.419700  1
  H  H50  1  0.097800  0.677200  0.580300  1
  H  H51  1  0.768700  0.171800  0.361000  1
  H  H52  1  0.231300  0.828200  0.639000  1
  H  H53  1  0.679100  0.577500  0.675000  1
  H  H54  1  0.320900  0.422500  0.325000  1
  H  H55  1  0.287700  0.343800  0.360200  1
  H  H56  1  0.712300  0.656200  0.639800  1
  H  H57  1  0.466300  0.373500  0.562300  1
  H  H58  1  0.533700  0.626500  0.437700  1
  H  H59  1  0.365800  0.503300  0.335000  1
  H  H60  1  0.634200  0.496700  0.665000  1
  H  H61  1  0.513100  0.639100  0.400500  1
  H  H62  1  0.486900  0.360900  0.599500  1
  H  H63  1  0.629500  0.660500  0.552500  1
  H  H64  1  0.370500  0.339500  0.447500  1
  H  H65  1  0.177100  0.429500  0.150700  1
  H  H66  1  0.822900  0.570500  0.849300  1
  H  H67  1  0.072700  0.425100  0.180200  1
  H  H68  1  0.927300  0.574900  0.819800  1
  H  H69  1  0.057700  0.365000  0.086400  1
  H  H70  1  0.942300  0.635000  0.913600  1
  H  H71  1  0.988100  0.161500  0.218000  1
  H  H72  1  0.011900  0.838500  0.782000  1
  H  H73  1  0.944300  0.203400  0.125100  1
  H  H74  1  0.055700  0.796600  0.874900  1
  H  H75  1  0.956300  0.263000  0.218300  1
  H  H76  1  0.043700  0.737000  0.781700  1
  H  H77  1  0.487300  0.188000  0.906500  1
  H  H78  1  0.512700  0.812000  0.093500  1
  H  H79  1  0.400700  0.102300  0.828500  1
  H  H80  1  0.599300  0.897700  0.171500  1
  H  H81  1  0.500400  0.078700  0.903200  1
  H  H82  1  0.499600  0.921300  0.096800  1
  H  H83  1  0.258200  0.932200  0.952200  1
  H  H84  1  0.741800  0.067800  0.047800  1
  H  H85  1  0.368000  0.943900  0.929000  1
  H  H86  1  0.632000  0.056100  0.071000  1
  H  H87  1  0.265700  0.969800  0.859800  1
  H  H88  1  0.734300  0.030200  0.140200  1
  H  H89  1  0.471300  0.882700  0.536700  1.0
  H  H90  1  0.528700  0.117300  0.463300  1.0
  H  H91  1  0.342700  0.877800  0.395100  1.0
  H  H92  1  0.657300  0.122200  0.604900  1.0
  H  H93  1  0.198500  0.735100  0.328000  1.0
  H  H94  1  0.801500  0.264900  0.672000  1.0
  H  H95  1  0.685600  0.767800  0.878700  1.0
  H  H96  1  0.314400  0.232200  0.121300  1.0
  H  H97  1  0.722600  0.671600  0.995400  1.0
  H  H98  1  0.277400  0.328400  0.004600  1.0
  H  H99  1  0.610700  0.510500  0.980000  1.0
  H  H100  1  0.389300  0.489500  0.020000  1.0
  H  H101  1  0.099100  0.553600  0.346000  1.0
  H  H102  1  0.900900  0.446400  0.654000  1.0
  H  H103  1  0.092300  0.427900  0.428900  1.0
  H  H104  1  0.907700  0.572100  0.571100  1.0
  H  H105  1  0.290800  0.319300  0.744400  1.0
  H  H106  1  0.709200  0.680700  0.255600  1.0
  H  H107  1  0.435800  0.372000  0.877600  1.0
  H  H108  1  0.564200  0.628000  0.122400  1.0
  H  H109  1  0.172200  0.277900  0.465100  1.0
  H  H110  1  0.827800  0.722100  0.534900  1.0
  H  H111  1  0.920900  0.090400  0.517600  1.0
  H  H112  1  0.079100  0.909600  0.482400  1.0
  H  H113  1  0.950500  0.203000  0.643500  1.0
  H  H114  1  0.049500  0.797000  0.356500  1.0
  H  H115  1  0.095300  0.349900  0.684400  1.0
  H  H116  1  0.904700  0.650100  0.315600  1.0
  H  H117  1  0.192300  0.139700  0.415600  1.0
  H  H118  1  0.807700  0.860300  0.584400  1.0
  H  H119  1  0.002500  0.921200  0.206400  1.0
  H  H120  1  0.997500  0.078800  0.793600  1.0
  H  H121  1  0.850700  0.925300  0.244900  1.0
  H  H122  1  0.149300  0.074700  0.755100  1.0
  H  H123  1  0.866100  0.036000  0.365600  1.0
  H  H124  1  0.133900  0.964000  0.634400  1.0
  H  H125  1  0.282200  0.180200  0.324400  1.0
  H  H126  1  0.717800  0.819800  0.675600  1.0
  H  H127  1  0.532100  0.940900  0.768200  1.0
  H  H128  1  0.467900  0.059100  0.231800  1.0
  H  H129  1  0.662400  0.092800  0.802400  1.0
  H  H130  1  0.337600  0.907200  0.197600  1.0
  H  H131  1  0.175600  0.888600  0.231700  1.0
  H  H132  1  0.824400  0.111400  0.768300  1.0
  H  H133  1  0.809400  0.962700  0.947700  1.0
  H  H134  1  0.190600  0.037300  0.052300  1.0
  H  H135  1  0.891400  0.842100  0.996100  1.0
  H  H136  1  0.108600  0.157900  0.003900  1.0
  H  H137  1  0.917600  0.123300  0.948200  1.0
  H  H138  1  0.082400  0.876700  0.051800  1.0
  Pt  Pt139  1  0.499390  0.732800  0.682842  1.0
  Pt  Pt140  1  0.500610  0.267200  0.317158  1.0
  C  C141  1  0.315100  0.647400  0.171100  1
  C  C142  1  0.684900  0.352600  0.828900  1
  C  C143  1  0.193000  0.661000  0.006600  1
  C  C144  1  0.807000  0.339000  0.993400  1
  C  C145  1  0.361500  0.160900  0.904400  1
  C  C146  1  0.638500  0.839100  0.095600  1
  C  C147  1  0.306800  0.971400  0.923700  1
  C  C148  1  0.693200  0.028600  0.076300  1
  C  C149  1  0.068600  0.410700  0.176100  1
  C  C150  1  0.931400  0.589300  0.823900  1
  C  C151  1  0.988000  0.221500  0.189400  1
  C  C152  1  0.012000  0.778500  0.810600  1
  C  C153  1  0.696200  0.210600  0.241400  1
  C  C154  1  0.303800  0.789400  0.758600  1
  C  C155  1  0.699400  0.286200  0.189800  1
  C  C156  1  0.300600  0.713800  0.810200  1
  C  C157  1  0.778100  0.375700  0.223300  1
  C  C158  1  0.221900  0.624300  0.776700  1
  C  C159  1  0.853600  0.388800  0.309100  1
  C  C160  1  0.146400  0.611200  0.690900  1
  C  C161  1  0.850300  0.313600  0.360500  1
  C  C162  1  0.149700  0.686400  0.639500  1
  C  C163  1  0.771000  0.224300  0.325700  1
  C  C164  1  0.229000  0.775700  0.674300  1
  C  C165  1  0.565100  0.516700  0.574600  1
  C  C166  1  0.434900  0.483300  0.425400  1
  C  C167  1  0.476600  0.429500  0.531700  1
  C  C168  1  0.523400  0.570500  0.468300  1
  C  C169  1  0.407200  0.427400  0.446500  1
  C  C170  1  0.592800  0.572600  0.553500  1
  C  C171  1  0.416000  0.506900  0.393900  1
  C  C172  1  0.584000  0.493100  0.606100  1
  C  C173  1  0.500900  0.586500  0.434600  1
  C  C174  1  0.499100  0.413500  0.565400  1
  C  C175  1  0.575400  0.599300  0.525700  1
  C  C176  1  0.424600  0.400700  0.474300  1
  C  C177  1  0.448000  0.117000  0.892000  1
  C  C178  1  0.552000  0.883000  0.108000  1
  C  C179  1  0.106000  0.387000  0.149000  1
  C  C180  1  0.894000  0.613000  0.851000  1
  C  C181  1  0.887000  0.977900  0.968700  1.0
  C  C182  1  0.113000  0.022100  0.031300  1.0
  C  C183  1  0.935800  0.906900  0.998000  1.0
  C  C184  1  0.064200  0.093100  0.002000  1.0
  C  C185  1  0.950900  0.073300  0.969500  1.0
  C  C186  1  0.049100  0.926700  0.030500  1.0
  C  C187  1  0.319200  0.664500  0.516000  1.0
  C  C188  1  0.680800  0.335500  0.484000  1.0
  C  C189  1  0.412200  0.824400  0.511000  1.0
  C  C190  1  0.587800  0.175600  0.489000  1.0
  C  C191  1  0.335500  0.821500  0.425600  1.0
  C  C192  1  0.664500  0.178500  0.574400  1.0
  C  C193  1  0.250100  0.737500  0.386000  1.0
  C  C194  1  0.749900  0.262500  0.614000  1.0
  C  C195  1  0.240400  0.655300  0.432700  1.0
  C  C196  1  0.759600  0.344700  0.567300  1.0
  C  C197  1  0.314900  0.584900  0.567800  1.0
  C  C198  1  0.685100  0.415100  0.432200  1.0
  C  C199  1  0.396900  0.540700  0.705300  1.0
  C  C200  1  0.603100  0.459300  0.294700  1.0
  C  C201  1  0.320900  0.446500  0.685900  1.0
  C  C202  1  0.679100  0.553500  0.314100  1.0
  C  C203  1  0.239500  0.429600  0.600200  1.0
  C  C204  1  0.760500  0.570400  0.399800  1.0
  C  C205  1  0.232500  0.493600  0.539500  1.0
  C  C206  1  0.767500  0.506400  0.460500  1.0
  C  C207  1  0.487900  0.572700  0.788600  1.0
  C  C208  1  0.512100  0.427300  0.211400  1.0
  C  C209  1  0.639100  0.702700  0.872000  1.0
  C  C210  1  0.360900  0.297300  0.128000  1.0
  C  C211  1  0.661400  0.645000  0.941700  1.0
  C  C212  1  0.338600  0.355000  0.058300  1.0
  C  C213  1  0.595200  0.549700  0.933000  1.0
  C  C214  1  0.404800  0.450300  0.067000  1.0
  C  C215  1  0.505100  0.512100  0.853900  1.0
  C  C216  1  0.494900  0.487900  0.146100  1.0
  C  C217  1  0.155000  0.562200  0.403000  1.0
  C  C218  1  0.845000  0.437800  0.597000  1.0
  C  C219  1  0.150800  0.487000  0.452300  1.0
  C  C220  1  0.849200  0.513000  0.547700  1.0
  C  C221  1  0.339500  0.383900  0.754100  1.0
  C  C222  1  0.660500  0.616100  0.245900  1.0
  C  C223  1  0.426800  0.415800  0.833800  1.0
  C  C224  1  0.573200  0.584200  0.166200  1.0
  C  C225  1  0.146200  0.328000  0.576700  1.0
  C  C226  1  0.853800  0.672000  0.423300  1.0
  C  C227  1  0.127900  0.262100  0.501800  1.0
  C  C228  1  0.872100  0.737900  0.498200  1.0
  C  C229  1  0.044300  0.171700  0.479600  1.0
  C  C230  1  0.955700  0.828300  0.520400  1.0
  C  C231  1  0.978400  0.150500  0.532500  1.0
  C  C232  1  0.021600  0.849500  0.467500  1.0
  C  C233  1  0.996600  0.217700  0.608100  1.0
  C  C234  1  0.003400  0.782300  0.391900  1.0
  C  C235  1  0.081500  0.305800  0.631900  1.0
  C  C236  1  0.918500  0.694200  0.368100  1.0
  C  C237  1  0.031200  0.099300  0.402800  1.0
  C  C238  1  0.968800  0.900700  0.597200  1.0
  C  C239  1  0.122600  0.096800  0.380100  1.0
  C  C240  1  0.877400  0.903200  0.619900  1.0
  C  C241  1  0.114100  0.032200  0.305600  1.0
  C  C242  1  0.885900  0.967800  0.694400  1.0
  C  C243  1  0.010400  0.966900  0.255900  1.0
  C  C244  1  0.989600  0.033100  0.744100  1.0
  C  C245  1  0.920300  0.969400  0.279100  1.0
  C  C246  1  0.079700  0.030600  0.720900  1.0
  C  C247  1  0.929400  0.034900  0.351200  1.0
  C  C248  1  0.070600  0.965100  0.648800  1.0
  C  C249  1  0.212400  0.034400  0.283100  1.0
  C  C250  1  0.787600  0.965600  0.716900  1.0
  C  C251  1  0.293500  0.122800  0.299900  1.0
  C  C252  1  0.706500  0.877200  0.700100  1.0
  C  C253  1  0.597500  0.947300  0.754800  1.0
  C  C254  1  0.402500  0.052700  0.245200  1.0
  C  C255  1  0.674600  0.037500  0.775000  1.0
  C  C256  1  0.325400  0.962500  0.225000  1.0
  C  C257  1  0.228800  0.951300  0.244400  1.0
  C  C258  1  0.771200  0.048700  0.755600  1.0
  S  S259  1  0.325400  0.712600  0.079800  1
  S  S260  1  0.674600  0.287400  0.920200  1
  S  S261  1  0.416700  0.082900  0.972800  1
  S  S262  1  0.583300  0.917100  0.027200  1
  S  S263  1  0.088500  0.327000  0.249700  1
  S  S264  1  0.911500  0.673000  0.750300  1
  S  S265  1  0.352600  0.081900  0.972400  1
  S  S266  1  0.647400  0.918100  0.027600  1
  S  S267  1  0.124000  0.287600  0.201900  1
  S  S268  1  0.876000  0.712400  0.798100  1
  N  N269  1  0.404900  0.750200  0.555900  1.0
  N  N270  1  0.595100  0.249800  0.444100  1.0
  N  N271  1  0.393300  0.605400  0.648800  1.0
  N  N272  1  0.606700  0.394600  0.351200  1.0
  N  N273  1  0.553600  0.666800  0.796900  1.0
  N  N274  1  0.446400  0.333200  0.203100  1.0
  N  N275  1  0.612300  0.867700  0.716600  1.0
  N  N276  1  0.387700  0.132300  0.283400  1.0
  O  O277  1  0.392800  0.672800  0.035000  1
  O  O278  1  0.607200  0.327200  0.965000  1
  O  O279  1  0.416300  0.104100  0.061800  1
  O  O280  1  0.583700  0.895900  0.938200  1
  O  O281  1  0.196600  0.314100  0.249800  1
  O  O282  1  0.803400  0.685900  0.750200  1
  O  O283  1  0.632300  0.521800  0.659100  1
  O  O284  1  0.367700  0.478200  0.340900  1
  O  O285  1  0.326900  0.340600  0.412700  1
  O  O286  1  0.673100  0.659400  0.587300  1
  O  O287  1  0.388000  0.079000  0.069000  1
  O  O288  1  0.612000  0.921000  0.931000  1
  O  O289  1  0.197000  0.315200  0.297700  1
  O  O290  1  0.803000  0.684800  0.702300  1
  F  F291  1  0.517000  0.827400  0.306500  1
  F  F292  1  0.483000  0.172600  0.693500  1
  F  F293  1  0.626000  0.976700  0.301500  1
  F  F294  1  0.374000  0.023300  0.698500  1
  F  F295  1  0.540600  0.958000  0.404200  1
  F  F296  1  0.459400  0.042000  0.595800  1
  F  F297  1  0.615700  0.836000  0.451200  1
  F  F298  1  0.384300  0.164000  0.548800  1
  F  F299  1  0.698700  0.855700  0.347300  1
  F  F300  1  0.301300  0.144300  0.652700  1
  F  F301  1  0.724000  0.984500  0.446300  1
  F  F302  1  0.276000  0.015500  0.553700  1
  F  F303  1  0.928900  0.276500  0.828600  1
  F  F304  1  0.071100  0.723500  0.171400  1
  F  F305  1  0.102700  0.281800  0.849300  1
  F  F306  1  0.897300  0.718200  0.150700  1
  F  F307  1  0.032800  0.408900  0.799300  1
  F  F308  1  0.967200  0.591100  0.200700  1
  F  F309  1  0.996700  0.425900  0.921100  1
  F  F310  1  0.003300  0.574100  0.078900  1
  F  F311  1  0.062600  0.323300  0.966100  1
  F  F312  1  0.937400  0.676700  0.033900  1
  F  F313  1  0.157700  0.429100  0.915400  1
  F  F314  1  0.842300  0.570900  0.084600  1
