# generated using pymatgen
data_P2H52PtC58S2N4(OF4)3
_symmetry_space_group_name_H-M   'P 1'
_cell_length_a   11.80590000
_cell_length_b   14.70760000
_cell_length_c   16.80960000
_cell_angle_alpha   98.03500000
_cell_angle_beta   106.94100000
_cell_angle_gamma   91.08460000
_symmetry_Int_Tables_number   1
_chemical_formula_structural   P2H52PtC58S2N4(OF4)3
_chemical_formula_sum   'P4 H104 Pt2 C116 S4 N8 O6 F24'
_cell_volume   2759.20131703
_cell_formula_units_Z   2
loop_
 _symmetry_equiv_pos_site_id
 _symmetry_equiv_pos_as_xyz
  1  'x, y, z'
loop_
 _atom_site_type_symbol
 _atom_site_label
 _atom_site_symmetry_multiplicity
 _atom_site_fract_x
 _atom_site_fract_y
 _atom_site_fract_z
 _atom_site_occupancy
  P  P1  1  0.500000  0.500000  0.000000  1
  P  P2  1  0.000000  0.500000  0.500000  1
  P  P3  1  0.017900  0.863600  0.284300  1
  P  P4  1  0.982100  0.136400  0.715700  1
  H  H5  1  0.049600  0.280900  0.317100  1
  H  H6  1  0.950400  0.719100  0.682900  1
  H  H7  1  0.998500  0.327700  0.234500  1
  H  H8  1  0.001500  0.672300  0.765500  1
  H  H9  1  0.094300  0.383800  0.315400  1
  H  H10  1  0.905700  0.616200  0.684600  1
  H  H11  1  0.169300  0.135400  0.167100  1
  H  H12  1  0.830700  0.864600  0.832900  1
  H  H13  1  0.041300  0.176000  0.152800  1
  H  H14  1  0.958700  0.824000  0.847200  1
  H  H15  1  0.102900  0.135700  0.237600  1
  H  H16  1  0.897100  0.864300  0.762400  1
  H  H17  1  0.845700  0.388200  0.933300  1
  H  H18  1  0.154300  0.611800  0.066700  1
  H  H19  1  0.911700  0.327400  0.875900  1
  H  H20  1  0.088300  0.672600  0.124100  1
  H  H21  1  0.971200  0.424800  0.927700  1
  H  H22  1  0.028800  0.575200  0.072300  1
  H  H23  1  0.167700  0.353800  0.987500  1
  H  H24  1  0.832300  0.646200  0.012500  1
  H  H25  1  0.113400  0.254700  0.936900  1
  H  H26  1  0.886600  0.745300  0.063100  1
  H  H27  1  0.183100  0.266000  0.035300  1
  H  H28  1  0.816900  0.734000  0.964700  1
  H  H29  1  0.267100  0.781100  0.199500  1
  H  H30  1  0.732900  0.218900  0.800500  1
  H  H31  1  0.366200  0.885200  0.316000  1
  H  H32  1  0.633800  0.114800  0.684000  1
  H  H33  1  0.563900  0.928500  0.341600  1
  H  H34  1  0.436100  0.071500  0.658400  1
  H  H35  1  0.669500  0.862200  0.252700  1
  H  H36  1  0.330500  0.137800  0.747300  1
  H  H37  1  0.571500  0.755600  0.135800  1
  H  H38  1  0.428500  0.244400  0.864200  1
  H  H39  1  0.370000  0.714000  0.107500  1
  H  H40  1  0.630000  0.286000  0.892500  1
  H  H41  1  0.449100  0.293300  0.173400  1
  H  H42  1  0.550900  0.706700  0.826600  1
  H  H43  1  0.440500  0.263300  0.032300  1
  H  H44  1  0.559500  0.736700  0.967700  1
  H  H45  1  0.411700  0.116800  0.963100  1
  H  H46  1  0.588300  0.883200  0.036900  1
  H  H47  1  0.413700  0.991500  0.037000  1
  H  H48  1  0.586300  0.008500  0.963000  1
  H  H49  1  0.422000  0.019200  0.177200  1
  H  H50  1  0.578000  0.980800  0.822800  1
  H  H51  1  0.439000  0.168100  0.244500  1
  H  H52  1  0.561000  0.831900  0.755500  1
  H  H53  1  0.905900  0.706700  0.420400  1.0
  H  H54  1  0.094100  0.293300  0.579600  1.0
  H  H55  1  0.023800  0.820200  0.524100  1.0
  H  H56  1  0.976200  0.179800  0.475900  1.0
  H  H57  1  0.941200  0.921100  0.608400  1.0
  H  H58  1  0.058800  0.078900  0.391600  1.0
  H  H59  1  0.477900  0.502700  0.191400  1.0
  H  H60  1  0.522100  0.497300  0.808600  1.0
  H  H61  1  0.281300  0.444100  0.140800  1.0
  H  H62  1  0.718700  0.555900  0.859200  1.0
  H  H63  1  0.143500  0.488700  0.211200  1.0
  H  H64  1  0.856500  0.511300  0.788800  1.0
  H  H65  1  0.744200  0.966100  0.646700  1.0
  H  H66  1  0.255800  0.033900  0.353300  1.0
  H  H67  1  0.547200  0.937400  0.625200  1.0
  H  H68  1  0.452800  0.062600  0.374800  1.0
  H  H69  1  0.169000  0.712700  0.447800  1.0
  H  H70  1  0.831000  0.287300  0.552200  1.0
  H  H71  1  0.104000  0.598400  0.336900  1.0
  H  H72  1  0.896000  0.401600  0.663100  1.0
  H  H73  1  0.353200  0.749900  0.640500  1.0
  H  H74  1  0.646800  0.250100  0.359500  1.0
  H  H75  1  0.163900  0.958000  0.707800  1.0
  H  H76  1  0.836100  0.042000  0.292200  1.0
  H  H77  1  0.174800  0.025200  0.592700  1.0
  H  H78  1  0.825200  0.974800  0.407300  1.0
  H  H79  1  0.270400  0.953500  0.499300  1.0
  H  H80  1  0.729600  0.046500  0.500700  1.0
  H  H81  1  0.236200  0.668800  0.689200  1.0
  H  H82  1  0.763800  0.331200  0.310800  1.0
  H  H83  1  0.241800  0.668700  0.929500  1.0
  H  H84  1  0.758200  0.331300  0.070500  1.0
  H  H85  1  0.249500  0.827600  0.951500  1.0
  H  H86  1  0.750500  0.172400  0.048500  1.0
  H  H87  1  0.253200  0.910200  0.843000  1.0
  H  H88  1  0.746800  0.089800  0.157000  1.0
  H  H89  1  0.332000  0.539900  0.714100  1.0
  H  H90  1  0.668000  0.460100  0.285900  1.0
  H  H91  1  0.209000  0.297200  0.740100  1.0
  H  H92  1  0.791000  0.702800  0.259900  1.0
  H  H93  1  0.102700  0.366300  0.825700  1.0
  H  H94  1  0.897300  0.633700  0.174300  1.0
  H  H95  1  0.114900  0.526900  0.859200  1.0
  H  H96  1  0.885100  0.473100  0.140800  1.0
  H  H97  1  0.422800  0.342200  0.342500  1.0
  H  H98  1  0.577200  0.657800  0.657500  1.0
  H  H99  1  0.668800  0.469000  0.456900  1.0
  H  H100  1  0.331200  0.531000  0.543100  1.0
  H  H101  1  0.680500  0.581600  0.571900  1.0
  H  H102  1  0.319500  0.418400  0.428100  1.0
  H  H103  1  0.197000  0.963400  0.044300  1.0
  H  H104  1  0.803000  0.036600  0.955700  1.0
  H  H105  1  0.135600  0.050000  0.933800  1.0
  H  H106  1  0.864400  0.950000  0.066200  1.0
  H  H107  1  0.939000  0.082400  0.890600  1.0
  H  H108  1  0.061000  0.917600  0.109400  1.0
  Pt  Pt109  1  0.623620  0.650690  0.351550  1.0
  Pt  Pt110  1  0.376380  0.349310  0.648450  1.0
  C  C111  1  0.068800  0.322900  0.281800  1
  C  C112  1  0.931200  0.677100  0.718200  1
  C  C113  1  0.117000  0.169400  0.194700  1
  C  C114  1  0.883000  0.830600  0.805300  1
  C  C115  1  0.923100  0.370100  0.928300  1
  C  C116  1  0.076900  0.629900  0.071700  1
  C  C117  1  0.129900  0.295200  0.991000  1
  C  C118  1  0.870100  0.704800  0.009000  1
  C  C119  1  0.349000  0.797200  0.210100  1
  C  C120  1  0.651000  0.202800  0.789900  1
  C  C121  1  0.407500  0.859000  0.278500  1
  C  C122  1  0.592500  0.141000  0.721500  1
  C  C123  1  0.525000  0.884200  0.294200  1
  C  C124  1  0.475000  0.115800  0.705800  1
  C  C125  1  0.587600  0.845500  0.241400  1
  C  C126  1  0.412400  0.154500  0.758600  1
  C  C127  1  0.529300  0.782400  0.172500  1
  C  C128  1  0.470700  0.217600  0.827500  1
  C  C129  1  0.409800  0.757400  0.155400  1
  C  C130  1  0.590200  0.242600  0.844600  1
  C  C131  1  0.441100  0.231900  0.145000  1
  C  C132  1  0.558900  0.768100  0.855000  1
  C  C133  1  0.434800  0.213800  0.061900  1
  C  C134  1  0.565200  0.786200  0.938100  1
  C  C135  1  0.420700  0.127800  0.021800  1
  C  C136  1  0.579300  0.872200  0.978200  1
  C  C137  1  0.419000  0.052700  0.065200  1
  C  C138  1  0.581000  0.947300  0.934800  1
  C  C139  1  0.425000  0.068900  0.147300  1
  C  C140  1  0.575000  0.931100  0.852700  1
  C  C141  1  0.435400  0.157000  0.186800  1
  C  C142  1  0.564600  0.843000  0.813200  1
  C  C143  1  0.702400  0.795500  0.490400  1.0
  C  C144  1  0.297600  0.204500  0.509600  1.0
  C  C145  1  0.870000  0.747500  0.453400  1.0
  C  C146  1  0.130000  0.252500  0.546600  1.0
  C  C147  1  0.940800  0.815200  0.516200  1.0
  C  C148  1  0.059200  0.184800  0.483800  1.0
  C  C149  1  0.892800  0.874500  0.566900  1.0
  C  C150  1  0.107200  0.125500  0.433100  1.0
  C  C151  1  0.769500  0.864100  0.555200  1.0
  C  C152  1  0.230500  0.135900  0.444800  1.0
  C  C153  1  0.581200  0.778900  0.478600  1.0
  C  C154  1  0.418800  0.221100  0.521400  1.0
  C  C155  1  0.415800  0.685900  0.397400  1.0
  C  C156  1  0.584200  0.314100  0.602600  1.0
  C  C157  1  0.345100  0.728500  0.445300  1.0
  C  C158  1  0.654900  0.271500  0.554700  1.0
  C  C159  1  0.399600  0.798300  0.506700  1.0
  C  C160  1  0.600400  0.201700  0.493300  1.0
  C  C161  1  0.517900  0.828900  0.526500  1.0
  C  C162  1  0.482100  0.171100  0.473500  1.0
  C  C163  1  0.375600  0.615000  0.328800  1.0
  C  C164  1  0.624400  0.385000  0.671200  1.0
  C  C165  1  0.422900  0.523500  0.220400  1.0
  C  C166  1  0.577100  0.476500  0.779600  1.0
  C  C167  1  0.305200  0.488100  0.190500  1.0
  C  C168  1  0.694800  0.511900  0.809500  1.0
  C  C169  1  0.222500  0.515200  0.231000  1.0
  C  C170  1  0.777500  0.484800  0.769000  1.0
  C  C171  1  0.258800  0.583100  0.302100  1.0
  C  C172  1  0.741200  0.416900  0.697900  1.0
  C  C173  1  0.703100  0.917500  0.603900  1.0
  C  C174  1  0.296900  0.082500  0.396100  1.0
  C  C175  1  0.585800  0.900900  0.591100  1.0
  C  C176  1  0.414200  0.099100  0.408900  1.0
  C  C177  1  0.222400  0.689800  0.418200  1.0
  C  C178  1  0.777600  0.310200  0.581800  1.0
  C  C179  1  0.184100  0.622000  0.351900  1.0
  C  C180  1  0.815900  0.378000  0.648100  1.0
  C  C181  1  0.325300  0.846400  0.562000  1.0
  C  C182  1  0.674700  0.153600  0.438000  1.0
  C  C183  1  0.316300  0.805800  0.630500  1.0
  C  C184  1  0.683700  0.194200  0.369500  1.0
  C  C185  1  0.254100  0.845400  0.685100  1.0
  C  C186  1  0.745900  0.154600  0.314900  1.0
  C  C187  1  0.203500  0.928600  0.670500  1.0
  C  C188  1  0.796500  0.071400  0.329500  1.0
  C  C189  1  0.210300  0.968700  0.602200  1.0
  C  C190  1  0.789700  0.031300  0.397800  1.0
  C  C191  1  0.269000  0.926700  0.547300  1.0
  C  C192  1  0.731000  0.073300  0.452700  1.0
  C  C193  1  0.246200  0.797900  0.754700  1.0
  C  C194  1  0.753800  0.202100  0.245300  1.0
  C  C195  1  0.238900  0.701500  0.742700  1.0
  C  C196  1  0.761100  0.298500  0.257300  1.0
  C  C197  1  0.235600  0.652500  0.806600  1.0
  C  C198  1  0.764400  0.347500  0.193400  1.0
  C  C199  1  0.241600  0.701200  0.884400  1.0
  C  C200  1  0.758400  0.298800  0.115600  1.0
  C  C201  1  0.247200  0.795700  0.897800  1.0
  C  C202  1  0.752800  0.204300  0.102200  1.0
  C  C203  1  0.249500  0.844800  0.833400  1.0
  C  C204  1  0.750500  0.155200  0.166600  1.0
  C  C205  1  0.225200  0.550600  0.790000  1.0
  C  C206  1  0.774800  0.449400  0.210000  1.0
  C  C207  1  0.285200  0.504800  0.737700  1.0
  C  C208  1  0.714800  0.495200  0.262300  1.0
  C  C209  1  0.212500  0.362400  0.752600  1.0
  C  C210  1  0.787500  0.637600  0.247400  1.0
  C  C211  1  0.150000  0.403000  0.803800  1.0
  C  C212  1  0.850000  0.597000  0.196200  1.0
  C  C213  1  0.156900  0.498000  0.823200  1.0
  C  C214  1  0.843100  0.502000  0.176800  1.0
  C  C215  1  0.493900  0.431800  0.431900  1.0
  C  C216  1  0.506100  0.568200  0.568100  1.0
  C  C217  1  0.600200  0.481200  0.474300  1.0
  C  C218  1  0.399800  0.518800  0.525700  1.0
  C  C219  1  0.606900  0.548500  0.542400  1.0
  C  C220  1  0.393100  0.451500  0.457600  1.0
  C  C221  1  0.117000  0.979200  0.026000  1.0
  C  C222  1  0.883000  0.020800  0.974000  1.0
  C  C223  1  0.081000  0.029500  0.960500  1.0
  C  C224  1  0.919000  0.970500  0.039500  1.0
  C  C225  1  0.965000  0.048500  0.936100  1.0
  C  C226  1  0.035000  0.951500  0.063900  1.0
  S  S227  1  0.185000  0.279820  0.242810  1
  S  S228  1  0.815000  0.720180  0.757190  1
  S  S229  1  0.996300  0.315370  0.014840  1
  S  S230  1  0.003700  0.684630  0.985160  1
  N  N231  1  0.753700  0.739800  0.439500  1.0
  N  N232  1  0.246300  0.260200  0.560500  1.0
  N  N233  1  0.528900  0.713000  0.416900  1.0
  N  N234  1  0.471100  0.287000  0.583100  1.0
  N  N235  1  0.458100  0.585300  0.288500  1.0
  N  N236  1  0.541900  0.414700  0.711500  1.0
  N  N237  1  0.278800  0.413100  0.719600  1.0
  N  N238  1  0.721200  0.586900  0.280400  1.0
  O  O239  1  0.285400  0.265900  0.318900  1
  O  O240  1  0.714600  0.734100  0.681100  1
  O  O241  1  0.025200  0.389800  0.090300  1
  O  O242  1  0.974800  0.610200  0.909700  1
  O  O243  1  0.491600  0.367300  0.363700  1.0
  O  O244  1  0.508400  0.632700  0.636300  1.0
  F  F245  1  0.002600  0.768800  0.315100  1
  F  F246  1  0.997400  0.231200  0.684900  1
  F  F247  1  0.882300  0.860700  0.237200  1
  F  F248  1  0.117700  0.139300  0.762800  1
  F  F249  1  0.037000  0.808500  0.207200  1
  F  F250  1  0.963000  0.191500  0.792800  1
  F  F251  1  0.156700  0.868500  0.331400  1
  F  F252  1  0.843300  0.131500  0.668600  1
  F  F253  1  0.998500  0.911600  0.368500  1
  F  F254  1  0.001500  0.088400  0.631500  1
  F  F255  1  0.031400  0.960600  0.260800  1
  F  F256  1  0.968600  0.039400  0.739200  1
  F  F257  1  0.511600  0.430300  0.065800  1.0
  F  F258  1  0.488400  0.569700  0.934200  1.0
  F  F259  1  0.375300  0.529100  0.012100  1.0
  F  F260  1  0.624700  0.470900  0.987900  1.0
  F  F261  1  0.565600  0.578000  0.076000  1.0
  F  F262  1  0.434400  0.422000  0.924000  1.0
  F  F263  1  0.919500  0.407600  0.462400  1.0
  F  F264  1  0.080500  0.592400  0.537600  1.0
  F  F265  1  0.963500  0.532500  0.409400  1.0
  F  F266  1  0.036500  0.467500  0.590600  1.0
  F  F267  1  0.109900  0.451000  0.480200  1.0
  F  F268  1  0.890100  0.549000  0.519800  1.0
