# generated using pymatgen
data_P4H114Pt2C127S4I2N8(OF6)4
_symmetry_space_group_name_H-M   'P 1'
_cell_length_a   13.98840000
_cell_length_b   14.12740000
_cell_length_c   29.34500000
_cell_angle_alpha   90.08800000
_cell_angle_beta   92.78200000
_cell_angle_gamma   105.68200000
_symmetry_Int_Tables_number   1
_chemical_formula_structural   P4H114Pt2C127S4I2N8(OF6)4
_chemical_formula_sum   'P8 H228 Pt4 C254 S8 I4 N16 O8 F48'
_cell_volume   5576.05938872
_cell_formula_units_Z   2
loop_
 _symmetry_equiv_pos_site_id
 _symmetry_equiv_pos_as_xyz
  1  'x, y, z'
loop_
 _atom_site_type_symbol
 _atom_site_label
 _atom_site_symmetry_multiplicity
 _atom_site_fract_x
 _atom_site_fract_y
 _atom_site_fract_z
 _atom_site_occupancy
  P  P1  1  0.956800  0.862300  0.204280  1
  P  P2  1  0.043200  0.137700  0.795720  1
  P  P3  1  0.608900  0.964200  0.309990  1
  P  P4  1  0.391100  0.035800  0.690010  1
  P  P5  1  0.781700  0.791900  0.542330  1
  P  P6  1  0.218300  0.208100  0.457670  1
  P  P7  1  0.347800  0.621900  0.075320  1
  P  P8  1  0.652200  0.378100  0.924680  1
  H  H9  1  0.702800  0.238200  0.087700  1
  H  H10  1  0.297200  0.761800  0.912300  1
  H  H11  1  0.710300  0.366800  0.035600  1
  H  H12  1  0.289700  0.633200  0.964400  1
  H  H13  1  0.811800  0.526700  0.048100  1
  H  H14  1  0.188200  0.473300  0.951900  1
  H  H15  1  0.824000  0.040800  0.246000  1
  H  H16  1  0.176000  0.959200  0.754000  1
  H  H17  1  0.905000  0.018100  0.313600  1
  H  H18  1  0.095000  0.981900  0.686400  1
  H  H19  1  0.027800  0.142700  0.347700  1
  H  H20  1  0.972200  0.857300  0.652300  1
  H  H21  1  0.966300  0.632300  0.096000  1
  H  H22  1  0.033700  0.367700  0.904000  1
  H  H23  1  0.080800  0.650200  0.155500  1
  H  H24  1  0.919200  0.349800  0.844500  1
  H  H25  1  0.181600  0.468200  0.302300  1
  H  H26  1  0.818400  0.531800  0.697700  1
  H  H27  1  0.138800  0.327200  0.342100  1
  H  H28  1  0.861200  0.672800  0.657900  1
  H  H29  1  0.095500  0.634200  0.289700  1
  H  H30  1  0.904500  0.365800  0.710300  1
  H  H31  1  0.354900  0.843300  0.270200  1
  H  H32  1  0.645100  0.156700  0.729800  1
  H  H33  1  0.382300  0.750600  0.209100  1
  H  H34  1  0.617700  0.249400  0.790900  1
  H  H35  1  0.266100  0.602100  0.185700  1
  H  H36  1  0.733900  0.397900  0.814300  1
  H  H37  1  0.048700  0.771600  0.310700  1
  H  H38  1  0.951300  0.228400  0.689300  1
  H  H39  1  0.140600  0.959100  0.417400  1
  H  H40  1  0.859400  0.040900  0.582600  1
  H  H41  1  0.303700  0.964300  0.405300  1
  H  H42  1  0.696300  0.035700  0.594700  1
  H  H43  1  0.341400  0.871900  0.347000  1
  H  H44  1  0.658600  0.128100  0.653000  1
  H  H45  1  0.919300  0.717200  0.347500  1
  H  H46  1  0.080700  0.282800  0.652500  1
  H  H47  1  0.707300  0.823400  0.395900  1
  H  H48  1  0.292700  0.176600  0.604100  1
  H  H49  1  0.825900  0.961300  0.422500  1
  H  H50  1  0.174100  0.038700  0.577500  1
  H  H51  1  0.993400  0.985400  0.408000  1
  H  H52  1  0.006600  0.014600  0.592000  1
  H  H53  1  0.742800  0.796800  0.272800  1
  H  H54  1  0.257200  0.203200  0.727200  1
  H  H55  1  0.669400  0.807900  0.199800  1
  H  H56  1  0.330600  0.192100  0.800200  1
  H  H57  1  0.542500  0.680800  0.170000  1
  H  H58  1  0.457500  0.319200  0.830000  1
  H  H59  1  0.797200  0.639800  0.452700  1
  H  H60  1  0.202800  0.360200  0.547300  1
  H  H61  1  0.783600  0.530200  0.512200  1
  H  H62  1  0.216400  0.469800  0.487800  1
  H  H63  1  0.675800  0.371200  0.504200  1
  H  H64  1  0.324200  0.628800  0.495800  1
  H  H65  1  0.433000  0.501900  0.178400  1
  H  H66  1  0.567000  0.498100  0.821600  1
  H  H67  1  0.388500  0.362300  0.221500  1
  H  H68  1  0.611500  0.637700  0.778500  1
  H  H69  1  0.457300  0.211100  0.384100  1
  H  H70  1  0.542700  0.788900  0.615900  1
  H  H71  1  0.546900  0.247800  0.451100  1
  H  H72  1  0.453100  0.752200  0.548900  1
  H  H73  1  0.453400  0.210600  0.239800  1
  H  H74  1  0.546600  0.789400  0.760200  1
  H  H75  1  0.204500  0.999700  0.265600  1
  H  H76  1  0.795500  0.000300  0.734400  1
  H  H77  1  0.183200  0.093000  0.330100  1
  H  H78  1  0.816800  0.907000  0.669900  1
  H  H79  1  0.298200  0.241900  0.347600  1
  H  H80  1  0.701800  0.758100  0.652400  1
  H  H81  1  0.502400  0.080500  0.216000  1
  H  H82  1  0.497600  0.919500  0.784000  1
  H  H83  1  0.402400  0.887000  0.110300  1
  H  H84  1  0.597600  0.113000  0.889700  1
  H  H85  1  0.240200  0.871100  0.132200  1
  H  H86  1  0.759800  0.128900  0.867800  1
  H  H87  1  0.206200  0.962900  0.189200  1
  H  H88  1  0.793800  0.037100  0.810800  1
  H  H89  1  0.625600  0.137300  0.173400  1
  H  H90  1  0.374400  0.862700  0.826600  1
  H  H91  1  0.842100  0.028800  0.134200  1
  H  H92  1  0.157900  0.971200  0.865800  1
  H  H93  1  0.728000  0.888500  0.108500  1
  H  H94  1  0.272000  0.111500  0.891500  1
  H  H95  1  0.561500  0.864100  0.119300  1
  H  H96  1  0.438500  0.135900  0.880700  1
  H  H97  1  0.889200  0.621500  0.250300  1
  H  H98  1  0.110800  0.378500  0.749700  1
  H  H99  1  0.796500  0.617900  0.180700  1
  H  H100  1  0.203500  0.382100  0.819300  1
  H  H101  1  0.670700  0.484000  0.156000  1
  H  H102  1  0.329300  0.516000  0.844000  1
  H  H103  1  0.642100  0.332100  0.193200  1
  H  H104  1  0.357900  0.667900  0.806800  1
  H  H105  1  0.057900  0.249400  0.079100  1
  H  H106  1  0.942100  0.750600  0.920900  1
  H  H107  1  0.164500  0.394600  0.108400  1
  H  H108  1  0.835500  0.605400  0.891600  1
  H  H109  1  0.239700  0.395600  0.179600  1
  H  H110  1  0.760300  0.604400  0.820400  1
  H  H111  1  0.214200  0.253300  0.222300  1
  H  H112  1  0.785800  0.746700  0.777700  1
  H  H113  1  0.111500  0.107400  0.191500  1
  H  H114  1  0.888500  0.892600  0.808500  1
  H  H115  1  0.028800  0.106700  0.122000  1
  H  H116  1  0.971200  0.893300  0.878000  1
  H  H117  1  0.342400  0.447900  0.360500  1
  H  H118  1  0.657600  0.552100  0.639500  1
  H  H119  1  0.410400  0.461400  0.434600  1
  H  H120  1  0.589600  0.538600  0.565400  1
  H  H121  1  0.511500  0.615900  0.460800  1
  H  H122  1  0.488500  0.384100  0.539200  1
  H  H123  1  0.532200  0.750500  0.412600  1
  H  H124  1  0.467800  0.249500  0.587400  1
  H  H125  1  0.465700  0.730600  0.340300  1
  H  H126  1  0.534300  0.269400  0.659700  1
  H  H127  1  0.359000  0.581400  0.314900  1
  H  H128  1  0.641000  0.418600  0.685100  1
  H  H129  1  0.239500  0.656900  0.401800  1
  H  H130  1  0.760500  0.343100  0.598200  1
  H  H131  1  0.186400  0.485800  0.390200  1
  H  H132  1  0.813600  0.514200  0.609800  1
  H  H133  1  0.035600  0.399800  0.414600  1
  H  H134  1  0.964400  0.600200  0.585400  1
  H  H135  1  0.934500  0.476200  0.451300  1
  H  H136  1  0.065500  0.523800  0.548700  1
  H  H137  1  0.982700  0.646600  0.462900  1
  H  H138  1  0.017300  0.353400  0.537100  1
  H  H139  1  0.141100  0.731900  0.440500  1
  H  H140  1  0.858900  0.268100  0.559500  1
  H  H141  1  0.884800  0.279400  0.386200  1
  H  H142  1  0.115200  0.720600  0.613800  1
  H  H143  1  0.001500  0.224400  0.430800  1
  H  H144  1  0.998500  0.775600  0.569200  1
  H  H145  1  0.950200  0.119000  0.491300  1
  H  H146  1  0.049800  0.881000  0.508700  1
  H  H147  1  0.782000  0.068700  0.507300  1
  H  H148  1  0.218000  0.931300  0.492700  1
  H  H149  1  0.666300  0.123100  0.462300  1
  H  H150  1  0.333700  0.876900  0.537700  1
  H  H151  1  0.717700  0.229400  0.403000  1
  H  H152  1  0.282300  0.770600  0.597000  1
  H  H153  1  0.613800  0.581000  0.003300  1
  H  H154  1  0.386200  0.419000  0.996700  1
  H  H155  1  0.601900  0.609600  0.080300  1
  H  H156  1  0.398100  0.390400  0.919700  1
  H  H157  1  0.733300  0.716000  0.120800  1
  H  H158  1  0.266700  0.284000  0.879200  1
  H  H159  1  0.876800  0.794200  0.085100  1
  H  H160  1  0.123200  0.205800  0.914900  1
  H  H161  1  0.887600  0.765300  0.007200  1
  H  H162  1  0.112400  0.234700  0.992800  1
  H  H163  1  0.759100  0.657800  0.967800  1
  H  H164  1  0.240900  0.342200  0.032200  1
  H  H165  1  0.500900  0.424900  0.102700  1
  H  H166  1  0.499100  0.575100  0.897300  1
  H  H167  1  0.389300  0.377300  0.083200  1
  H  H168  1  0.610700  0.622700  0.916800  1
  H  H169  1  0.479400  0.345600  0.061900  1
  H  H170  1  0.520600  0.654400  0.938100  1
  H  H171  1  0.345000  0.117400  0.118700  1
  H  H172  1  0.655000  0.882600  0.881300  1
  H  H173  1  0.390800  0.163800  0.072300  1
  H  H174  1  0.609200  0.836200  0.927700  1
  H  H175  1  0.299500  0.195600  0.092300  1
  H  H176  1  0.700500  0.804400  0.907700  1
  H  H177  1  0.870900  0.214700  0.927500  1
  H  H178  1  0.129100  0.785300  0.072500  1
  H  H179  1  0.851400  0.255900  0.003000  1
  H  H180  1  0.148600  0.744100  0.997000  1
  H  H181  1  0.856200  0.143400  0.061000  1
  H  H182  1  0.143800  0.856600  0.939000  1
  H  H183  1  0.880200  0.991700  0.043400  1
  H  H184  1  0.119800  0.008300  0.956600  1
  H  H185  1  0.899800  0.950000  0.968100  1
  H  H186  1  0.100200  0.050000  0.031900  1
  H  H187  1  0.895500  0.062100  0.909800  1
  H  H188  1  0.104500  0.937900  0.090200  1
  H  H189  1  0.858800  0.256500  0.383100  1
  H  H190  1  0.141200  0.743500  0.616900  1
  H  H191  1  0.793700  0.146500  0.391400  1
  H  H192  1  0.206300  0.853500  0.608600  1
  H  H193  1  0.912100  0.174500  0.399400  1
  H  H194  1  0.087900  0.825500  0.600600  1
  H  H195  1  0.849500  0.121100  0.514000  1
  H  H196  1  0.150500  0.878900  0.486000  1
  H  H197  1  0.956800  0.168300  0.494600  1
  H  H198  1  0.043200  0.831700  0.505400  1
  H  H199  1  0.876600  0.084500  0.465900  1
  H  H200  1  0.123400  0.915500  0.534100  1
  H  H201  1  0.915100  0.201300  0.926500  1
  H  H202  1  0.084900  0.798700  0.073500  1
  H  H203  1  0.924400  0.254300  0.975300  1
  H  H204  1  0.075600  0.745700  0.024700  1
  H  H205  1  0.818600  0.189100  0.955400  1
  H  H206  1  0.181400  0.810900  0.044600  1
  H  H207  1  0.867900  0.038800  0.053100  1
  H  H208  1  0.132100  0.961200  0.946900  1
  H  H209  1  0.787400  0.085700  0.028300  1
  H  H210  1  0.212600  0.914300  0.971700  1
  H  H211  1  0.889400  0.155700  0.049800  1
  H  H212  1  0.110600  0.844300  0.950200  1
  H  H213  1  0.341800  0.117300  0.118600  1
  H  H214  1  0.658200  0.882700  0.881400  1
  H  H215  1  0.337100  0.160700  0.068400  1
  H  H216  1  0.662900  0.839300  0.931600  1
  H  H217  1  0.330600  0.226300  0.112100  1
  H  H218  1  0.669400  0.773700  0.887900  1
  H  H219  1  0.569600  0.372000  0.074900  1
  H  H220  1  0.430400  0.628000  0.925100  1
  H  H221  1  0.464300  0.375000  0.093000  1
  H  H222  1  0.535700  0.625000  0.907000  1
  H  H223  1  0.469600  0.324200  0.044700  1
  H  H224  1  0.530400  0.675800  0.955300  1
  H  H225  1  0.662800  0.990300  0.016800  1.0
  H  H226  1  0.337200  0.009700  0.983200  1.0
  H  H227  1  0.634600  0.140200  0.994000  1.0
  H  H228  1  0.365400  0.859800  0.006000  1.0
  H  H229  1  0.527800  0.849700  0.022900  1.0
  H  H230  1  0.472200  0.150300  0.977100  1.0
  H  H231  1  0.485900  0.975100  0.421100  1.0
  H  H232  1  0.514100  0.024900  0.578900  1.0
  H  H233  1  0.574300  0.890200  0.467000  1.0
  H  H234  1  0.425700  0.109800  0.533000  1.0
  H  H235  1  0.411400  0.085500  0.454600  1.0
  H  H236  1  0.588600  0.914500  0.545400  1.0
  Pt  Pt237  1  0.848150  0.223250  0.176456  1
  Pt  Pt238  1  0.151850  0.776750  0.823544  1
  Pt  Pt239  1  0.701890  0.628530  0.349796  1
  Pt  Pt240  1  0.298110  0.371470  0.650204  1
  C  C241  1  0.889400  0.407400  0.131100  1
  C  C242  1  0.110600  0.592600  0.868900  1
  C  C243  1  0.751800  0.299500  0.091500  1
  C  C244  1  0.248200  0.700500  0.908500  1
  C  C245  1  0.755000  0.379200  0.061800  1
  C  C246  1  0.245000  0.620800  0.938200  1
  C  C247  1  0.818000  0.474800  0.067600  1
  C  C248  1  0.182000  0.525200  0.932400  1
  C  C249  1  0.891800  0.490500  0.103700  1
  C  C250  1  0.108200  0.509500  0.896300  1
  C  C251  1  0.960700  0.422700  0.169400  1
  C  C252  1  0.039300  0.577300  0.830600  1
  C  C253  1  0.003500  0.344600  0.233200  1
  C  C254  1  0.996500  0.655400  0.766800  1
  C  C255  1  0.075100  0.426800  0.248700  1
  C  C256  1  0.924900  0.573200  0.751300  1
  C  C257  1  0.091900  0.510900  0.221100  1
  C  C258  1  0.908100  0.489100  0.778900  1
  C  C259  1  0.030400  0.509100  0.180900  1
  C  C260  1  0.969600  0.490900  0.819100  1
  C  C261  1  0.976300  0.251900  0.256500  1
  C  C262  1  0.023700  0.748100  0.743500  1
  C  C263  1  0.876800  0.092900  0.258500  1
  C  C264  1  0.123200  0.907100  0.741500  1
  C  C265  1  0.924100  0.080100  0.299200  1
  C  C266  1  0.075900  0.919900  0.700800  1
  C  C267  1  0.996800  0.153100  0.319300  1
  C  C268  1  0.003200  0.846900  0.680700  1
  C  C269  1  0.026200  0.244400  0.297900  1
  C  C270  1  0.973800  0.755600  0.702100  1
  C  C271  1  0.964200  0.577100  0.114800  1
  C  C272  1  0.035800  0.422900  0.885200  1
  C  C273  1  0.032200  0.589000  0.150600  1
  C  C274  1  0.967800  0.411000  0.849400  1
  C  C275  1  0.128300  0.415200  0.290800  1
  C  C276  1  0.871700  0.584800  0.709200  1
  C  C277  1  0.103800  0.330700  0.313900  1
  C  C278  1  0.896200  0.669300  0.686100  1
  C  C279  1  0.168300  0.604700  0.235600  1
  C  C280  1  0.831700  0.395300  0.764400  1
  C  C281  1  0.152900  0.658900  0.272700  1
  C  C282  1  0.847100  0.341100  0.727300  1
  C  C283  1  0.219700  0.749000  0.285900  1
  C  C284  1  0.780300  0.251000  0.714100  1
  C  C285  1  0.307500  0.783200  0.261600  1
  C  C286  1  0.692500  0.216800  0.738400  1
  C  C287  1  0.323200  0.727700  0.225200  1
  C  C288  1  0.676800  0.272300  0.774800  1
  C  C289  1  0.254400  0.638500  0.211100  1
  C  C290  1  0.745600  0.361500  0.788900  1
  C  C291  1  0.200100  0.809100  0.323700  1
  C  C292  1  0.799900  0.190900  0.676300  1
  C  C293  1  0.100700  0.808400  0.330900  1
  C  C294  1  0.899300  0.191600  0.669100  1
  C  C295  1  0.078500  0.859800  0.366200  1
  C  C296  1  0.921500  0.140200  0.633800  1
  C  C297  1  0.155400  0.920300  0.393700  1
  C  C298  1  0.844600  0.079700  0.606300  1
  C  C299  1  0.251600  0.923700  0.386400  1
  C  C300  1  0.748400  0.076300  0.613600  1
  C  C301  1  0.273800  0.868700  0.351700  1
  C  C302  1  0.726200  0.131300  0.648300  1
  C  C303  1  0.975100  0.853500  0.375600  1
  C  C304  1  0.024900  0.146500  0.624400  1
  C  C305  1  0.900400  0.768800  0.362200  1
  C  C306  1  0.099600  0.231200  0.637800  1
  C  C307  1  0.775400  0.829900  0.391100  1
  C  C308  1  0.224600  0.170100  0.608900  1
  C  C309  1  0.845700  0.912300  0.406200  1
  C  C310  1  0.154300  0.087700  0.593800  1
  C  C311  1  0.945800  0.926500  0.398200  1
  C  C312  1  0.054200  0.073500  0.601800  1
  C  C313  1  0.590400  0.583300  0.265600  1
  C  C314  1  0.409600  0.416700  0.734400  1
  C  C315  1  0.691300  0.743200  0.260500  1
  C  C316  1  0.308700  0.256800  0.739500  1
  C  C317  1  0.647100  0.749800  0.216900  1
  C  C318  1  0.352900  0.250200  0.783100  1
  C  C319  1  0.572800  0.673900  0.199100  1
  C  C320  1  0.427200  0.326100  0.800900  1
  C  C321  1  0.540300  0.586100  0.222500  1
  C  C322  1  0.459700  0.413900  0.777500  1
  C  C323  1  0.560400  0.497500  0.292100  1
  C  C324  1  0.439600  0.502500  0.707900  1
  C  C325  1  0.587100  0.433100  0.362200  1
  C  C326  1  0.412900  0.566900  0.637800  1
  C  C327  1  0.515100  0.344500  0.351700  1
  C  C328  1  0.484900  0.655500  0.648300  1
  C  C329  1  0.467100  0.333400  0.308500  1
  C  C330  1  0.532900  0.666600  0.691500  1
  C  C331  1  0.485900  0.412500  0.277400  1
  C  C332  1  0.514100  0.587500  0.722600  1
  C  C333  1  0.641900  0.458500  0.404200  1
  C  C334  1  0.358100  0.541500  0.595800  1
  C  C335  1  0.754300  0.575300  0.448600  1
  C  C336  1  0.245700  0.424700  0.551400  1
  C  C337  1  0.745800  0.510300  0.484300  1
  C  C338  1  0.254200  0.489700  0.515700  1
  C  C339  1  0.681900  0.416000  0.479700  1
  C  C340  1  0.318100  0.584000  0.520300  1
  C  C341  1  0.627400  0.388100  0.438900  1
  C  C342  1  0.372600  0.611900  0.561100  1
  C  C343  1  0.465900  0.501300  0.207500  1
  C  C344  1  0.534100  0.498700  0.792500  1
  C  C345  1  0.438900  0.417500  0.233200  1
  C  C346  1  0.561100  0.582500  0.766800  1
  C  C347  1  0.503300  0.274000  0.388300  1
  C  C348  1  0.496700  0.726000  0.611700  1
  C  C349  1  0.557100  0.296800  0.428300  1
  C  C350  1  0.442900  0.703200  0.571700  1
  C  C351  1  0.389900  0.237600  0.295600  1
  C  C352  1  0.610100  0.762400  0.704400  1
  C  C353  1  0.399700  0.184800  0.258900  1
  C  C354  1  0.600300  0.815200  0.741100  1
  C  C355  1  0.334500  0.094200  0.247900  1
  C  C356  1  0.665500  0.905800  0.752100  1
  C  C357  1  0.252000  0.060100  0.273500  1
  C  C358  1  0.748000  0.939900  0.726500  1
  C  C359  1  0.238900  0.116300  0.311800  1
  C  C360  1  0.761100  0.883700  0.688200  1
  C  C361  1  0.306900  0.203700  0.322200  1
  C  C362  1  0.693100  0.796300  0.677800  1
  C  C363  1  0.351500  0.034100  0.208700  1
  C  C364  1  0.648500  0.965900  0.791300  1
  C  C365  1  0.449200  0.039200  0.197900  1
  C  C366  1  0.550800  0.960800  0.802100  1
  C  C367  1  0.472000  0.985300  0.161200  1
  C  C368  1  0.528000  0.014700  0.838800  1
  C  C369  1  0.391200  0.923400  0.135800  1
  C  C370  1  0.608800  0.076600  0.864200  1
  C  C371  1  0.293800  0.915900  0.148500  1
  C  C372  1  0.706200  0.084100  0.851500  1
  C  C373  1  0.273300  0.968900  0.182500  1
  C  C374  1  0.726700  0.031100  0.817500  1
  C  C375  1  0.576600  0.997300  0.150400  1
  C  C376  1  0.423400  0.002700  0.849600  1
  C  C377  1  0.647100  0.084200  0.161600  1
  C  C378  1  0.352900  0.915800  0.838400  1
  C  C379  1  0.773300  0.022100  0.137600  1
  C  C380  1  0.226700  0.977900  0.862400  1
  C  C381  1  0.706000  0.938200  0.123200  1
  C  C382  1  0.294000  0.061800  0.876800  1
  C  C383  1  0.608100  0.923600  0.129300  1
  C  C384  1  0.391900  0.076400  0.870700  1
  C  C385  1  0.739000  0.391200  0.250200  1
  C  C386  1  0.261000  0.608800  0.749800  1
  C  C387  1  0.810400  0.474000  0.266400  1
  C  C388  1  0.189600  0.526000  0.733600  1
  C  C389  1  0.838200  0.565200  0.240200  1
  C  C390  1  0.161800  0.434800  0.759800  1
  C  C391  1  0.782700  0.561000  0.199100  1
  C  C392  1  0.217300  0.439000  0.800900  1
  C  C393  1  0.708300  0.478900  0.183200  1
  C  C394  1  0.291700  0.521100  0.816800  1
  C  C395  1  0.687300  0.390000  0.205800  1
  C  C396  1  0.312700  0.610000  0.794200  1
  C  C397  1  0.090000  0.250600  0.108400  1
  C  C398  1  0.910000  0.749400  0.891600  1
  C  C399  1  0.152500  0.336000  0.125600  1
  C  C400  1  0.847500  0.664000  0.874400  1
  C  C401  1  0.196900  0.335900  0.167400  1
  C  C402  1  0.803100  0.664100  0.832600  1
  C  C403  1  0.182300  0.251900  0.192900  1
  C  C404  1  0.817700  0.748100  0.807100  1
  C  C405  1  0.121000  0.166600  0.174900  1
  C  C406  1  0.879000  0.833400  0.825100  1
  C  C407  1  0.073600  0.165800  0.133700  1
  C  C408  1  0.926400  0.834200  0.866300  1
  C  C409  1  0.380700  0.510400  0.371700  1
  C  C410  1  0.619300  0.489600  0.628300  1
  C  C411  1  0.421900  0.517300  0.415500  1
  C  C412  1  0.578100  0.482700  0.584500  1
  C  C413  1  0.480700  0.608000  0.430900  1
  C  C414  1  0.519300  0.392000  0.569100  1
  C  C415  1  0.493700  0.687300  0.402200  1
  C  C416  1  0.506300  0.312700  0.597800  1
  C  C417  1  0.452600  0.675900  0.360000  1
  C  C418  1  0.547400  0.324100  0.640000  1
  C  C419  1  0.391900  0.587500  0.344200  1
  C  C420  1  0.608100  0.412500  0.655800  1
  C  C421  1  0.177500  0.619500  0.412200  1
  C  C422  1  0.822500  0.380500  0.587800  1
  C  C423  1  0.145800  0.519000  0.405100  1
  C  C424  1  0.854200  0.481000  0.594900  1
  C  C425  1  0.057100  0.468900  0.419600  1
  C  C426  1  0.942900  0.531100  0.580400  1
  C  C427  1  0.996600  0.514300  0.441300  1
  C  C428  1  0.003400  0.485700  0.558700  1
  C  C429  1  0.024500  0.613500  0.448700  1
  C  C430  1  0.975500  0.386500  0.551300  1
  C  C431  1  0.117900  0.663300  0.434400  1
  C  C432  1  0.882100  0.336700  0.565600  1
  C  C433  1  0.864200  0.236600  0.410900  1
  C  C434  1  0.135800  0.763400  0.589100  1
  C  C435  1  0.933100  0.203900  0.437400  1
  C  C436  1  0.066900  0.796100  0.562600  1
  C  C437  1  0.902800  0.141400  0.473200  1
  C  C438  1  0.097200  0.858600  0.526800  1
  C  C439  1  0.803100  0.111500  0.482600  1
  C  C440  1  0.196900  0.888500  0.517400  1
  C  C441  1  0.734800  0.144100  0.456100  1
  C  C442  1  0.265200  0.855900  0.543900  1
  C  C443  1  0.765200  0.206600  0.420800  1
  C  C444  1  0.234800  0.793400  0.579200  1
  C  C445  1  0.667600  0.624300  0.020200  1
  C  C446  1  0.332400  0.375700  0.979800  1
  C  C447  1  0.660600  0.641400  0.065400  1
  C  C448  1  0.339400  0.358600  0.934600  1
  C  C449  1  0.738200  0.704200  0.089200  1
  C  C450  1  0.261800  0.295800  0.910800  1
  C  C451  1  0.823000  0.750500  0.068300  1
  C  C452  1  0.177000  0.249500  0.931700  1
  C  C453  1  0.829500  0.733000  0.022300  1
  C  C454  1  0.170500  0.267000  0.977700  1
  C  C455  1  0.753700  0.670600  0.999300  1
  C  C456  1  0.246300  0.329400  0.000700  1
  C  C457  1  0.454000  0.365000  0.090000  1
  C  C458  1  0.546000  0.635000  0.910000  1
  C  C459  1  0.872900  0.169100  0.951000  1
  C  C460  1  0.127100  0.830900  0.049000  1
  C  C461  1  0.861000  0.193700  0.995900  1
  C  C462  1  0.139000  0.806300  0.004100  1
  C  C463  1  0.864000  0.127000  0.030300  1
  C  C464  1  0.136000  0.873000  0.969700  1
  C  C465  1  0.878000  0.037200  0.019800  1
  C  C466  1  0.122000  0.962800  0.980200  1
  C  C467  1  0.890000  0.012300  0.975100  1
  C  C468  1  0.110000  0.987700  0.024900  1
  C  C469  1  0.887000  0.079000  0.940500  1
  C  C470  1  0.113000  0.921000  0.059500  1
  C  C471  1  0.853000  0.198000  0.402000  1
  C  C472  1  0.147000  0.802000  0.598000  1
  C  C473  1  0.886000  0.141000  0.486000  1
  C  C474  1  0.114000  0.859000  0.514000  1
  C  C475  1  0.890000  0.196000  0.957000  1
  C  C476  1  0.110000  0.804000  0.043000  1
  C  C477  1  0.859000  0.093000  0.034100  1
  C  C478  1  0.141000  0.907000  0.965900  1
  C  C479  1  0.499000  0.336000  0.075900  1
  C  C480  1  0.501000  0.664000  0.924100  1
  C  C481  1  0.596900  0.994000  0.010000  1.0
  C  C482  1  0.403100  0.006000  0.990000  1.0
  C  C483  1  0.580000  0.084000  0.996400  1.0
  C  C484  1  0.420000  0.916000  0.003600  1.0
  C  C485  1  0.516000  0.910300  0.013600  1.0
  C  C486  1  0.484000  0.089700  0.986400  1.0
  C  C487  1  0.491600  0.985300  0.453200  1.0
  C  C488  1  0.508400  0.014700  0.546800  1.0
  C  C489  1  0.543900  0.935200  0.480600  1.0
  C  C490  1  0.456100  0.064800  0.519400  1.0
  C  C491  1  0.447600  0.050500  0.473100  1.0
  C  C492  1  0.552400  0.949500  0.526900  1.0
  C  C493  1  0.360700  0.176800  0.100200  1.0
  C  C494  1  0.639300  0.823200  0.899800  1.0
  S  S495  1  0.441000  0.268900  0.130200  1
  S  S496  1  0.559000  0.731100  0.869800  1
  S  S497  1  0.842000  0.229000  0.459600  1
  S  S498  1  0.158000  0.771000  0.540400  1
  S  S499  1  0.913000  0.090000  0.983700  1
  S  S500  1  0.087000  0.910000  0.016300  1
  S  S501  1  0.488600  0.222500  0.103100  1
  S  S502  1  0.511400  0.777500  0.896900  1
  I  I503  1  0.702410  0.259000  0.284700  1
  I  I504  1  0.297590  0.741000  0.715300  1
  I  I505  1  0.890710  0.479860  0.328960  1
  I  I506  1  0.109290  0.520140  0.671040  1
  N  N507  1  0.823700  0.316400  0.125900  1
  N  N508  1  0.176300  0.683600  0.874100  1
  N  N509  1  0.947900  0.341500  0.194700  1
  N  N510  1  0.052100  0.658500  0.805300  1
  N  N511  1  0.904000  0.177000  0.236300  1
  N  N512  1  0.096000  0.823000  0.763700  1
  N  N513  1  0.802800  0.756300  0.369100  1
  N  N514  1  0.197200  0.243700  0.630900  1
  N  N515  1  0.660600  0.661500  0.284400  1
  N  N516  1  0.339400  0.338500  0.715600  1
  N  N517  1  0.606900  0.506600  0.332100  1
  N  N518  1  0.393100  0.493400  0.667900  1
  N  N519  1  0.704600  0.550700  0.408500  1
  N  N520  1  0.295400  0.449300  0.591500  1
  N  N521  1  0.744400  0.097200  0.156800  1
  N  N522  1  0.255600  0.902800  0.843200  1
  O  O523  1  0.541000  0.247600  0.128900  1
  O  O524  1  0.459000  0.752400  0.871100  1
  O  O525  1  0.731000  0.202000  0.463000  1
  O  O526  1  0.269000  0.798000  0.537000  1
  O  O527  1  0.843000  0.010000  0.954900  1
  O  O528  1  0.157000  0.990000  0.045100  1
  O  O529  1  0.524000  0.250000  0.150800  1
  O  O530  1  0.476000  0.750000  0.849200  1
  F  F531  1  0.886400  0.780400  0.171500  1
  F  F532  1  0.113600  0.219600  0.828500  1
  F  F533  1  0.926600  0.794300  0.245500  1
  F  F534  1  0.073400  0.205700  0.754500  1
  F  F535  1  0.864500  0.902400  0.208900  1
  F  F536  1  0.135500  0.097600  0.791100  1
  F  F537  1  0.984700  0.926200  0.161000  1
  F  F538  1  0.015300  0.073800  0.839000  1
  F  F539  1  0.043900  0.819200  0.196400  1
  F  F540  1  0.956100  0.180800  0.803600  1
  F  F541  1  0.028700  0.945500  0.234600  1
  F  F542  1  0.971300  0.054500  0.765400  1
  F  F543  1  0.513200  0.999100  0.307100  1
  F  F544  1  0.486800  0.000900  0.692900  1
  F  F545  1  0.669500  0.064500  0.332900  1
  F  F546  1  0.330500  0.935500  0.667100  1
  F  F547  1  0.636200  0.006800  0.261200  1
  F  F548  1  0.363800  0.993200  0.738800  1
  F  F549  1  0.550100  0.861500  0.287000  1
  F  F550  1  0.449900  0.138500  0.713000  1
  F  F551  1  0.584100  0.918900  0.358500  1
  F  F552  1  0.415900  0.081100  0.641500  1
  F  F553  1  0.709800  0.929600  0.311400  1
  F  F554  1  0.290200  0.070400  0.688600  1
  F  F555  1  0.853800  0.745400  0.515500  1
  F  F556  1  0.146200  0.254600  0.484500  1
  F  F557  1  0.754700  0.699100  0.568100  1
  F  F558  1  0.245300  0.300900  0.431900  1
  F  F559  1  0.860800  0.835100  0.581000  1
  F  F560  1  0.139200  0.164900  0.419000  1
  F  F561  1  0.815000  0.890300  0.516700  1
  F  F562  1  0.185000  0.109700  0.483300  1
  F  F563  1  0.704500  0.753700  0.503500  1
  F  F564  1  0.295500  0.246300  0.496500  1
  F  F565  1  0.708200  0.838500  0.568900  1
  F  F566  1  0.291800  0.161500  0.431100  1
  F  F567  1  0.419100  0.586000  0.052300  1
  F  F568  1  0.580900  0.414000  0.947700  1
  F  F569  1  0.328000  0.551400  0.111300  1
  F  F570  1  0.672000  0.448600  0.888700  1
  F  F571  1  0.434800  0.691800  0.104000  1
  F  F572  1  0.565200  0.308200  0.896000  1
  F  F573  1  0.359000  0.696900  0.040100  1
  F  F574  1  0.641000  0.303100  0.959900  1
  F  F575  1  0.257400  0.551100  0.047900  1
  F  F576  1  0.742600  0.448900  0.952100  1
  F  F577  1  0.279200  0.682000  0.093700  1
  F  F578  1  0.720800  0.318000  0.906300  1
