# generated using pymatgen
data_H36Ru2C37SN2O7F3
_symmetry_space_group_name_H-M   'P 1'
_cell_length_a   11.22100000
_cell_length_b   16.07100000
_cell_length_c   25.04500000
_cell_angle_alpha   98.29000000
_cell_angle_beta   90.00000000
_cell_angle_gamma   90.00000000
_symmetry_Int_Tables_number   1
_chemical_formula_structural   H36Ru2C37SN2O7F3
_chemical_formula_sum   'H144 Ru8 C148 S4 N8 O28 F12'
_cell_volume   4469.23990513
_cell_formula_units_Z   4
loop_
 _symmetry_equiv_pos_site_id
 _symmetry_equiv_pos_as_xyz
  1  'x, y, z'
loop_
 _atom_site_type_symbol
 _atom_site_label
 _atom_site_symmetry_multiplicity
 _atom_site_fract_x
 _atom_site_fract_y
 _atom_site_fract_z
 _atom_site_occupancy
  H  H1  1  0.843600  0.862300  0.632900  1.0
  H  H2  1  0.343600  0.137700  0.867100  1.0
  H  H3  1  0.156400  0.137700  0.367100  1.0
  H  H4  1  0.656400  0.862300  0.132900  1.0
  H  H5  1  0.827900  0.747400  0.564400  1.0
  H  H6  1  0.327900  0.252600  0.935600  1.0
  H  H7  1  0.172100  0.252600  0.435600  1.0
  H  H8  1  0.672100  0.747400  0.064400  1.0
  H  H9  1  0.181400  0.702300  0.577100  1.0
  H  H10  1  0.681400  0.297700  0.922900  1.0
  H  H11  1  0.818600  0.297700  0.422900  1.0
  H  H12  1  0.318600  0.702300  0.077100  1.0
  H  H13  1  0.197100  0.817200  0.645600  1.0
  H  H14  1  0.697100  0.182800  0.854400  1.0
  H  H15  1  0.802900  0.182800  0.354400  1.0
  H  H16  1  0.302900  0.817200  0.145600  1.0
  H  H17  1  0.154300  0.349300  0.246700  1.0
  H  H18  1  0.654300  0.650700  0.253300  1.0
  H  H19  1  0.845700  0.650700  0.753300  1.0
  H  H20  1  0.345700  0.349300  0.746700  1.0
  H  H21  1  0.158100  0.431900  0.331600  1.0
  H  H22  1  0.658100  0.568100  0.168400  1.0
  H  H23  1  0.841900  0.568100  0.668400  1.0
  H  H24  1  0.341900  0.431900  0.831600  1.0
  H  H25  1  0.796400  0.440200  0.331600  1.0
  H  H26  1  0.296400  0.559800  0.168400  1.0
  H  H27  1  0.203600  0.559800  0.668400  1.0
  H  H28  1  0.703600  0.440200  0.831600  1.0
  H  H29  1  0.798200  0.345100  0.251000  1.0
  H  H30  1  0.298200  0.654900  0.249000  1.0
  H  H31  1  0.201800  0.654900  0.749000  1.0
  H  H32  1  0.701800  0.345100  0.751000  1.0
  H  H33  1  0.243500  0.056000  0.671200  1.0
  H  H34  1  0.743500  0.944000  0.828800  1.0
  H  H35  1  0.756500  0.944000  0.328800  1.0
  H  H36  1  0.256500  0.056000  0.171200  1.0
  H  H37  1  0.167900  0.102000  0.757400  1.0
  H  H38  1  0.667900  0.898000  0.742600  1.0
  H  H39  1  0.832100  0.898000  0.242600  1.0
  H  H40  1  0.332100  0.102000  0.257400  1.0
  H  H41  1  0.831400  0.075200  0.698700  1.0
  H  H42  1  0.331400  0.924800  0.801300  1.0
  H  H43  1  0.168600  0.924800  0.301300  1.0
  H  H44  1  0.668600  0.075200  0.198700  1.0
  H  H45  1  0.907000  0.029200  0.612500  1.0
  H  H46  1  0.407000  0.970800  0.887500  1.0
  H  H47  1  0.093000  0.970800  0.387500  1.0
  H  H48  1  0.593000  0.029200  0.112500  1.0
  H  H49  1  0.076000  0.955200  0.561800  1.0
  H  H50  1  0.576000  0.044800  0.938200  1.0
  H  H51  1  0.924000  0.044800  0.438200  1.0
  H  H52  1  0.424000  0.955200  0.061800  1.0
  H  H53  1  0.144900  0.116300  0.551400  1.0
  H  H54  1  0.644900  0.883700  0.948600  1.0
  H  H55  1  0.855100  0.883700  0.448600  1.0
  H  H56  1  0.355100  0.116300  0.051400  1.0
  H  H57  1  0.020000  0.089800  0.542900  1.0
  H  H58  1  0.520000  0.910200  0.957100  1.0
  H  H59  1  0.980000  0.910200  0.457100  1.0
  H  H60  1  0.480000  0.089800  0.042900  1.0
  H  H61  1  0.122400  0.053200  0.503800  1.0
  H  H62  1  0.622400  0.946800  0.996200  1.0
  H  H63  1  0.877600  0.946800  0.496200  1.0
  H  H64  1  0.377600  0.053200  0.003800  1.0
  H  H65  1  0.302000  0.020100  0.581400  1.0
  H  H66  1  0.802000  0.979900  0.918600  1.0
  H  H67  1  0.698000  0.979900  0.418600  1.0
  H  H68  1  0.198000  0.020100  0.081400  1.0
  H  H69  1  0.276600  0.953300  0.536200  1.0
  H  H70  1  0.776600  0.046700  0.963800  1.0
  H  H71  1  0.723400  0.046700  0.463800  1.0
  H  H72  1  0.223400  0.953300  0.036200  1.0
  H  H73  1  0.272400  0.937300  0.596400  1.0
  H  H74  1  0.772400  0.062700  0.903600  1.0
  H  H75  1  0.727600  0.062700  0.403600  1.0
  H  H76  1  0.227600  0.937300  0.096400  1.0
  H  H77  1  0.964300  0.169100  0.804100  1.0
  H  H78  1  0.464300  0.830900  0.695900  1.0
  H  H79  1  0.035700  0.830900  0.195900  1.0
  H  H80  1  0.535700  0.169100  0.304100  1.0
  H  H81  1  0.965800  0.082400  0.816500  1.0
  H  H82  1  0.465800  0.917600  0.683500  1.0
  H  H83  1  0.034200  0.917600  0.183500  1.0
  H  H84  1  0.534200  0.082400  0.316500  1.0
  H  H85  1  0.855300  0.120000  0.790000  1.0
  H  H86  1  0.355300  0.880000  0.710000  1.0
  H  H87  1  0.144700  0.880000  0.210000  1.0
  H  H88  1  0.644700  0.120000  0.290000  1.0
  H  H89  1  0.892700  0.159200  0.064900  1.0
  H  H90  1  0.392700  0.840800  0.435100  1.0
  H  H91  1  0.107300  0.840800  0.935100  1.0
  H  H92  1  0.607300  0.159200  0.564900  1.0
  H  H93  1  0.098600  0.181500  0.070500  1.0
  H  H94  1  0.598600  0.818500  0.429500  1.0
  H  H95  1  0.901400  0.818500  0.929500  1.0
  H  H96  1  0.401400  0.181500  0.570500  1.0
  H  H97  1  0.042200  0.422100  0.139700  1.0
  H  H98  1  0.542200  0.577900  0.360300  1.0
  H  H99  1  0.957800  0.577900  0.860300  1.0
  H  H100  1  0.457800  0.422100  0.639700  1.0
  H  H101  1  0.836200  0.399800  0.134100  1.0
  H  H102  1  0.336200  0.600200  0.365900  1.0
  H  H103  1  0.163800  0.600200  0.865900  1.0
  H  H104  1  0.663800  0.399800  0.634100  1.0
  H  H105  1  0.719900  0.194500  0.116100  1.0
  H  H106  1  0.219900  0.805500  0.383900  1.0
  H  H107  1  0.280100  0.805500  0.883900  1.0
  H  H108  1  0.780100  0.194500  0.616100  1.0
  H  H109  1  0.699800  0.355000  0.146600  1.0
  H  H110  1  0.199800  0.645000  0.353400  1.0
  H  H111  1  0.300200  0.645000  0.853400  1.0
  H  H112  1  0.800200  0.355000  0.646600  1.0
  H  H113  1  0.626400  0.290400  0.167200  1.0
  H  H114  1  0.126400  0.709600  0.332800  1.0
  H  H115  1  0.373600  0.709600  0.832800  1.0
  H  H116  1  0.873600  0.290400  0.667200  1.0
  H  H117  1  0.587700  0.332800  0.117300  1.0
  H  H118  1  0.087700  0.667200  0.382700  1.0
  H  H119  1  0.412300  0.667200  0.882700  1.0
  H  H120  1  0.912300  0.332800  0.617300  1.0
  H  H121  1  0.622600  0.262600  0.037600  1.0
  H  H122  1  0.122600  0.737400  0.462400  1.0
  H  H123  1  0.377400  0.737400  0.962400  1.0
  H  H124  1  0.877400  0.262600  0.537600  1.0
  H  H125  1  0.654500  0.173100  0.034600  1.0
  H  H126  1  0.154500  0.826900  0.465400  1.0
  H  H127  1  0.345500  0.826900  0.965400  1.0
  H  H128  1  0.845500  0.173100  0.534600  1.0
  H  H129  1  0.744100  0.240000  0.018400  1.0
  H  H130  1  0.244100  0.760000  0.481600  1.0
  H  H131  1  0.255900  0.760000  0.981600  1.0
  H  H132  1  0.755900  0.240000  0.518400  1.0
  H  H133  1  0.248700  0.260100  0.122600  1.0
  H  H134  1  0.748700  0.739900  0.377400  1.0
  H  H135  1  0.751300  0.739900  0.877400  1.0
  H  H136  1  0.251300  0.260100  0.622600  1.0
  H  H137  1  0.247700  0.351400  0.140400  1.0
  H  H138  1  0.747700  0.648600  0.359600  1.0
  H  H139  1  0.752300  0.648600  0.859600  1.0
  H  H140  1  0.252300  0.351400  0.640400  1.0
  H  H141  1  0.264100  0.312700  0.079700  1.0
  H  H142  1  0.764100  0.687300  0.420300  1.0
  H  H143  1  0.735900  0.687300  0.920300  1.0
  H  H144  1  0.235900  0.312700  0.579700  1.0
  Ru  Ru145  1  0.034570  0.967500  0.697570  1.0
  Ru  Ru146  1  0.534570  0.032500  0.802430  1.0
  Ru  Ru147  1  0.965430  0.032500  0.302430  1.0
  Ru  Ru148  1  0.465430  0.967500  0.197570  1.0
  Ru  Ru149  1  0.970400  0.266890  0.164850  1.0
  Ru  Ru150  1  0.470400  0.733110  0.335150  1.0
  Ru  Ru151  1  0.029600  0.733110  0.835150  1.0
  Ru  Ru152  1  0.529600  0.266890  0.664850  1.0
  C  C153  1  0.081100  0.100800  0.942000  1
  C  C154  1  0.581100  0.899200  0.558000  1
  C  C155  1  0.918900  0.899200  0.058000  1
  C  C156  1  0.418900  0.100800  0.442000  1
  C  C157  1  0.097300  0.852200  0.772000  1.0
  C  C158  1  0.597300  0.147800  0.728000  1.0
  C  C159  1  0.902700  0.147800  0.228000  1.0
  C  C160  1  0.402700  0.852200  0.272000  1.0
  C  C161  1  0.957800  0.866500  0.769830  1.0
  C  C162  1  0.457800  0.133500  0.730170  1.0
  C  C163  1  0.042200  0.133500  0.230170  1.0
  C  C164  1  0.542200  0.866500  0.269830  1.0
  C  C165  1  0.912200  0.829900  0.621580  1.0
  C  C166  1  0.412200  0.170100  0.878420  1.0
  C  C167  1  0.087800  0.170100  0.378420  1.0
  C  C168  1  0.587800  0.829900  0.121580  1.0
  C  C169  1  0.902800  0.761600  0.580870  1.0
  C  C170  1  0.402800  0.238400  0.919130  1.0
  C  C171  1  0.097200  0.238400  0.419130  1.0
  C  C172  1  0.597200  0.761600  0.080870  1.0
  C  C173  1  0.003200  0.714100  0.564280  1.0
  C  C174  1  0.503200  0.285900  0.935720  1.0
  C  C175  1  0.996800  0.285900  0.435720  1.0
  C  C176  1  0.496800  0.714100  0.064280  1.0
  C  C177  1  0.112800  0.734800  0.588400  1.0
  C  C178  1  0.612800  0.265200  0.911600  1.0
  C  C179  1  0.887200  0.265200  0.411600  1.0
  C  C180  1  0.387200  0.734800  0.088400  1.0
  C  C181  1  0.122200  0.803100  0.629110  1.0
  C  C182  1  0.622200  0.196900  0.870890  1.0
  C  C183  1  0.877800  0.196900  0.370890  1.0
  C  C184  1  0.377800  0.803100  0.129110  1.0
  C  C185  1  0.998000  0.650500  0.517600  1.0
  C  C186  1  0.498000  0.349500  0.982400  1.0
  C  C187  1  0.002000  0.349500  0.482400  1.0
  C  C188  1  0.502000  0.650500  0.017600  1.0
  C  C189  1  0.986800  0.597800  0.476800  1.0
  C  C190  1  0.486800  0.402200  0.023200  1.0
  C  C191  1  0.013200  0.402200  0.523200  1.0
  C  C192  1  0.513200  0.597800  0.976800  1.0
  C  C193  1  0.081800  0.367300  0.264200  1.0
  C  C194  1  0.581800  0.632700  0.235800  1.0
  C  C195  1  0.918200  0.632700  0.735800  1.0
  C  C196  1  0.418200  0.367300  0.764200  1.0
  C  C197  1  0.084000  0.416400  0.314700  1.0
  C  C198  1  0.584000  0.583600  0.185300  1.0
  C  C199  1  0.916000  0.583600  0.685300  1.0
  C  C200  1  0.416000  0.416400  0.814700  1.0
  C  C201  1  0.977900  0.442700  0.340300  1.0
  C  C202  1  0.477900  0.557300  0.159700  1.0
  C  C203  1  0.022100  0.557300  0.659700  1.0
  C  C204  1  0.522100  0.442700  0.840300  1.0
  C  C205  1  0.869500  0.420000  0.315500  1.0
  C  C206  1  0.369500  0.580000  0.184500  1.0
  C  C207  1  0.130500  0.580000  0.684500  1.0
  C  C208  1  0.630500  0.420000  0.815500  1.0
  C  C209  1  0.871500  0.366600  0.266200  1.0
  C  C210  1  0.371500  0.633400  0.233800  1.0
  C  C211  1  0.128500  0.633400  0.733800  1.0
  C  C212  1  0.628500  0.366600  0.766200  1.0
  C  C213  1  0.979900  0.495800  0.390000  1.0
  C  C214  1  0.479900  0.504200  0.110000  1.0
  C  C215  1  0.020100  0.504200  0.610000  1.0
  C  C216  1  0.520100  0.495800  0.890000  1.0
  C  C217  1  0.980600  0.536300  0.435040  1.0
  C  C218  1  0.480600  0.463700  0.064960  1.0
  C  C219  1  0.019400  0.463700  0.564960  1.0
  C  C220  1  0.519400  0.536300  0.935040  1.0
  C  C221  1  0.082400  0.038300  0.633700  1.0
  C  C222  1  0.582400  0.961700  0.866300  1.0
  C  C223  1  0.917600  0.961700  0.366300  1.0
  C  C224  1  0.417600  0.038300  0.133700  1.0
  C  C225  1  0.159900  0.059900  0.676760  1.0
  C  C226  1  0.659900  0.940100  0.823240  1.0
  C  C227  1  0.840100  0.940100  0.323240  1.0
  C  C228  1  0.340100  0.059900  0.176760  1.0
  C  C229  1  0.115000  0.087200  0.728010  1.0
  C  C230  1  0.615000  0.912800  0.771990  1.0
  C  C231  1  0.885000  0.912800  0.271990  1.0
  C  C232  1  0.385000  0.087200  0.228010  1.0
  C  C233  1  0.992500  0.092900  0.736210  1.0
  C  C234  1  0.492500  0.907100  0.763790  1.0
  C  C235  1  0.007500  0.907100  0.263790  1.0
  C  C236  1  0.507500  0.092900  0.236210  1.0
  C  C237  1  0.915000  0.071300  0.693150  1.0
  C  C238  1  0.415000  0.928700  0.806850  1.0
  C  C239  1  0.085000  0.928700  0.306850  1.0
  C  C240  1  0.585000  0.071300  0.193150  1.0
  C  C241  1  0.959900  0.044000  0.641890  1.0
  C  C242  1  0.459900  0.956000  0.858110  1.0
  C  C243  1  0.040100  0.956000  0.358110  1.0
  C  C244  1  0.540100  0.044000  0.141890  1.0
  C  C245  1  0.125700  0.005100  0.576000  1.0
  C  C246  1  0.625700  0.994900  0.924000  1.0
  C  C247  1  0.874300  0.994900  0.424000  1.0
  C  C248  1  0.374300  0.005100  0.076000  1.0
  C  C249  1  0.102600  0.074100  0.540600  1.0
  C  C250  1  0.602600  0.925900  0.959400  1.0
  C  C251  1  0.897400  0.925900  0.459400  1.0
  C  C252  1  0.397400  0.074100  0.040600  1.0
  C  C253  1  0.258400  0.977900  0.572500  1.0
  C  C254  1  0.758400  0.022100  0.927500  1.0
  C  C255  1  0.741600  0.022100  0.427500  1.0
  C  C256  1  0.241600  0.977900  0.072500  1.0
  C  C257  1  0.940700  0.120300  0.792300  1.0
  C  C258  1  0.440700  0.879700  0.707700  1.0
  C  C259  1  0.059300  0.879700  0.207700  1.0
  C  C260  1  0.559300  0.120300  0.292300  1.0
  C  C261  1  0.845100  0.277400  0.099000  1.0
  C  C262  1  0.345100  0.722600  0.401000  1.0
  C  C263  1  0.154900  0.722600  0.901000  1.0
  C  C264  1  0.654900  0.277400  0.599000  1.0
  C  C265  1  0.923000  0.212600  0.080100  1.0
  C  C266  1  0.423000  0.787400  0.419900  1.0
  C  C267  1  0.077000  0.787400  0.919900  1.0
  C  C268  1  0.577000  0.212600  0.580100  1.0
  C  C269  1  0.045400  0.225800  0.083400  1.0
  C  C270  1  0.545400  0.774200  0.416600  1.0
  C  C271  1  0.954600  0.774200  0.916600  1.0
  C  C272  1  0.454600  0.225800  0.583400  1.0
  C  C273  1  0.089800  0.303900  0.105600  1.0
  C  C274  1  0.589800  0.696100  0.394400  1.0
  C  C275  1  0.910200  0.696100  0.894400  1.0
  C  C276  1  0.410200  0.303900  0.605600  1.0
  C  C277  1  0.011900  0.368700  0.124500  1.0
  C  C278  1  0.511900  0.631300  0.375500  1.0
  C  C279  1  0.988100  0.631300  0.875500  1.0
  C  C280  1  0.488100  0.368700  0.624500  1.0
  C  C281  1  0.889500  0.355500  0.121200  1.0
  C  C282  1  0.389500  0.644500  0.378800  1.0
  C  C283  1  0.110500  0.644500  0.878800  1.0
  C  C284  1  0.610500  0.355500  0.621200  1.0
  C  C285  1  0.721700  0.248100  0.100200  1.0
  C  C286  1  0.221700  0.751900  0.399800  1.0
  C  C287  1  0.278300  0.751900  0.899800  1.0
  C  C288  1  0.778300  0.248100  0.600200  1.0
  C  C289  1  0.654000  0.314000  0.136500  1.0
  C  C290  1  0.154000  0.686000  0.363500  1.0
  C  C291  1  0.346000  0.686000  0.863500  1.0
  C  C292  1  0.846000  0.314000  0.636500  1.0
  C  C293  1  0.680000  0.231000  0.042100  1.0
  C  C294  1  0.180000  0.769000  0.457900  1.0
  C  C295  1  0.320000  0.769000  0.957900  1.0
  C  C296  1  0.820000  0.231000  0.542100  1.0
  C  C297  1  0.226100  0.305600  0.113100  1.0
  C  C298  1  0.726100  0.694400  0.386900  1.0
  C  C299  1  0.773900  0.694400  0.886900  1.0
  C  C300  1  0.273900  0.305600  0.613100  1.0
  S  S301  1  0.131600  0.013800  0.894540  1
  S  S302  1  0.631600  0.986200  0.605460  1
  S  S303  1  0.868400  0.986200  0.105460  1
  S  S304  1  0.368400  0.013800  0.394540  1
  N  N305  1  0.021800  0.850600  0.645700  1.0
  N  N306  1  0.521800  0.149400  0.854300  1.0
  N  N307  1  0.978200  0.149400  0.354300  1.0
  N  N308  1  0.478200  0.850600  0.145700  1.0
  N  N309  1  0.973400  0.344600  0.239400  1.0
  N  N310  1  0.473400  0.655400  0.260600  1.0
  N  N311  1  0.026600  0.655400  0.760600  1.0
  N  N312  1  0.526600  0.344600  0.739400  1.0
  O  O313  1  0.190200  0.054100  0.854300  1
  O  O314  1  0.690200  0.945900  0.645700  1
  O  O315  1  0.809800  0.945900  0.145700  1
  O  O316  1  0.309800  0.054100  0.354300  1
  O  O317  1  0.024500  0.968200  0.877300  1
  O  O318  1  0.524500  0.031800  0.622700  1
  O  O319  1  0.975500  0.031800  0.122700  1
  O  O320  1  0.475500  0.968200  0.377300  1
  O  O321  1  0.214200  0.970800  0.926400  1
  O  O322  1  0.714200  0.029200  0.573600  1
  O  O323  1  0.785800  0.029200  0.073600  1
  O  O324  1  0.285800  0.970800  0.426400  1
  O  O325  1  0.149400  0.901100  0.741800  1.0
  O  O326  1  0.649400  0.098900  0.758200  1.0
  O  O327  1  0.850600  0.098900  0.258200  1.0
  O  O328  1  0.350600  0.901100  0.241800  1.0
  O  O329  1  0.915500  0.910800  0.743100  1.0
  O  O330  1  0.415500  0.089200  0.756900  1.0
  O  O331  1  0.084500  0.089200  0.256900  1.0
  O  O332  1  0.584500  0.910800  0.243100  1.0
  O  O333  1  0.914600  0.813000  0.798300  1.0
  O  O334  1  0.414600  0.187000  0.701700  1.0
  O  O335  1  0.085400  0.187000  0.201700  1.0
  O  O336  1  0.585400  0.813000  0.298300  1.0
  O  O337  1  0.150000  0.803700  0.798800  1.0
  O  O338  1  0.650000  0.196300  0.701200  1.0
  O  O339  1  0.850000  0.196300  0.201200  1.0
  O  O340  1  0.350000  0.803700  0.298800  1.0
  F  F341  1  0.024400  0.075900  0.984300  1
  F  F342  1  0.524400  0.924100  0.515700  1
  F  F343  1  0.975600  0.924100  0.015700  1
  F  F344  1  0.475600  0.075900  0.484300  1
  F  F345  1  0.167100  0.150800  0.961300  1
  F  F346  1  0.667100  0.849200  0.538700  1
  F  F347  1  0.832900  0.849200  0.038700  1
  F  F348  1  0.332900  0.150800  0.461300  1
  F  F349  1  0.000900  0.147700  0.921400  1
  F  F350  1  0.500900  0.852300  0.578600  1
  F  F351  1  0.999100  0.852300  0.078600  1
  F  F352  1  0.499100  0.147700  0.421400  1
