# generated using pymatgen
data_H82Ru4C81S3N10(O7F3)3
_symmetry_space_group_name_H-M   'P 1'
_cell_length_a   16.25500000
_cell_length_b   17.30400000
_cell_length_c   21.41500000
_cell_angle_alpha   78.93000000
_cell_angle_beta   70.96000000
_cell_angle_gamma   74.07000000
_symmetry_Int_Tables_number   1
_chemical_formula_structural   H82Ru4C81S3N10(O7F3)3
_chemical_formula_sum   'H164 Ru8 C162 S6 N20 O42 F18'
_cell_volume   5440.43119966
_cell_formula_units_Z   2
loop_
 _symmetry_equiv_pos_site_id
 _symmetry_equiv_pos_as_xyz
  1  'x, y, z'
loop_
 _atom_site_type_symbol
 _atom_site_label
 _atom_site_symmetry_multiplicity
 _atom_site_fract_x
 _atom_site_fract_y
 _atom_site_fract_z
 _atom_site_occupancy
  H  H1  1  0.435200  0.897900  0.731900  1
  H  H2  1  0.564800  0.102100  0.268100  1
  H  H3  1  0.283300  0.903000  0.861200  1
  H  H4  1  0.716700  0.097000  0.138800  1
  H  H5  1  0.251100  0.884700  0.643800  1
  H  H6  1  0.748900  0.115300  0.356200  1
  H  H7  1  0.122700  0.897700  0.783600  1
  H  H8  1  0.877300  0.102300  0.216400  1
  H  H9  1  0.620000  0.670300  0.653800  1
  H  H10  1  0.380000  0.329700  0.346200  1
  H  H11  1  0.651600  0.838300  0.501500  1
  H  H12  1  0.348400  0.161700  0.498500  1
  H  H13  1  0.528000  0.764800  0.723800  1
  H  H14  1  0.472000  0.235200  0.276200  1
  H  H15  1  0.550800  0.937800  0.563600  1
  H  H16  1  0.449200  0.062200  0.436400  1
  H  H17  1  0.433000  0.151700  0.708700  1
  H  H18  1  0.567000  0.848300  0.291300  1
  H  H19  1  0.324000  0.228700  0.787800  1
  H  H20  1  0.676000  0.771300  0.212200  1
  H  H21  1  0.239700  0.153600  0.885100  1
  H  H22  1  0.760300  0.846400  0.114900  1
  H  H23  1  0.118500  0.938200  0.007000  1
  H  H24  1  0.881500  0.061800  0.993000  1
  H  H25  1  0.310000  0.762100  0.918500  1
  H  H26  1  0.690000  0.237900  0.081500  1
  H  H27  1  0.081400  0.843100  0.093600  1
  H  H28  1  0.918600  0.156900  0.906400  1
  H  H29  1  0.252600  0.673500  0.001900  1
  H  H30  1  0.747400  0.326500  0.998100  1
  H  H31  1  0.474000  0.834100  0.414600  1
  H  H32  1  0.526000  0.165900  0.585400  1
  H  H33  1  0.348400  0.678600  0.534600  1
  H  H34  1  0.651600  0.321400  0.465400  1
  H  H35  1  0.416300  0.926300  0.488300  1
  H  H36  1  0.583700  0.073700  0.511700  1
  H  H37  1  0.274200  0.768600  0.617900  1
  H  H38  1  0.725800  0.231400  0.382100  1
  H  H39  1  0.273600  0.139000  0.631600  1
  H  H40  1  0.726400  0.861000  0.368400  1
  H  H41  1  0.187700  0.211500  0.720900  1
  H  H42  1  0.812300  0.788500  0.279100  1
  H  H43  1  0.093800  0.136300  0.813300  1
  H  H44  1  0.906200  0.863700  0.186700  1
  H  H45  1  0.976300  0.929400  0.939800  1
  H  H46  1  0.023700  0.070600  0.060200  1
  H  H47  1  0.077800  0.768300  0.809000  1
  H  H48  1  0.922200  0.231700  0.191000  1
  H  H49  1  0.895100  0.840200  0.011800  1
  H  H50  1  0.104900  0.159800  0.988200  1
  H  H51  1  0.999700  0.680200  0.886000  1
  H  H52  1  0.000300  0.319800  0.114000  1
  H  H53  1  0.100900  0.513400  0.213400  1
  H  H54  1  0.899100  0.486600  0.786600  1
  H  H55  1  0.017300  0.635200  0.274400  1
  H  H56  1  0.982700  0.364800  0.725600  1
  H  H57  1  0.241400  0.731900  0.166900  1
  H  H58  1  0.758600  0.268100  0.833100  1
  H  H59  1  0.303200  0.617400  0.120600  1
  H  H60  1  0.696800  0.382600  0.879400  1
  H  H61  1  0.083900  0.775700  0.302200  1
  H  H62  1  0.916100  0.224300  0.697800  1
  H  H63  1  0.004700  0.778700  0.272200  1
  H  H64  1  0.995300  0.221300  0.727800  1
  H  H65  1  0.085400  0.820200  0.229200  1
  H  H66  1  0.914600  0.179800  0.770800  1
  H  H67  1  0.210300  0.452800  0.132500  1
  H  H68  1  0.789700  0.547200  0.867500  1
  H  H69  1  0.282800  0.527100  0.038700  1
  H  H70  1  0.717200  0.472900  0.961300  1
  H  H71  1  0.341200  0.436700  0.046300  1
  H  H72  1  0.658800  0.563300  0.953700  1
  H  H73  1  0.367600  0.509500  0.066000  1
  H  H74  1  0.632400  0.490500  0.934000  1
  H  H75  1  0.338900  0.362200  0.164800  1
  H  H76  1  0.661100  0.637800  0.835200  1
  H  H77  1  0.264200  0.402300  0.226800  1
  H  H78  1  0.735800  0.597700  0.773200  1
  H  H79  1  0.352600  0.436300  0.192000  1
  H  H80  1  0.647400  0.563700  0.808000  1
  H  H81  1  0.730600  0.636300  0.136000  1
  H  H82  1  0.269400  0.363700  0.864000  1
  H  H83  1  0.691200  0.758000  0.071800  1
  H  H84  1  0.308800  0.242000  0.928200  1
  H  H85  1  0.845000  0.660200  0.903600  1
  H  H86  1  0.155000  0.339800  0.096400  1
  H  H87  1  0.890500  0.536500  0.959100  1
  H  H88  1  0.109500  0.463500  0.040900  1
  H  H89  1  0.801000  0.449400  0.102900  1
  H  H90  1  0.199000  0.550600  0.897100  1
  H  H91  1  0.834700  0.500100  0.140900  1
  H  H92  1  0.165300  0.499900  0.859100  1
  H  H93  1  0.901300  0.461400  0.075400  1
  H  H94  1  0.098700  0.538600  0.924600  1
  H  H95  1  0.775900  0.809000  0.904000  1
  H  H96  1  0.224100  0.191000  0.096000  1
  H  H97  1  0.699800  0.737600  0.878400  1
  H  H98  1  0.300200  0.262400  0.121600  1
  H  H99  1  0.646200  0.830200  0.878300  1
  H  H100  1  0.353800  0.169800  0.121700  1
  H  H101  1  0.613900  0.765200  0.939300  1
  H  H102  1  0.386100  0.234800  0.060700  1
  H  H103  1  0.665300  0.919600  0.953900  1
  H  H104  1  0.334700  0.080400  0.046100  1
  H  H105  1  0.723300  0.873800  0.003400  1
  H  H106  1  0.276700  0.126200  0.996600  1
  H  H107  1  0.625500  0.859700  0.016600  1
  H  H108  1  0.374500  0.140300  0.983400  1
  H  H109  1  0.406000  0.534000  0.442600  1
  H  H110  1  0.594000  0.466000  0.557400  1
  H  H111  1  0.304900  0.667000  0.427900  1
  H  H112  1  0.695100  0.333000  0.572100  1
  H  H113  1  0.505300  0.732900  0.274800  1
  H  H114  1  0.494700  0.267100  0.725200  1
  H  H115  1  0.610200  0.597100  0.285900  1
  H  H116  1  0.389800  0.402900  0.714100  1
  H  H117  1  0.564800  0.428600  0.347800  1
  H  H118  1  0.435200  0.571400  0.652200  1
  H  H119  1  0.550500  0.449500  0.420800  1
  H  H120  1  0.449500  0.550500  0.579200  1
  H  H121  1  0.630500  0.474400  0.359900  1
  H  H122  1  0.369500  0.525600  0.640100  1
  H  H123  1  0.296300  0.803800  0.380300  1
  H  H124  1  0.703700  0.196200  0.619700  1
  H  H125  1  0.339600  0.910100  0.287800  1
  H  H126  1  0.660400  0.089900  0.712200  1
  H  H127  1  0.415500  0.843400  0.245700  1
  H  H128  1  0.584500  0.156600  0.754300  1
  H  H129  1  0.425500  0.864100  0.312200  1
  H  H130  1  0.574500  0.135900  0.687800  1
  H  H131  1  0.231200  0.739600  0.328800  1
  H  H132  1  0.768800  0.260400  0.671200  1
  H  H133  1  0.295500  0.764900  0.257700  1
  H  H134  1  0.704500  0.235100  0.742300  1
  H  H135  1  0.221600  0.832900  0.299700  1
  H  H136  1  0.778400  0.167100  0.700300  1
  H  H137  1  0.831000  0.731500  0.577100  1
  H  H138  1  0.169000  0.268500  0.422900  1
  H  H139  1  0.795500  0.617200  0.632300  1
  H  H140  1  0.204500  0.382800  0.367700  1
  H  H141  1  0.849900  0.514700  0.461100  1
  H  H142  1  0.150100  0.485300  0.538900  1
  H  H143  1  0.889800  0.639100  0.395900  1
  H  H144  1  0.110200  0.360900  0.604100  1
  H  H145  1  0.957700  0.775800  0.423300  1
  H  H146  1  0.042300  0.224200  0.576700  1
  H  H147  1  0.854300  0.821000  0.445300  1
  H  H148  1  0.145700  0.179000  0.554700  1
  H  H149  1  0.891200  0.764900  0.386200  1
  H  H150  1  0.108800  0.235100  0.613800  1
  H  H151  1  0.782200  0.453400  0.555300  1
  H  H152  1  0.217800  0.546600  0.444700  1
  H  H153  1  0.681100  0.520000  0.648800  1
  H  H154  1  0.318900  0.480000  0.351200  1
  H  H155  1  0.761300  0.511600  0.679300  1
  H  H156  1  0.238700  0.488400  0.320700  1
  H  H157  1  0.729400  0.432900  0.676700  1
  H  H158  1  0.270600  0.567100  0.323300  1
  H  H159  1  0.934900  0.404000  0.556100  1
  H  H160  1  0.065100  0.596000  0.443900  1
  H  H161  1  0.873800  0.366600  0.623800  1
  H  H162  1  0.126200  0.633400  0.376200  1
  H  H163  1  0.913300  0.441700  0.623900  1
  H  H164  1  0.086700  0.558300  0.376100  1
  Ru  Ru165  1  0.488630  0.662940  0.401140  1
  Ru  Ru166  1  0.511370  0.337060  0.598860  1
  Ru  Ru167  1  0.749130  0.662150  0.513570  1
  Ru  Ru168  1  0.250870  0.337850  0.486430  1
  Ru  Ru169  1  0.125590  0.660590  0.138860  1
  Ru  Ru170  1  0.874410  0.339410  0.861140  1
  Ru  Ru171  1  0.866540  0.671490  0.022590  1
  Ru  Ru172  1  0.133460  0.328510  0.977410  1
  C  C173  1  0.316000  0.641000  0.788000  1
  C  C174  1  0.684000  0.359000  0.212000  1
  C  C175  1  0.827000  0.513500  0.312500  1
  C  C176  1  0.173000  0.486500  0.687500  1
  C  C177  1  0.519000  0.582900  0.133300  1
  C  C178  1  0.481000  0.417100  0.866700  1
  C  C179  1  0.608200  0.725500  0.636000  1
  C  C180  1  0.391800  0.274500  0.364000  1
  C  C181  1  0.625200  0.822900  0.547200  1
  C  C182  1  0.374800  0.177100  0.452800  1
  C  C183  1  0.551400  0.780900  0.677700  1
  C  C184  1  0.448600  0.219100  0.322300  1
  C  C185  1  0.565000  0.884000  0.583900  1
  C  C186  1  0.435000  0.116000  0.416100  1
  C  C187  1  0.528000  0.863600  0.650800  1
  C  C188  1  0.472000  0.136400  0.349200  1
  C  C189  1  0.460100  0.997300  0.694000  1
  C  C190  1  0.539900  0.002700  0.306000  1
  C  C191  1  0.402900  0.039900  0.744600  1
  C  C192  1  0.597100  0.960100  0.255400  1
  C  C193  1  0.393700  0.125600  0.744400  1
  C  C194  1  0.606300  0.874400  0.255600  1
  C  C195  1  0.332400  0.171600  0.791800  1
  C  C196  1  0.667600  0.828400  0.208200  1
  C  C197  1  0.281500  0.127100  0.848600  1
  C  C198  1  0.718500  0.872900  0.151400  1
  C  C199  1  0.296100  0.043100  0.847800  1
  C  C200  1  0.703900  0.956900  0.152200  1
  C  C201  1  0.242000  0.001300  0.908000  1
  C  C202  1  0.758000  0.998700  0.092000  1
  C  C203  1  0.219000  0.867000  0.951000  1
  C  C204  1  0.781000  0.133000  0.049000  1
  C  C205  1  0.152000  0.883900  0.003800  1
  C  C206  1  0.848000  0.116100  0.996200  1
  C  C207  1  0.259000  0.781900  0.953600  1
  C  C208  1  0.741000  0.218100  0.046400  1
  C  C209  1  0.127600  0.824600  0.055500  1
  C  C210  1  0.872400  0.175400  0.944500  1
  C  C211  1  0.226000  0.729200  0.005100  1
  C  C212  1  0.774000  0.270800  0.994900  1
  C  C213  1  0.435900  0.819600  0.456900  1
  C  C214  1  0.564100  0.180400  0.543100  1
  C  C215  1  0.362300  0.730200  0.526400  1
  C  C216  1  0.637700  0.269800  0.473600  1
  C  C217  1  0.399400  0.875800  0.498800  1
  C  C218  1  0.600600  0.124200  0.501200  1
  C  C219  1  0.315100  0.783000  0.576800  1
  C  C220  1  0.684900  0.217000  0.423200  1
  C  C221  1  0.337100  0.859500  0.557400  1
  C  C222  1  0.662900  0.140500  0.442600  1
  C  C223  1  0.288800  0.986600  0.617800  1
  C  C224  1  0.711200  0.013400  0.382200  1
  C  C225  1  0.232000  0.032400  0.674000  1
  C  C226  1  0.768000  0.967600  0.326000  1
  C  C227  1  0.236200  0.114700  0.670000  1
  C  C228  1  0.763800  0.885300  0.330000  1
  C  C229  1  0.187300  0.156800  0.720300  1
  C  C230  1  0.812700  0.843200  0.279700  1
  C  C231  1  0.132500  0.111400  0.775000  1
  C  C232  1  0.867500  0.888600  0.225000  1
  C  C233  1  0.137800  0.034200  0.770400  1
  C  C234  1  0.862200  0.965800  0.229600  1
  C  C235  1  0.078000  0.993000  0.826100  1
  C  C236  1  0.922000  0.007000  0.173900  1
  C  C237  1  0.037700  0.857200  0.865400  1
  C  C238  1  0.962300  0.142800  0.134600  1
  C  C239  1  0.982100  0.878100  0.927100  1
  C  C240  1  0.017900  0.121900  0.072900  1
  C  C241  1  0.041900  0.784800  0.851200  1
  C  C242  1  0.958100  0.215200  0.148800  1
  C  C243  1  0.934300  0.823300  0.970500  1
  C  C244  1  0.065700  0.176700  0.029500  1
  C  C245  1  0.993900  0.732000  0.897700  1
  C  C246  1  0.006100  0.268000  0.102300  1
  C  C247  1  0.133000  0.555700  0.212100  1
  C  C248  1  0.867000  0.444300  0.787900  1
  C  C249  1  0.082100  0.628700  0.249200  1
  C  C250  1  0.917900  0.371300  0.750800  1
  C  C251  1  0.121700  0.693800  0.231600  1
  C  C252  1  0.878300  0.306200  0.768400  1
  C  C253  1  0.213000  0.684500  0.184500  1
  C  C254  1  0.787000  0.315500  0.815500  1
  C  C255  1  0.250000  0.615600  0.160500  1
  C  C256  1  0.750000  0.384400  0.839500  1
  C  C257  1  0.216300  0.553600  0.167500  1
  C  C258  1  0.783700  0.446400  0.832500  1
  C  C259  1  0.069100  0.774600  0.261600  1
  C  C260  1  0.930900  0.225400  0.738400  1
  C  C261  1  0.260000  0.475200  0.134700  1
  C  C262  1  0.740000  0.524800  0.865300  1
  C  C263  1  0.317800  0.488200  0.065500  1
  C  C264  1  0.682200  0.511800  0.934500  1
  C  C265  1  0.309000  0.413000  0.184000  1
  C  C266  1  0.691000  0.587000  0.816000  1
  C  C267  1  0.807700  0.566600  0.053100  1
  C  C268  1  0.192300  0.433400  0.946900  1
  C  C269  1  0.745600  0.637400  0.086700  1
  C  C270  1  0.254400  0.362600  0.913300  1
  C  C271  1  0.721000  0.708200  0.048700  1
  C  C272  1  0.279000  0.291800  0.951300  1
  C  C273  1  0.750400  0.718000  0.981400  1
  C  C274  1  0.249600  0.282000  0.018600  1
  C  C275  1  0.811100  0.650000  0.951400  1
  C  C276  1  0.188900  0.350000  0.048600  1
  C  C277  1  0.840000  0.577800  0.983500  1
  C  C278  1  0.160000  0.422200  0.016500  1
  C  C279  1  0.839100  0.486800  0.097200  1
  C  C280  1  0.160900  0.513200  0.902800  1
  C  C281  1  0.721000  0.797100  0.938800  1
  C  C282  1  0.279000  0.202900  0.061200  1
  C  C283  1  0.666000  0.781000  0.906200  1
  C  C284  1  0.334000  0.219000  0.093800  1
  C  C285  1  0.680000  0.869300  0.982300  1
  C  C286  1  0.320000  0.130700  0.017700  1
  C  C287  1  0.509500  0.546500  0.359800  1
  C  C288  1  0.490500  0.453500  0.640200  1
  C  C289  1  0.423800  0.569200  0.400000  1
  C  C290  1  0.576200  0.430800  0.600000  1
  C  C291  1  0.361900  0.651000  0.392100  1
  C  C292  1  0.638100  0.349000  0.607900  1
  C  C293  1  0.394000  0.708500  0.342000  1
  C  C294  1  0.606000  0.291500  0.658000  1
  C  C295  1  0.479000  0.687700  0.303200  1
  C  C296  1  0.521000  0.312300  0.696800  1
  C  C297  1  0.545000  0.605700  0.310500  1
  C  C298  1  0.455000  0.394300  0.689500  1
  C  C299  1  0.568800  0.468200  0.373200  1
  C  C300  1  0.431200  0.531800  0.626800  1
  C  C301  1  0.329600  0.787000  0.334900  1
  C  C302  1  0.670400  0.213000  0.665100  1
  C  C303  1  0.383100  0.858500  0.290600  1
  C  C304  1  0.616900  0.141500  0.709400  1
  C  C305  1  0.264000  0.780600  0.303000  1
  C  C306  1  0.736000  0.219400  0.697000  1
  C  C307  1  0.875500  0.696600  0.480600  1
  C  C308  1  0.124500  0.303400  0.519400  1
  C  C309  1  0.847900  0.683700  0.552000  1
  C  C310  1  0.152100  0.316300  0.448000  1
  C  C311  1  0.827600  0.618200  0.583700  1
  C  C312  1  0.172400  0.381800  0.416300  1
  C  C313  1  0.831300  0.557200  0.552300  1
  C  C314  1  0.168700  0.442800  0.447700  1
  C  C315  1  0.857500  0.557800  0.482500  1
  C  C316  1  0.142500  0.442200  0.517500  1
  C  C317  1  0.881500  0.629900  0.444900  1
  C  C318  1  0.118500  0.370100  0.555100  1
  C  C319  1  0.896600  0.771600  0.429000  1
  C  C320  1  0.103400  0.228400  0.571000  1
  C  C321  1  0.805700  0.475200  0.584400  1
  C  C322  1  0.194300  0.524800  0.415600  1
  C  C323  1  0.738300  0.485900  0.653600  1
  C  C324  1  0.261700  0.514100  0.346400  1
  C  C325  1  0.889500  0.416600  0.598300  1
  C  C326  1  0.110500  0.583400  0.401700  1
  C  C327  1  0.631600  0.695800  0.428800  1
  C  C328  1  0.368400  0.304200  0.571200  1
  C  C329  1  0.607400  0.626400  0.475700  1
  C  C330  1  0.392600  0.373600  0.524300  1
  C  C331  1  0.960200  0.698900  0.106100  1
  C  C332  1  0.039800  0.301100  0.893900  1
  C  C333  1  0.017800  0.634600  0.065800  1
  C  C334  1  0.982200  0.365400  0.934200  1
  S  S335  1  0.316500  0.764800  0.751400  1
  S  S336  1  0.683500  0.235200  0.248600  1
  S  S337  1  0.834900  0.599500  0.258100  1
  S  S338  1  0.165100  0.400500  0.741900  1
  S  S339  1  0.492100  0.690700  0.108300  1
  S  S340  1  0.507900  0.309300  0.891700  1
  N  N341  1  0.649300  0.745100  0.569400  1
  N  N342  1  0.350700  0.254900  0.430600  1
  N  N343  1  0.470200  0.919600  0.696200  1
  N  N344  1  0.529800  0.080400  0.303800  1
  N  N345  1  0.348500  0.002000  0.801500  1
  N  N346  1  0.651500  0.998000  0.198500  1
  N  N347  1  0.253200  0.920000  0.900200  1
  N  N348  1  0.746800  0.080000  0.099800  1
  N  N349  1  0.160800  0.746700  0.057900  1
  N  N350  1  0.839200  0.253300  0.942100  1
  N  N351  1  0.423200  0.744900  0.469700  1
  N  N352  1  0.576800  0.255100  0.530300  1
  N  N353  1  0.287900  0.907900  0.610300  1
  N  N354  1  0.712100  0.092100  0.389700  1
  N  N355  1  0.184400  0.989500  0.722900  1
  N  N356  1  0.815600  0.010500  0.277100  1
  N  N357  1  0.084300  0.915700  0.820400  1
  N  N358  1  0.915700  0.084300  0.179600  1
  N  N359  1  0.939900  0.751000  0.958300  1
  N  N360  1  0.060100  0.249000  0.041700  1
  O  O361  1  0.390000  0.734500  0.687800  1
  O  O362  1  0.610000  0.265500  0.312200  1
  O  O363  1  0.237900  0.794600  0.738100  1
  O  O364  1  0.762100  0.205400  0.261900  1
  O  O365  1  0.344200  0.810000  0.791400  1
  O  O366  1  0.655800  0.190000  0.208600  1
  O  O367  1  0.915400  0.563700  0.200300  1
  O  O368  1  0.084600  0.436300  0.799700  1
  O  O369  1  0.755000  0.628000  0.244200  1
  O  O370  1  0.245000  0.372000  0.755800  1
  O  O371  1  0.859900  0.651700  0.292100  1
  O  O372  1  0.140100  0.348300  0.707900  1
  O  O373  1  0.545800  0.687200  0.041000  1
  O  O374  1  0.454200  0.312800  0.959000  1
  O  O375  1  0.399700  0.715800  0.110200  1
  O  O376  1  0.600300  0.284200  0.889800  1
  O  O377  1  0.525400  0.728500  0.146100  1
  O  O378  1  0.474600  0.271500  0.853900  1
  O  O379  1  0.510300  0.034100  0.639700  1
  O  O380  1  0.489700  0.965900  0.360300  1
  O  O381  1  0.194000  0.033400  0.956800  1
  O  O382  1  0.806000  0.966600  0.043200  1
  O  O383  1  0.334100  0.019900  0.562700  1
  O  O384  1  0.665900  0.980100  0.437300  1
  O  O385  1  0.029400  0.028300  0.874500  1
  O  O386  1  0.970600  0.971700  0.125500  1
  O  O387  1  0.695900  0.723600  0.434100  1
  O  O388  1  0.304100  0.276400  0.565900  1
  O  O389  1  0.648500  0.603100  0.525600  1
  O  O390  1  0.351500  0.396900  0.474400  1
  O  O391  1  0.597100  0.717400  0.383400  1
  O  O392  1  0.402900  0.282600  0.616600  1
  O  O393  1  0.547400  0.599100  0.476900  1
  O  O394  1  0.452600  0.400900  0.523100  1
  O  O395  1  0.101700  0.603200  0.074400  1
  O  O396  1  0.898300  0.396800  0.925600  1
  O  O397  1  0.993600  0.724700  0.139900  1
  O  O398  1  0.006400  0.275300  0.860100  1
  O  O399  1  0.996000  0.604000  0.026700  1
  O  O400  1  0.004000  0.396000  0.973300  1
  O  O401  1  0.891500  0.724000  0.094200  1
  O  O402  1  0.108500  0.276000  0.905800  1
  F  F403  1  0.290200  0.621100  0.765300  1
  F  F404  1  0.709800  0.378900  0.234700  1
  F  F405  1  0.378400  0.636600  0.820800  1
  F  F406  1  0.621600  0.363400  0.179200  1
  F  F407  1  0.240700  0.678400  0.858700  1
  F  F408  1  0.759300  0.321600  0.141300  1
  F  F409  1  0.809300  0.452700  0.292400  1
  F  F410  1  0.190700  0.547300  0.707600  1
  F  F411  1  0.896500  0.482800  0.331800  1
  F  F412  1  0.103500  0.517200  0.668200  1
  F  F413  1  0.755600  0.536500  0.370700  1
  F  F414  1  0.244400  0.463500  0.629300  1
  F  F415  1  0.589100  0.552600  0.143400  1
  F  F416  1  0.410900  0.447400  0.856600  1
  F  F417  1  0.455600  0.574200  0.198800  1
  F  F418  1  0.544400  0.425800  0.801200  1
  F  F419  1  0.489900  0.538400  0.107700  1
  F  F420  1  0.510100  0.461600  0.892300  1
