# generated using pymatgen
data_SiAg8B6H80C80N32(O8F15)2
_symmetry_space_group_name_H-M   'P 1'
_cell_length_a   12.26900000
_cell_length_b   14.97000000
_cell_length_c   15.40800000
_cell_angle_alpha   93.42400000
_cell_angle_beta   103.89400000
_cell_angle_gamma   100.83200000
_symmetry_Int_Tables_number   1
_chemical_formula_structural   SiAg8B6H80C80N32(O8F15)2
_chemical_formula_sum   'Si1 Ag8 B6 H80 C80 N32 O16 F30'
_cell_volume   2681.82817858
_cell_formula_units_Z   1
loop_
 _symmetry_equiv_pos_site_id
 _symmetry_equiv_pos_as_xyz
  1  'x, y, z'
loop_
 _atom_site_type_symbol
 _atom_site_label
 _atom_site_symmetry_multiplicity
 _atom_site_fract_x
 _atom_site_fract_y
 _atom_site_fract_z
 _atom_site_occupancy
  Si  Si1  1  0.500000  0.500000  0.500000  1
  Ag  Ag2  1  0.403350  0.765210  0.593090  1
  Ag  Ag3  1  0.596650  0.234790  0.406910  1
  Ag  Ag4  1  0.739400  0.661530  0.377330  1
  Ag  Ag5  1  0.260600  0.338470  0.622670  1
  Ag  Ag6  1  0.815880  0.320890  0.592810  1
  Ag  Ag7  1  0.184120  0.679110  0.407190  1
  Ag  Ag8  1  0.476330  0.428990  0.800540  1
  Ag  Ag9  1  0.523670  0.571010  0.199460  1
  B  B10  1  0.021500  0.670800  0.920900  1
  B  B11  1  0.978500  0.329200  0.079100  1
  B  B12  1  0.644100  0.854300  0.119300  1
  B  B13  1  0.355900  0.145700  0.880700  1
  B  B14  1  0.982600  0.839300  0.598700  1
  B  B15  1  0.017400  0.160700  0.401300  1
  H  H16  1  0.604800  0.705700  0.513700  1
  H  H17  1  0.395200  0.294300  0.486300  1
  H  H18  1  0.656700  0.839300  0.313500  1
  H  H19  1  0.343300  0.160700  0.686500  1
  H  H20  1  0.522900  0.923600  0.330200  1
  H  H21  1  0.477100  0.076400  0.669800  1
  H  H22  1  0.394400  0.995400  0.354800  1
  H  H23  1  0.605600  0.004600  0.645200  1
  H  H24  1  0.248300  0.063000  0.381900  1
  H  H25  1  0.751700  0.937000  0.618100  1
  H  H26  1  0.164400  0.017200  0.496100  1
  H  H27  1  0.835600  0.982800  0.503900  1
  H  H28  1  0.225000  0.903300  0.576700  1
  H  H29  1  0.775000  0.096700  0.423300  1
  H  H30  1  0.763800  0.499000  0.512600  1
  H  H31  1  0.236200  0.501000  0.487400  1
  H  H32  1  0.943300  0.330700  0.444100  1
  H  H33  1  0.056700  0.669300  0.555900  1
  H  H34  1  0.971100  0.413300  0.327200  1
  H  H35  1  0.028900  0.586700  0.672800  1
  H  H36  1  0.996200  0.498100  0.226800  1
  H  H37  1  0.003800  0.501900  0.773200  1
  H  H38  1  0.003500  0.586100  0.108100  1
  H  H39  1  0.996500  0.413900  0.891900  1
  H  H40  1  0.908200  0.706900  0.095200  1
  H  H41  1  0.091800  0.293100  0.904800  1
  H  H42  1  0.806800  0.733500  0.196900  1
  H  H43  1  0.193200  0.266500  0.803100  1
  H  H44  1  0.617300  0.384100  0.669200  1
  H  H45  1  0.382700  0.615900  0.330800  1
  H  H46  1  0.583300  0.271500  0.885500  1
  H  H47  1  0.416700  0.728500  0.114500  1
  H  H48  1  0.720700  0.189900  0.874300  1
  H  H49  1  0.279300  0.810100  0.125700  1
  H  H50  1  0.854400  0.123800  0.858800  1
  H  H51  1  0.145600  0.876200  0.141200  1
  H  H52  1  0.994700  0.048900  0.831700  1
  H  H53  1  0.005300  0.951100  0.168300  1
  H  H54  1  0.060400  0.073000  0.704300  1
  H  H55  1  0.939600  0.927000  0.295700  1
  H  H56  1  0.988600  0.173500  0.609400  1
  H  H57  1  0.011400  0.826500  0.390600  1
  H  H58  1  0.455700  0.592200  0.675400  1
  H  H59  1  0.544300  0.407800  0.324600  1
  H  H60  1  0.280400  0.759600  0.749200  1
  H  H61  1  0.719600  0.240400  0.250800  1
  H  H62  1  0.267600  0.682100  0.873100  1
  H  H63  1  0.732400  0.317900  0.126900  1
  H  H64  1  0.251200  0.599000  0.977700  1
  H  H65  1  0.748800  0.401000  0.022300  1
  H  H66  1  0.237900  0.502000  0.089300  1
  H  H67  1  0.762100  0.498000  0.910700  1
  H  H68  1  0.319500  0.374000  0.090300  1
  H  H69  1  0.680500  0.626000  0.909700  1
  H  H70  1  0.409000  0.345300  0.980000  1
  H  H71  1  0.591000  0.654700  0.020000  1
  H  H72  1  0.800000  0.844600  0.920900  1
  H  H73  1  0.200000  0.155400  0.079100  1
  H  H74  1  0.782600  0.931700  0.872000  1
  H  H75  1  0.217400  0.068300  0.128000  1
  H  H76  1  0.848000  0.862900  0.836600  1
  H  H77  1  0.152000  0.137100  0.163400  1
  H  H78  1  0.564700  0.963200  0.940600  1
  H  H79  1  0.435300  0.036800  0.059400  1
  H  H80  1  0.496200  0.864400  0.899900  1
  H  H81  1  0.503800  0.135600  0.100100  1
  H  H82  1  0.430100  0.942300  0.912400  1
  H  H83  1  0.569900  0.057700  0.087600  1
  H  H84  1  0.062000  0.900100  0.815300  1
  H  H85  1  0.938000  0.099900  0.184700  1
  H  H86  1  0.147500  0.833500  0.833700  1
  H  H87  1  0.852500  0.166500  0.166300  1
  H  H88  1  0.192500  0.936000  0.821700  1
  H  H89  1  0.807500  0.064000  0.178300  1
  H  H90  1  0.879500  0.703500  0.737400  1
  H  H91  1  0.120500  0.296500  0.262600  1
  H  H92  1  0.753400  0.708000  0.688200  1
  H  H93  1  0.246600  0.292000  0.311800  1
  H  H94  1  0.830200  0.667100  0.635200  1
  H  H95  1  0.169800  0.332900  0.364800  1
  C  C96  1  0.587100  0.749500  0.475300  1
  C  C97  1  0.412900  0.250500  0.524700  1
  C  C98  1  0.618000  0.827500  0.358000  1
  C  C99  1  0.382000  0.172500  0.642000  1
  C  C100  1  0.538500  0.878600  0.367600  1
  C  C101  1  0.461500  0.121400  0.632400  1
  C  C102  1  0.482500  0.860700  0.434700  1
  C  C103  1  0.517500  0.139300  0.565300  1
  C  C104  1  0.391500  0.907900  0.450000  1
  C  C105  1  0.608500  0.092100  0.550000  1
  C  C106  1  0.358600  0.976800  0.399400  1
  C  C107  1  0.641400  0.023200  0.600600  1
  C  C108  1  0.272100  0.017600  0.416000  1
  C  C109  1  0.727900  0.982400  0.584000  1
  C  C110  1  0.221900  0.990200  0.483100  1
  C  C111  1  0.778100  0.009800  0.516900  1
  C  C112  1  0.258900  0.921700  0.531000  1
  C  C113  1  0.741100  0.078300  0.469000  1
  C  C114  1  0.806700  0.481500  0.474700  1
  C  C115  1  0.193300  0.518500  0.525300  1
  C  C116  1  0.911500  0.382200  0.435000  1
  C  C117  1  0.088500  0.617800  0.565000  1
  C  C118  1  0.929000  0.431400  0.365400  1
  C  C119  1  0.071000  0.568600  0.634600  1
  C  C120  1  0.882300  0.509000  0.353100  1
  C  C121  1  0.117700  0.491000  0.646900  1
  C  C122  1  0.894300  0.566000  0.279400  1
  C  C123  1  0.105700  0.434000  0.720600  1
  C  C124  1  0.957700  0.546200  0.219500  1
  C  C125  1  0.042300  0.453800  0.780500  1
  C  C126  1  0.962600  0.598600  0.149300  1
  C  C127  1  0.037400  0.401400  0.850700  1
  C  C128  1  0.905600  0.670000  0.141400  1
  C  C129  1  0.094400  0.330000  0.858600  1
  C  C130  1  0.845200  0.685400  0.202900  1
  C  C131  1  0.154800  0.314600  0.797100  1
  C  C132  1  0.638300  0.344300  0.711300  1
  C  C133  1  0.361700  0.655700  0.288700  1
  C  C134  1  0.618200  0.278600  0.838300  1
  C  C135  1  0.381800  0.721400  0.161700  1
  C  C136  1  0.699900  0.229800  0.832300  1
  C  C137  1  0.300100  0.770200  0.167700  1
  C  C138  1  0.751100  0.241400  0.761600  1
  C  C139  1  0.248900  0.758600  0.238400  1
  C  C140  1  0.841600  0.192200  0.748400  1
  C  C141  1  0.158400  0.807800  0.251600  1
  C  C142  1  0.882500  0.133100  0.808400  1
  C  C143  1  0.117500  0.866900  0.191600  1
  C  C144  1  0.965800  0.088400  0.792100  1
  C  C145  1  0.034200  0.911600  0.207900  1
  C  C146  1  0.005300  0.103100  0.717000  1
  C  C147  1  0.994700  0.896900  0.283000  1
  C  C148  1  0.961500  0.163600  0.660200  1
  C  C149  1  0.038500  0.836400  0.339800  1
  C  C150  1  0.415500  0.610000  0.715100  1
  C  C151  1  0.584500  0.390000  0.284900  1
  C  C152  1  0.314300  0.709200  0.758200  1
  C  C153  1  0.685700  0.290800  0.241800  1
  C  C154  1  0.304400  0.662300  0.831700  1
  C  C155  1  0.695600  0.337700  0.168300  1
  C  C156  1  0.350800  0.585400  0.841500  1
  C  C157  1  0.649200  0.414600  0.158500  1
  C  C158  1  0.340200  0.526700  0.915100  1
  C  C159  1  0.659800  0.473300  0.084900  1
  C  C160  1  0.283300  0.547400  0.979300  1
  C  C161  1  0.716700  0.452600  0.020700  1
  C  C162  1  0.275300  0.489500  0.045700  1
  C  C163  1  0.724700  0.510500  0.954300  1
  C  C164  1  0.323400  0.413500  0.046200  1
  C  C165  1  0.676600  0.586500  0.953800  1
  C  C166  1  0.377400  0.397100  0.980000  1
  C  C167  1  0.622600  0.602900  0.020000  1
  C  C168  1  0.786500  0.868400  0.863700  1
  C  C169  1  0.213500  0.131600  0.136300  1
  C  C170  1  0.497400  0.928600  0.897900  1
  C  C171  1  0.502600  0.071400  0.102100  1
  C  C172  1  0.138700  0.895200  0.844700  1
  C  C173  1  0.861300  0.104800  0.155300  1
  C  C174  1  0.812000  0.673000  0.692200  1
  C  C175  1  0.188000  0.327000  0.307800  1
  N  N176  1  0.508500  0.796200  0.489100  1
  N  N177  1  0.491500  0.203800  0.510900  1
  N  N178  1  0.642200  0.761400  0.410100  1
  N  N179  1  0.357800  0.238600  0.589900  1
  N  N180  1  0.341100  0.880200  0.515100  1
  N  N181  1  0.658900  0.119800  0.484900  1
  N  N182  1  0.820500  0.533000  0.409000  1
  N  N183  1  0.179500  0.467000  0.591000  1
  N  N184  1  0.849700  0.406500  0.490500  1
  N  N185  1  0.150300  0.593500  0.509500  1
  N  N186  1  0.838000  0.635200  0.271200  1
  N  N187  1  0.162000  0.364800  0.728800  1
  N  N188  1  0.718700  0.298400  0.700600  1
  N  N189  1  0.281300  0.701600  0.299400  1
  N  N190  1  0.586200  0.337000  0.777900  1
  N  N191  1  0.413800  0.663000  0.222100  1
  N  N192  1  0.882100  0.208500  0.675500  1
  N  N193  1  0.117900  0.791500  0.324500  1
  N  N194  1  0.406700  0.559400  0.782700  1
  N  N195  1  0.593300  0.440600  0.217300  1
  N  N196  1  0.370800  0.684400  0.700300  1
  N  N197  1  0.629200  0.315600  0.299700  1
  N  N198  1  0.386700  0.451800  0.915700  1
  N  N199  1  0.613300  0.548200  0.084300  1
  N  N200  1  0.677400  0.816500  0.804700  1
  N  N201  1  0.322600  0.183500  0.195300  1
  N  N202  1  0.499400  0.952600  0.807200  1
  N  N203  1  0.500600  0.047400  0.192800  1
  N  N204  1  0.160200  0.919600  0.940900  1
  N  N205  1  0.839800  0.080400  0.059100  1
  N  N206  1  0.770200  0.580400  0.716900  1
  N  N207  1  0.229800  0.419600  0.283100  1
  O  O208  1  0.650200  0.829900  0.724900  1
  O  O209  1  0.349800  0.170100  0.275100  1
  O  O210  1  0.615800  0.763900  0.836700  1
  O  O211  1  0.384200  0.236100  0.163300  1
  O  O212  1  0.419100  0.918700  0.743400  1
  O  O213  1  0.580900  0.081300  0.256600  1
  O  O214  1  0.584700  0.006800  0.800300  1
  O  O215  1  0.415300  0.993200  0.199700  1
  O  O216  1  0.246900  0.907100  0.989400  1
  O  O217  1  0.753100  0.092900  0.010600  1
  O  O218  1  0.087400  0.949200  0.968100  1
  O  O219  1  0.912600  0.050800  0.031900  1
  O  O220  1  0.696000  0.571600  0.757800  1
  O  O221  1  0.304000  0.428400  0.242200  1
  O  O222  1  0.813800  0.519600  0.695900  1
  O  O223  1  0.186200  0.480400  0.304100  1
  F  F224  1  0.948000  0.726100  0.925700  1
  F  F225  1  0.052000  0.273900  0.074300  1
  F  F226  1  0.052600  0.672900  0.839800  1
  F  F227  1  0.947400  0.327100  0.160200  1
  F  F228  1  0.117500  0.698200  0.987400  1
  F  F229  1  0.882500  0.301800  0.012600  1
  F  F230  1  0.975000  0.583600  0.928000  1
  F  F231  1  0.025000  0.416400  0.072000  1
  F  F232  1  0.543200  0.846600  0.060400  1
  F  F233  1  0.456800  0.153400  0.939600  1
  F  F234  1  0.665700  0.924000  0.183800  1
  F  F235  1  0.334300  0.076000  0.816200  1
  F  F236  1  0.728400  0.864700  0.077200  1
  F  F237  1  0.271600  0.135300  0.922800  1
  F  F238  1  0.635400  0.776300  0.162200  1
  F  F239  1  0.364600  0.223700  0.837800  1
  F  F240  1  0.912200  0.852900  0.653400  1
  F  F241  1  0.087800  0.147100  0.346600  1
  F  F242  1  0.079300  0.811800  0.648000  1
  F  F243  1  0.920700  0.188200  0.352000  1
  F  F244  1  0.927400  0.771300  0.529600  1
  F  F245  1  0.072600  0.228700  0.470400  1
  F  F246  1  0.015200  0.919800  0.564600  1
  F  F247  1  0.984800  0.080200  0.435400  1
  F  F248  1  0.430300  0.585800  0.511500  1.0
  F  F249  1  0.569700  0.414200  0.488500  1.0
  F  F250  1  0.477100  0.463100  0.597000  1.0
  F  F251  1  0.522900  0.536900  0.403000  1.0
  F  F252  1  0.624600  0.568500  0.556000  1.0
  F  F253  1  0.375400  0.431500  0.444000  1.0
