# generated using pymatgen
data_SiAg8B6H80C80N32(O8F15)2
_symmetry_space_group_name_H-M   'P 1'
_cell_length_a   12.25800000
_cell_length_b   14.97900000
_cell_length_c   15.42200000
_cell_angle_alpha   93.36500000
_cell_angle_beta   103.91900000
_cell_angle_gamma   100.86800000
_symmetry_Int_Tables_number   1
_chemical_formula_structural   SiAg8B6H80C80N32(O8F15)2
_chemical_formula_sum   'Si1 Ag8 B6 H80 C80 N32 O16 F30'
_cell_volume   2683.09984981
_cell_formula_units_Z   1
loop_
 _symmetry_equiv_pos_site_id
 _symmetry_equiv_pos_as_xyz
  1  'x, y, z'
loop_
 _atom_site_type_symbol
 _atom_site_label
 _atom_site_symmetry_multiplicity
 _atom_site_fract_x
 _atom_site_fract_y
 _atom_site_fract_z
 _atom_site_occupancy
  Si  Si1  1  0.500000  0.500000  0.500000  1
  Ag  Ag2  1  0.403890  0.765210  0.593350  1
  Ag  Ag3  1  0.596110  0.234790  0.406650  1
  Ag  Ag4  1  0.739650  0.661670  0.377040  1
  Ag  Ag5  1  0.260350  0.338330  0.622960  1
  Ag  Ag6  1  0.815990  0.321020  0.592730  1
  Ag  Ag7  1  0.184010  0.678980  0.407270  1
  Ag  Ag8  1  0.476550  0.428830  0.800750  1
  Ag  Ag9  1  0.523450  0.571170  0.199250  1
  B  B10  1  0.022500  0.670400  0.921000  1
  B  B11  1  0.977500  0.329600  0.079000  1
  B  B12  1  0.644200  0.854200  0.118800  1
  B  B13  1  0.355800  0.145800  0.881200  1
  B  B14  1  0.981700  0.838700  0.598800  1
  B  B15  1  0.018300  0.161300  0.401200  1
  H  H16  1  0.604700  0.706000  0.513200  1
  H  H17  1  0.395300  0.294000  0.486800  1
  H  H18  1  0.656100  0.838200  0.312600  1
  H  H19  1  0.343900  0.161800  0.687400  1
  H  H20  1  0.523300  0.923900  0.330900  1
  H  H21  1  0.476700  0.076100  0.669100  1
  H  H22  1  0.394800  0.994500  0.354800  1
  H  H23  1  0.605200  0.005500  0.645200  1
  H  H24  1  0.249500  0.063300  0.382500  1
  H  H25  1  0.750500  0.936700  0.617500  1
  H  H26  1  0.164700  0.016800  0.496400  1
  H  H27  1  0.835300  0.983200  0.503600  1
  H  H28  1  0.225600  0.903200  0.577400  1
  H  H29  1  0.774400  0.096800  0.422600  1
  H  H30  1  0.764300  0.499200  0.512400  1
  H  H31  1  0.235700  0.500800  0.487600  1
  H  H32  1  0.944200  0.331200  0.444700  1
  H  H33  1  0.055800  0.668800  0.555300  1
  H  H34  1  0.970800  0.412900  0.326500  1
  H  H35  1  0.029200  0.587100  0.673500  1
  H  H36  1  0.996600  0.498200  0.227000  1
  H  H37  1  0.003400  0.501800  0.773000  1
  H  H38  1  0.003600  0.585900  0.107800  1
  H  H39  1  0.996400  0.414100  0.892200  1
  H  H40  1  0.909100  0.707100  0.095100  1
  H  H41  1  0.090900  0.292900  0.904900  1
  H  H42  1  0.805800  0.733000  0.195900  1
  H  H43  1  0.194200  0.267000  0.804100  1
  H  H44  1  0.617000  0.383400  0.669500  1
  H  H45  1  0.383000  0.616600  0.330500  1
  H  H46  1  0.583700  0.271500  0.885300  1
  H  H47  1  0.416300  0.728500  0.114700  1
  H  H48  1  0.722100  0.190200  0.874500  1
  H  H49  1  0.277900  0.809800  0.125500  1
  H  H50  1  0.853700  0.123300  0.858000  1
  H  H51  1  0.146300  0.876700  0.142000  1
  H  H52  1  0.994800  0.049400  0.831200  1
  H  H53  1  0.005200  0.950600  0.168800  1
  H  H54  1  0.059800  0.072500  0.703700  1
  H  H55  1  0.940200  0.927500  0.296300  1
  H  H56  1  0.989000  0.174100  0.609500  1
  H  H57  1  0.011000  0.825900  0.390500  1
  H  H58  1  0.456800  0.592000  0.676100  1
  H  H59  1  0.543200  0.408000  0.323900  1
  H  H60  1  0.281200  0.759300  0.749300  1
  H  H61  1  0.718800  0.240700  0.250700  1
  H  H62  1  0.268600  0.681900  0.873100  1
  H  H63  1  0.731400  0.318100  0.126900  1
  H  H64  1  0.251000  0.598600  0.976700  1
  H  H65  1  0.749000  0.401400  0.023300  1
  H  H66  1  0.238800  0.502900  0.089100  1
  H  H67  1  0.761200  0.497100  0.910900  1
  H  H68  1  0.320000  0.374200  0.090600  1
  H  H69  1  0.680000  0.625800  0.909400  1
  H  H70  1  0.408600  0.345100  0.980200  1
  H  H71  1  0.591400  0.654900  0.019800  1
  H  H72  1  0.801600  0.840800  0.919100  1
  H  H73  1  0.198400  0.159200  0.080900  1
  H  H74  1  0.781100  0.930500  0.876200  1
  H  H75  1  0.218900  0.069500  0.123800  1
  H  H76  1  0.847500  0.866200  0.835300  1
  H  H77  1  0.152500  0.133800  0.164700  1
  H  H78  1  0.432000  0.944100  0.913800  1
  H  H79  1  0.568000  0.055900  0.086200  1
  H  H80  1  0.566600  0.963000  0.940700  1
  H  H81  1  0.433400  0.037000  0.059300  1
  H  H82  1  0.495400  0.864800  0.900400  1
  H  H83  1  0.504600  0.135200  0.099600  1
  H  H84  1  0.060600  0.896800  0.816500  1
  H  H85  1  0.939400  0.103200  0.183500  1
  H  H86  1  0.153200  0.836100  0.833000  1
  H  H87  1  0.846800  0.163900  0.167000  1
  H  H88  1  0.189300  0.940000  0.821800  1
  H  H89  1  0.810700  0.060000  0.178200  1
  H  H90  1  0.876400  0.704200  0.738900  1
  H  H91  1  0.123600  0.295800  0.261100  1
  H  H92  1  0.750800  0.706500  0.686000  1
  H  H93  1  0.249200  0.293500  0.314000  1
  H  H94  1  0.832200  0.666900  0.636800  1
  H  H95  1  0.167800  0.333100  0.363200  1
  C  C96  1  0.587000  0.749900  0.474900  1
  C  C97  1  0.413000  0.250100  0.525100  1
  C  C98  1  0.618100  0.826900  0.357500  1
  C  C99  1  0.381900  0.173100  0.642500  1
  C  C100  1  0.538600  0.878500  0.367800  1
  C  C101  1  0.461400  0.121500  0.632200  1
  C  C102  1  0.482500  0.860200  0.434900  1
  C  C103  1  0.517500  0.139800  0.565100  1
  C  C104  1  0.391400  0.907400  0.450200  1
  C  C105  1  0.608600  0.092600  0.549800  1
  C  C106  1  0.359000  0.976300  0.399500  1
  C  C107  1  0.641000  0.023700  0.600500  1
  C  C108  1  0.272800  0.017600  0.416200  1
  C  C109  1  0.727200  0.982400  0.583800  1
  C  C110  1  0.222300  0.990000  0.483500  1
  C  C111  1  0.777700  0.010000  0.516500  1
  C  C112  1  0.259200  0.921400  0.531600  1
  C  C113  1  0.740800  0.078600  0.468400  1
  C  C114  1  0.806900  0.481600  0.474400  1
  C  C115  1  0.193100  0.518400  0.525600  1
  C  C116  1  0.911800  0.382300  0.435100  1
  C  C117  1  0.088200  0.617700  0.564900  1
  C  C118  1  0.929100  0.431100  0.364800  1
  C  C119  1  0.070900  0.568900  0.635200  1
  C  C120  1  0.881900  0.509200  0.352800  1
  C  C121  1  0.118100  0.490800  0.647200  1
  C  C122  1  0.894100  0.566000  0.279000  1
  C  C123  1  0.105900  0.434000  0.721000  1
  C  C124  1  0.957900  0.546100  0.219500  1
  C  C125  1  0.042100  0.453900  0.780500  1
  C  C126  1  0.962800  0.598600  0.149000  1
  C  C127  1  0.037200  0.401400  0.851000  1
  C  C128  1  0.906100  0.670000  0.141100  1
  C  C129  1  0.093900  0.330000  0.858900  1
  C  C130  1  0.845000  0.685300  0.202500  1
  C  C131  1  0.155000  0.314700  0.797500  1
  C  C132  1  0.638400  0.343900  0.711700  1
  C  C133  1  0.361600  0.656100  0.288300  1
  C  C134  1  0.618900  0.278700  0.838300  1
  C  C135  1  0.381100  0.721300  0.161700  1
  C  C136  1  0.701000  0.229800  0.832400  1
  C  C137  1  0.299000  0.770200  0.167600  1
  C  C138  1  0.751500  0.241300  0.761800  1
  C  C139  1  0.248500  0.758700  0.238200  1
  C  C140  1  0.842200  0.192200  0.748000  1
  C  C141  1  0.157800  0.807800  0.252000  1
  C  C142  1  0.882300  0.133000  0.807900  1
  C  C143  1  0.117700  0.867000  0.192100  1
  C  C144  1  0.965600  0.088700  0.791600  1
  C  C145  1  0.034400  0.911300  0.208400  1
  C  C146  1  0.005100  0.102900  0.716600  1
  C  C147  1  0.994900  0.897100  0.283400  1
  C  C148  1  0.961700  0.163900  0.660100  1
  C  C149  1  0.038300  0.836100  0.339900  1
  C  C150  1  0.416100  0.609800  0.715300  1
  C  C151  1  0.583900  0.390200  0.284700  1
  C  C152  1  0.315100  0.708900  0.758300  1
  C  C153  1  0.684900  0.291100  0.241700  1
  C  C154  1  0.305200  0.662000  0.831700  1
  C  C155  1  0.694800  0.338000  0.168300  1
  C  C156  1  0.351300  0.585100  0.841600  1
  C  C157  1  0.648700  0.414900  0.158400  1
  C  C158  1  0.340300  0.526200  0.914900  1
  C  C159  1  0.659700  0.473800  0.085100  1
  C  C160  1  0.283400  0.547100  0.978700  1
  C  C161  1  0.716600  0.452900  0.021300  1
  C  C162  1  0.275800  0.489900  0.045300  1
  C  C163  1  0.724200  0.510100  0.954700  1
  C  C164  1  0.323800  0.413400  0.046400  1
  C  C165  1  0.676200  0.586600  0.953600  1
  C  C166  1  0.377200  0.397000  0.980100  1
  C  C167  1  0.622800  0.603000  0.019900  1
  C  C168  1  0.786300  0.868000  0.863800  1
  C  C169  1  0.213700  0.132000  0.136200  1
  C  C170  1  0.498300  0.929100  0.898500  1
  C  C171  1  0.501700  0.070900  0.101500  1
  C  C172  1  0.139100  0.895900  0.845000  1
  C  C173  1  0.860900  0.104100  0.155000  1
  C  C174  1  0.810900  0.672600  0.692500  1
  C  C175  1  0.189100  0.327400  0.307500  1
  N  N176  1  0.509000  0.796100  0.489400  1
  N  N177  1  0.491000  0.203900  0.510600  1
  N  N178  1  0.642100  0.761500  0.410000  1
  N  N179  1  0.357900  0.238500  0.590000  1
  N  N180  1  0.341300  0.880000  0.515200  1
  N  N181  1  0.658700  0.120000  0.484800  1
  N  N182  1  0.820600  0.533100  0.409100  1
  N  N183  1  0.179400  0.466900  0.590900  1
  N  N184  1  0.849500  0.406200  0.490200  1
  N  N185  1  0.150500  0.593800  0.509800  1
  N  N186  1  0.838500  0.635700  0.271300  1
  N  N187  1  0.161500  0.364300  0.728700  1
  N  N188  1  0.718500  0.298400  0.700700  1
  N  N189  1  0.281500  0.701600  0.299300  1
  N  N190  1  0.587000  0.337200  0.778100  1
  N  N191  1  0.413000  0.662800  0.221900  1
  N  N192  1  0.882600  0.208500  0.675500  1
  N  N193  1  0.117400  0.791500  0.324500  1
  N  N194  1  0.406600  0.559300  0.782300  1
  N  N195  1  0.593400  0.440700  0.217700  1
  N  N196  1  0.371700  0.684100  0.699900  1
  N  N197  1  0.628300  0.315900  0.300100  1
  N  N198  1  0.386800  0.451500  0.915300  1
  N  N199  1  0.613200  0.548500  0.084700  1
  N  N200  1  0.678300  0.817700  0.804500  1
  N  N201  1  0.321700  0.182300  0.195500  1
  N  N202  1  0.499300  0.952900  0.807100  1
  N  N203  1  0.500700  0.047100  0.192900  1
  N  N204  1  0.160900  0.918400  0.941600  1
  N  N205  1  0.839100  0.081600  0.058400  1
  N  N206  1  0.769800  0.580900  0.716800  1
  N  N207  1  0.230200  0.419100  0.283200  1
  O  O208  1  0.650200  0.830000  0.725200  1
  O  O209  1  0.349800  0.170000  0.274800  1
  O  O210  1  0.616700  0.764200  0.836700  1
  O  O211  1  0.383300  0.235800  0.163300  1
  O  O212  1  0.418900  0.918600  0.743700  1
  O  O213  1  0.581100  0.081400  0.256300  1
  O  O214  1  0.585200  0.007200  0.800600  1
  O  O215  1  0.414800  0.992800  0.199400  1
  O  O216  1  0.246800  0.906900  0.989300  1
  O  O217  1  0.753200  0.093100  0.010700  1
  O  O218  1  0.087000  0.948700  0.967900  1
  O  O219  1  0.913000  0.051300  0.032100  1
  O  O220  1  0.696100  0.570900  0.757500  1
  O  O221  1  0.303900  0.429100  0.242500  1
  O  O222  1  0.813500  0.519100  0.695200  1
  O  O223  1  0.186500  0.480900  0.304800  1
  F  F224  1  0.948400  0.726000  0.925600  1
  F  F225  1  0.051600  0.274000  0.074400  1
  F  F226  1  0.053100  0.672600  0.840100  1
  F  F227  1  0.946900  0.327400  0.159900  1
  F  F228  1  0.117400  0.697600  0.987600  1
  F  F229  1  0.882600  0.302400  0.012400  1
  F  F230  1  0.973600  0.583400  0.927200  1
  F  F231  1  0.026400  0.416600  0.072800  1
  F  F232  1  0.544000  0.844800  0.059500  1
  F  F233  1  0.456000  0.155200  0.940500  1
  F  F234  1  0.663900  0.923800  0.182800  1
  F  F235  1  0.336100  0.076200  0.817200  1
  F  F236  1  0.729200  0.864400  0.078600  1
  F  F237  1  0.270800  0.135600  0.921400  1
  F  F238  1  0.635400  0.775900  0.162100  1
  F  F239  1  0.364600  0.224100  0.837900  1
  F  F240  1  0.911600  0.852800  0.653100  1
  F  F241  1  0.088400  0.147200  0.346900  1
  F  F242  1  0.078500  0.811700  0.647900  1
  F  F243  1  0.921500  0.188300  0.352100  1
  F  F244  1  0.926900  0.770600  0.529600  1
  F  F245  1  0.073100  0.229400  0.470400  1
  F  F246  1  0.014400  0.919000  0.563600  1
  F  F247  1  0.985600  0.081000  0.436400  1
  F  F248  1  0.430700  0.585900  0.511200  1.0
  F  F249  1  0.569300  0.414100  0.488800  1.0
  F  F250  1  0.477500  0.463500  0.596800  1.0
  F  F251  1  0.522500  0.536500  0.403200  1.0
  F  F252  1  0.624800  0.568600  0.555900  1.0
  F  F253  1  0.375200  0.431400  0.444100  1.0
