# generated using pymatgen
data_Ag8SnB6H80C80N32(O8F15)2
_symmetry_space_group_name_H-M   'P 1'
_cell_length_a   12.24600000
_cell_length_b   15.03100000
_cell_length_c   15.51700000
_cell_angle_alpha   93.39000000
_cell_angle_beta   103.34400000
_cell_angle_gamma   101.09000000
_symmetry_Int_Tables_number   1
_chemical_formula_structural   Ag8SnB6H80C80N32(O8F15)2
_chemical_formula_sum   'Ag8 Sn1 B6 H80 C80 N32 O16 F30'
_cell_volume   2711.12274223
_cell_formula_units_Z   1
loop_
 _symmetry_equiv_pos_site_id
 _symmetry_equiv_pos_as_xyz
  1  'x, y, z'
loop_
 _atom_site_type_symbol
 _atom_site_label
 _atom_site_symmetry_multiplicity
 _atom_site_fract_x
 _atom_site_fract_y
 _atom_site_fract_z
 _atom_site_occupancy
  Ag  Ag1  1  0.406970  0.769310  0.597240  1
  Ag  Ag2  1  0.593030  0.230690  0.402760  1
  Ag  Ag3  1  0.743460  0.664270  0.380750  1
  Ag  Ag4  1  0.256540  0.335730  0.619250  1
  Ag  Ag5  1  0.819520  0.323350  0.592930  1
  Ag  Ag6  1  0.180480  0.676650  0.407070  1
  Ag  Ag7  1  0.478340  0.430540  0.801290  1
  Ag  Ag8  1  0.521660  0.569460  0.198710  1
  Sn  Sn9  1  0.500000  0.500000  0.500000  1
  B  B10  1  0.025300  0.671000  0.925200  1
  B  B11  1  0.974700  0.329000  0.074800  1
  B  B12  1  0.645300  0.855400  0.120000  1
  B  B13  1  0.354700  0.144600  0.880000  1
  B  B14  1  0.980700  0.838900  0.600500  1
  B  B15  1  0.019300  0.161100  0.399500  1
  H  H16  1  0.617100  0.717500  0.521300  1
  H  H17  1  0.382900  0.282500  0.478700  1
  H  H18  1  0.650900  0.835300  0.310700  1
  H  H19  1  0.349100  0.164700  0.689300  1
  H  H20  1  0.518400  0.919300  0.329200  1
  H  H21  1  0.481600  0.080700  0.670800  1
  H  H22  1  0.392800  0.991500  0.355800  1
  H  H23  1  0.607200  0.008500  0.644200  1
  H  H24  1  0.249500  0.061200  0.383600  1
  H  H25  1  0.750500  0.938800  0.616400  1
  H  H26  1  0.163600  0.014800  0.496900  1
  H  H27  1  0.836400  0.985200  0.503100  1
  H  H28  1  0.226000  0.901500  0.579200  1
  H  H29  1  0.774000  0.098500  0.420800  1
  H  H30  1  0.780100  0.505800  0.520200  1
  H  H31  1  0.219900  0.494200  0.479800  1
  H  H32  1  0.935800  0.328300  0.436600  1
  H  H33  1  0.064200  0.671700  0.563400  1
  H  H34  1  0.954600  0.407100  0.316800  1
  H  H35  1  0.045400  0.592900  0.683200  1
  H  H36  1  0.990800  0.499100  0.224100  1
  H  H37  1  0.009200  0.500900  0.775900  1
  H  H38  1  0.999600  0.587300  0.107000  1
  H  H39  1  0.000400  0.412700  0.893000  1
  H  H40  1  0.905700  0.707500  0.096000  1
  H  H41  1  0.094300  0.292500  0.904000  1
  H  H42  1  0.805100  0.734200  0.198300  1
  H  H43  1  0.194900  0.265800  0.801700  1
  H  H44  1  0.619400  0.384200  0.669700  1
  H  H45  1  0.380600  0.615800  0.330300  1
  H  H46  1  0.585500  0.273800  0.886200  1
  H  H47  1  0.414500  0.726200  0.113800  1
  H  H48  1  0.722600  0.190800  0.871600  1
  H  H49  1  0.277400  0.809200  0.128400  1
  H  H50  1  0.852400  0.123400  0.853600  1
  H  H51  1  0.147600  0.876600  0.146400  1
  H  H52  1  0.993900  0.049100  0.826500  1
  H  H53  1  0.006100  0.950900  0.173500  1
  H  H54  1  0.059300  0.073200  0.699700  1
  H  H55  1  0.940700  0.926800  0.300300  1
  H  H56  1  0.989900  0.176200  0.606600  1
  H  H57  1  0.010100  0.823800  0.393400  1
  H  H58  1  0.461500  0.597900  0.679700  1
  H  H59  1  0.538500  0.402100  0.320300  1
  H  H60  1  0.288300  0.764600  0.757200  1
  H  H61  1  0.711700  0.235400  0.242800  1
  H  H62  1  0.271600  0.683500  0.876500  1
  H  H63  1  0.728400  0.316500  0.123500  1
  H  H64  1  0.253900  0.599200  0.979700  1
  H  H65  1  0.746100  0.400800  0.020300  1
  H  H66  1  0.238500  0.501400  0.089500  1
  H  H67  1  0.761500  0.498600  0.910500  1
  H  H68  1  0.319100  0.374700  0.087500  1
  H  H69  1  0.680900  0.625300  0.912500  1
  H  H70  1  0.409600  0.346400  0.979300  1
  H  H71  1  0.590400  0.653600  0.020700  1
  H  H72  1  0.854200  0.854400  0.846500  1
  H  H73  1  0.145800  0.145600  0.153500  1
  H  H74  1  0.793900  0.853800  0.925300  1
  H  H75  1  0.206100  0.146200  0.074700  1
  H  H76  1  0.793200  0.933600  0.864700  1
  H  H77  1  0.206800  0.066400  0.135300  1
  H  H78  1  0.508400  0.985800  0.937100  1
  H  H79  1  0.491600  0.014200  0.062900  1
  H  H80  1  0.566200  0.903800  0.921400  1
  H  H81  1  0.433800  0.096200  0.078600  1
  H  H82  1  0.432000  0.889800  0.896400  1
  H  H83  1  0.568000  0.110200  0.103600  1
  H  H84  1  0.060100  0.895100  0.821300  1
  H  H85  1  0.939900  0.104900  0.178700  1
  H  H86  1  0.157300  0.839400  0.831500  1
  H  H87  1  0.842700  0.160600  0.168500  1
  H  H88  1  0.186000  0.944300  0.823400  1
  H  H89  1  0.814000  0.055700  0.176600  1
  H  H90  1  0.889700  0.703400  0.753400  1
  H  H91  1  0.110300  0.296600  0.246600  1
  H  H92  1  0.765900  0.710200  0.702000  1
  H  H93  1  0.234100  0.289800  0.298000  1
  H  H94  1  0.847200  0.673600  0.650600  1
  H  H95  1  0.152800  0.326400  0.349400  1
  C  C96  1  0.595000  0.757400  0.480300  1
  C  C97  1  0.405000  0.242600  0.519700  1
  C  C98  1  0.616000  0.826300  0.357600  1
  C  C99  1  0.384000  0.173700  0.642400  1
  C  C100  1  0.536200  0.876100  0.367700  1
  C  C101  1  0.463800  0.123900  0.632300  1
  C  C102  1  0.482800  0.860500  0.436200  1
  C  C103  1  0.517200  0.139500  0.563800  1
  C  C104  1  0.391300  0.907000  0.451300  1
  C  C105  1  0.608700  0.093000  0.548700  1
  C  C106  1  0.357600  0.974200  0.401100  1
  C  C107  1  0.642400  0.025800  0.598900  1
  C  C108  1  0.272200  0.015800  0.417200  1
  C  C109  1  0.727800  0.984200  0.582800  1
  C  C110  1  0.221700  0.988500  0.484200  1
  C  C111  1  0.778300  0.011500  0.515800  1
  C  C112  1  0.259600  0.919800  0.533400  1
  C  C113  1  0.740400  0.080200  0.466600  1
  C  C114  1  0.816300  0.485400  0.478700  1
  C  C115  1  0.183700  0.514600  0.521300  1
  C  C116  1  0.906900  0.381000  0.429700  1
  C  C117  1  0.093100  0.619000  0.570300  1
  C  C118  1  0.919900  0.428100  0.359000  1
  C  C119  1  0.080100  0.571900  0.641000  1
  C  C120  1  0.879500  0.509100  0.352000  1
  C  C121  1  0.120500  0.490900  0.648000  1
  C  C122  1  0.891400  0.565800  0.277400  1
  C  C123  1  0.108600  0.434200  0.722600  1
  C  C124  1  0.952900  0.547200  0.217800  1
  C  C125  1  0.047100  0.452800  0.782200  1
  C  C126  1  0.958700  0.599700  0.148300  1
  C  C127  1  0.041300  0.400300  0.851700  1
  C  C128  1  0.903000  0.670400  0.141700  1
  C  C129  1  0.097000  0.329600  0.858300  1
  C  C130  1  0.842800  0.685900  0.203600  1
  C  C131  1  0.157200  0.314100  0.796400  1
  C  C132  1  0.640300  0.344800  0.711500  1
  C  C133  1  0.359700  0.655200  0.288500  1
  C  C134  1  0.619600  0.280300  0.838600  1
  C  C135  1  0.380400  0.719700  0.161400  1
  C  C136  1  0.702000  0.230800  0.830400  1
  C  C137  1  0.298000  0.769200  0.169600  1
  C  C138  1  0.752200  0.241800  0.760900  1
  C  C139  1  0.247800  0.758200  0.239100  1
  C  C140  1  0.842500  0.193300  0.745800  1
  C  C141  1  0.157500  0.806700  0.254200  1
  C  C142  1  0.881700  0.133500  0.804000  1
  C  C143  1  0.118300  0.866500  0.196000  1
  C  C144  1  0.965400  0.088600  0.787500  1
  C  C145  1  0.034600  0.911400  0.212500  1
  C  C146  1  0.005000  0.103700  0.713100  1
  C  C147  1  0.995000  0.896300  0.286900  1
  C  C148  1  0.962400  0.165700  0.657000  1
  C  C149  1  0.037600  0.834300  0.343000  1
  C  C150  1  0.420500  0.615000  0.719100  1
  C  C151  1  0.579500  0.385000  0.280900  1
  C  C152  1  0.320400  0.713400  0.764400  1
  C  C153  1  0.679600  0.286600  0.235600  1
  C  C154  1  0.309200  0.664800  0.835300  1
  C  C155  1  0.690800  0.335200  0.164700  1
  C  C156  1  0.354500  0.588200  0.844100  1
  C  C157  1  0.645500  0.411800  0.155900  1
  C  C158  1  0.342500  0.527700  0.916200  1
  C  C159  1  0.657500  0.472300  0.083800  1
  C  C160  1  0.285400  0.547600  0.980600  1
  C  C161  1  0.714600  0.452400  0.019400  1
  C  C162  1  0.276100  0.489600  0.045800  1
  C  C163  1  0.723900  0.510400  0.954200  1
  C  C164  1  0.323700  0.414600  0.044200  1
  C  C165  1  0.676300  0.585400  0.955800  1
  C  C166  1  0.378000  0.398000  0.979200  1
  C  C167  1  0.622000  0.602000  0.020800  1
  C  C168  1  0.790300  0.869400  0.865800  1
  C  C169  1  0.209700  0.130600  0.134200  1
  C  C170  1  0.502700  0.931800  0.898700  1
  C  C171  1  0.497300  0.068200  0.101300  1
  C  C172  1  0.140000  0.897000  0.846600  1
  C  C173  1  0.860000  0.103000  0.153400  1
  C  C174  1  0.824500  0.675400  0.705800  1
  C  C175  1  0.175500  0.324600  0.294200  1
  N  N176  1  0.515700  0.801900  0.493800  1
  N  N177  1  0.484300  0.198100  0.506200  1
  N  N178  1  0.645600  0.765000  0.413100  1
  N  N179  1  0.354400  0.235000  0.586900  1
  N  N180  1  0.341500  0.879900  0.516800  1
  N  N181  1  0.658500  0.120100  0.483200  1
  N  N182  1  0.827100  0.536000  0.412100  1
  N  N183  1  0.172900  0.464000  0.587900  1
  N  N184  1  0.852900  0.408700  0.490500  1
  N  N185  1  0.147100  0.591300  0.509500  1
  N  N186  1  0.835400  0.635300  0.271300  1
  N  N187  1  0.164600  0.364700  0.728700  1
  N  N188  1  0.720100  0.299100  0.700400  1
  N  N189  1  0.279900  0.700900  0.299600  1
  N  N190  1  0.588100  0.338000  0.778200  1
  N  N191  1  0.411900  0.662000  0.221800  1
  N  N192  1  0.883000  0.210700  0.673700  1
  N  N193  1  0.117000  0.789300  0.326300  1
  N  N194  1  0.410300  0.563200  0.785500  1
  N  N195  1  0.589700  0.436800  0.214500  1
  N  N196  1  0.376900  0.688700  0.705100  1
  N  N197  1  0.623100  0.311300  0.294900  1
  N  N198  1  0.387500  0.453200  0.914800  1
  N  N199  1  0.612500  0.546800  0.085200  1
  N  N200  1  0.682900  0.818300  0.806000  1
  N  N201  1  0.317100  0.181700  0.194000  1
  N  N202  1  0.505000  0.956400  0.807700  1
  N  N203  1  0.495000  0.043600  0.192300  1
  N  N204  1  0.164400  0.915400  0.941200  1
  N  N205  1  0.835600  0.084600  0.058800  1
  N  N206  1  0.779500  0.581800  0.723200  1
  N  N207  1  0.220500  0.418200  0.276800  1
  O  O208  1  0.654600  0.832500  0.727000  1
  O  O209  1  0.345400  0.167500  0.273000  1
  O  O210  1  0.621200  0.765600  0.837100  1
  O  O211  1  0.378800  0.234400  0.162900  1
  O  O212  1  0.425300  0.922300  0.745600  1
  O  O213  1  0.574700  0.077700  0.254400  1
  O  O214  1  0.589900  0.010600  0.801100  1
  O  O215  1  0.410100  0.989400  0.198900  1
  O  O216  1  0.247700  0.902000  0.987600  1
  O  O217  1  0.752300  0.098000  0.012400  1
  O  O218  1  0.088300  0.948300  0.968200  1
  O  O219  1  0.911700  0.051700  0.031800  1
  O  O220  1  0.700500  0.570400  0.760700  1
  O  O221  1  0.299500  0.429600  0.239300  1
  O  O222  1  0.819500  0.521100  0.699900  1
  O  O223  1  0.180500  0.478900  0.300100  1
  F  F224  1  0.955000  0.728900  0.931100  1
  F  F225  1  0.045000  0.271100  0.068900  1
  F  F226  1  0.063400  0.676400  0.848300  1
  F  F227  1  0.936600  0.323600  0.151700  1
  F  F228  1  0.116500  0.689500  0.996700  1
  F  F229  1  0.883500  0.310500  0.003300  1
  F  F230  1  0.971000  0.584000  0.924900  1
  F  F231  1  0.029000  0.416000  0.075100  1
  F  F232  1  0.545200  0.834500  0.052100  1
  F  F233  1  0.454800  0.165500  0.947900  1
  F  F234  1  0.658000  0.921100  0.179300  1
  F  F235  1  0.342000  0.078900  0.820700  1
  F  F236  1  0.729300  0.863800  0.077900  1
  F  F237  1  0.270700  0.136200  0.922100  1
  F  F238  1  0.636000  0.778100  0.161000  1
  F  F239  1  0.364000  0.221900  0.839000  1
  F  F240  1  0.910400  0.854800  0.654800  1
  F  F241  1  0.089600  0.145200  0.345200  1
  F  F242  1  0.075800  0.813600  0.650300  1
  F  F243  1  0.924200  0.186400  0.349700  1
  F  F244  1  0.928700  0.770700  0.532700  1
  F  F245  1  0.071300  0.229300  0.467300  1
  F  F246  1  0.013400  0.918700  0.565600  1
  F  F247  1  0.986600  0.081300  0.434400  1
  F  F248  1  0.416800  0.597900  0.509900  1.0
  F  F249  1  0.583200  0.402100  0.490100  1.0
  F  F250  1  0.469000  0.457800  0.610800  1.0
  F  F251  1  0.531000  0.542200  0.389200  1.0
  F  F252  1  0.642800  0.581400  0.563200  1.0
  F  F253  1  0.357200  0.418600  0.436800  1.0
