# generated using pymatgen
data_Ag8GeB6H80C80N32(O8F15)2
_symmetry_space_group_name_H-M   'P 1'
_cell_length_a   12.25200000
_cell_length_b   14.98900000
_cell_length_c   15.43600000
_cell_angle_alpha   93.40600000
_cell_angle_beta   103.69100000
_cell_angle_gamma   100.94600000
_symmetry_Int_Tables_number   1
_chemical_formula_structural   Ag8GeB6H80C80N32(O8F15)2
_chemical_formula_sum   'Ag8 Ge1 B6 H80 C80 N32 O16 F30'
_cell_volume   2687.86452692
_cell_formula_units_Z   1
loop_
 _symmetry_equiv_pos_site_id
 _symmetry_equiv_pos_as_xyz
  1  'x, y, z'
loop_
 _atom_site_type_symbol
 _atom_site_label
 _atom_site_symmetry_multiplicity
 _atom_site_fract_x
 _atom_site_fract_y
 _atom_site_fract_z
 _atom_site_occupancy
  Ag  Ag1  1  0.404340  0.766860  0.594580  1
  Ag  Ag2  1  0.595660  0.233140  0.405420  1
  Ag  Ag3  1  0.740490  0.662530  0.378640  1
  Ag  Ag4  1  0.259510  0.337470  0.621360  1
  Ag  Ag5  1  0.816950  0.321910  0.592680  1
  Ag  Ag6  1  0.183050  0.678090  0.407320  1
  Ag  Ag7  1  0.476760  0.429770  0.800220  1
  Ag  Ag8  1  0.523240  0.570230  0.199780  1
  Ge  Ge9  1  0.500000  0.500000  0.500000  1
  B  B10  1  0.023600  0.670500  0.922600  1
  B  B11  1  0.976400  0.329500  0.077400  1
  B  B12  1  0.644000  0.852800  0.117400  1
  B  B13  1  0.356000  0.147200  0.882600  1
  B  B14  1  0.982000  0.838900  0.599500  1
  B  B15  1  0.018000  0.161100  0.400500  1
  H  H16  1  0.607700  0.708600  0.514500  1
  H  H17  1  0.392300  0.291400  0.485500  1
  H  H18  1  0.654000  0.836700  0.311700  1
  H  H19  1  0.346000  0.163300  0.688300  1
  H  H20  1  0.522700  0.922800  0.329700  1
  H  H21  1  0.477300  0.077200  0.670300  1
  H  H22  1  0.394000  0.994700  0.354700  1
  H  H23  1  0.606000  0.005300  0.645300  1
  H  H24  1  0.248800  0.062900  0.382900  1
  H  H25  1  0.751200  0.937100  0.617100  1
  H  H26  1  0.163600  0.015900  0.495900  1
  H  H27  1  0.836400  0.984100  0.504100  1
  H  H28  1  0.226600  0.904400  0.578800  1
  H  H29  1  0.773400  0.095600  0.421200  1
  H  H30  1  0.769400  0.501300  0.515700  1
  H  H31  1  0.230600  0.498700  0.484300  1
  H  H32  1  0.939200  0.329500  0.440900  1
  H  H33  1  0.060800  0.670500  0.559100  1
  H  H34  1  0.964700  0.411000  0.323000  1
  H  H35  1  0.035300  0.589000  0.677000  1
  H  H36  1  0.994200  0.498800  0.225600  1
  H  H37  1  0.005800  0.501200  0.774400  1
  H  H38  1  0.001300  0.586200  0.107200  1
  H  H39  1  0.998700  0.413800  0.892800  1
  H  H40  1  0.908300  0.707400  0.095400  1
  H  H41  1  0.091700  0.292600  0.904600  1
  H  H42  1  0.803600  0.732500  0.196300  1
  H  H43  1  0.196400  0.267500  0.803700  1
  H  H44  1  0.617500  0.383200  0.668600  1
  H  H45  1  0.382500  0.616800  0.331400  1
  H  H46  1  0.583500  0.273200  0.885200  1
  H  H47  1  0.416500  0.726800  0.114800  1
  H  H48  1  0.719600  0.190600  0.873400  1
  H  H49  1  0.280400  0.809400  0.126600  1
  H  H50  1  0.853600  0.123100  0.856900  1
  H  H51  1  0.146400  0.876900  0.143100  1
  H  H52  1  0.993700  0.049000  0.829300  1
  H  H53  1  0.006300  0.951000  0.170700  1
  H  H54  1  0.058500  0.073100  0.702900  1
  H  H55  1  0.941500  0.926900  0.297100  1
  H  H56  1  0.991100  0.175300  0.609600  1
  H  H57  1  0.008900  0.824700  0.390400  1
  H  H58  1  0.458800  0.594800  0.677500  1
  H  H59  1  0.541200  0.405200  0.322500  1
  H  H60  1  0.283900  0.761500  0.752700  1
  H  H61  1  0.716100  0.238500  0.247300  1
  H  H62  1  0.270000  0.684100  0.874100  1
  H  H63  1  0.730000  0.315900  0.125900  1
  H  H64  1  0.250900  0.598800  0.978000  1
  H  H65  1  0.749100  0.401200  0.022000  1
  H  H66  1  0.239200  0.502400  0.089300  1
  H  H67  1  0.760800  0.497600  0.910700  1
  H  H68  1  0.319900  0.374500  0.089700  1
  H  H69  1  0.680100  0.625500  0.910300  1
  H  H70  1  0.409300  0.345700  0.979500  1
  H  H71  1  0.590700  0.654300  0.020500  1
  H  H72  1  0.799400  0.846600  0.921200  1
  H  H73  1  0.200600  0.153400  0.078800  1
  H  H74  1  0.787100  0.931700  0.868400  1
  H  H75  1  0.212900  0.068300  0.131600  1
  H  H76  1  0.849800  0.858500  0.837200  1
  H  H77  1  0.150200  0.141500  0.162800  1
  H  H78  1  0.428900  0.935000  0.910700  1
  H  H79  1  0.571100  0.065000  0.089300  1
  H  H80  1  0.562300  0.971200  0.941400  1
  H  H81  1  0.437700  0.028800  0.058600  1
  H  H82  1  0.511600  0.868600  0.902900  1
  H  H83  1  0.488400  0.131400  0.097100  1
  H  H84  1  0.061600  0.900600  0.817700  1
  H  H85  1  0.938400  0.099400  0.182300  1
  H  H86  1  0.148900  0.835500  0.831500  1
  H  H87  1  0.851100  0.164500  0.168500  1
  H  H88  1  0.191300  0.939100  0.822400  1
  H  H89  1  0.808700  0.060900  0.177600  1
  H  H90  1  0.883000  0.704800  0.743800  1
  H  H91  1  0.117000  0.295200  0.256200  1
  H  H92  1  0.758700  0.709000  0.690100  1
  H  H93  1  0.241300  0.291000  0.309900  1
  H  H94  1  0.840500  0.669100  0.641500  1
  H  H95  1  0.159500  0.330900  0.358500  1
  C  C96  1  0.589400  0.752100  0.476100  1
  C  C97  1  0.410600  0.247900  0.523900  1
  C  C98  1  0.617200  0.826700  0.357600  1
  C  C99  1  0.382800  0.173300  0.642400  1
  C  C100  1  0.538400  0.878100  0.367300  1
  C  C101  1  0.461600  0.121900  0.632700  1
  C  C102  1  0.483000  0.860900  0.435000  1
  C  C103  1  0.517000  0.139100  0.565000  1
  C  C104  1  0.390000  0.907600  0.450600  1
  C  C105  1  0.610000  0.092400  0.549400  1
  C  C106  1  0.358100  0.976600  0.399400  1
  C  C107  1  0.641900  0.023400  0.600600  1
  C  C108  1  0.272200  0.017300  0.416400  1
  C  C109  1  0.727800  0.982700  0.583600  1
  C  C110  1  0.221800  0.989600  0.483400  1
  C  C111  1  0.778200  0.010400  0.516600  1
  C  C112  1  0.259300  0.921700  0.532100  1
  C  C113  1  0.740700  0.078300  0.467900  1
  C  C114  1  0.809800  0.483000  0.476300  1
  C  C115  1  0.190200  0.517000  0.523700  1
  C  C116  1  0.908900  0.381700  0.432900  1
  C  C117  1  0.091100  0.618300  0.567100  1
  C  C118  1  0.925400  0.430200  0.362800  1
  C  C119  1  0.074600  0.569800  0.637200  1
  C  C120  1  0.881300  0.509300  0.353100  1
  C  C121  1  0.118700  0.490700  0.646900  1
  C  C122  1  0.893000  0.565400  0.278600  1
  C  C123  1  0.107000  0.434600  0.721400  1
  C  C124  1  0.955500  0.546700  0.218700  1
  C  C125  1  0.044500  0.453300  0.781300  1
  C  C126  1  0.960600  0.599000  0.148600  1
  C  C127  1  0.039400  0.401000  0.851400  1
  C  C128  1  0.904800  0.670000  0.141000  1
  C  C129  1  0.095200  0.330000  0.859000  1
  C  C130  1  0.843000  0.685000  0.202800  1
  C  C131  1  0.157000  0.315000  0.797200  1
  C  C132  1  0.638800  0.344000  0.711000  1
  C  C133  1  0.361200  0.656000  0.289000  1
  C  C134  1  0.618200  0.279900  0.837800  1
  C  C135  1  0.381800  0.720100  0.162200  1
  C  C136  1  0.699500  0.230600  0.831500  1
  C  C137  1  0.300500  0.769400  0.168500  1
  C  C138  1  0.751400  0.241400  0.761200  1
  C  C139  1  0.248600  0.758600  0.238800  1
  C  C140  1  0.842600  0.193400  0.747300  1
  C  C141  1  0.157400  0.806600  0.252700  1
  C  C142  1  0.882400  0.133100  0.806900  1
  C  C143  1  0.117600  0.866900  0.193100  1
  C  C144  1  0.965000  0.088700  0.790200  1
  C  C145  1  0.035000  0.911300  0.209800  1
  C  C146  1  0.004100  0.103700  0.715900  1
  C  C147  1  0.995900  0.896300  0.284100  1
  C  C148  1  0.962600  0.164800  0.659700  1
  C  C149  1  0.037400  0.835200  0.340300  1
  C  C150  1  0.417300  0.611900  0.716700  1
  C  C151  1  0.582700  0.388100  0.283300  1
  C  C152  1  0.316800  0.710600  0.760700  1
  C  C153  1  0.683200  0.289400  0.239300  1
  C  C154  1  0.306600  0.664000  0.832600  1
  C  C155  1  0.693400  0.336000  0.167400  1
  C  C156  1  0.351900  0.585900  0.842600  1
  C  C157  1  0.648100  0.414100  0.157400  1
  C  C158  1  0.341100  0.527700  0.915600  1
  C  C159  1  0.658900  0.472300  0.084400  1
  C  C160  1  0.283700  0.547600  0.979500  1
  C  C161  1  0.716300  0.452400  0.020500  1
  C  C162  1  0.276300  0.489900  0.045300  1
  C  C163  1  0.723700  0.510100  0.954700  1
  C  C164  1  0.324000  0.413900  0.045700  1
  C  C165  1  0.676000  0.586100  0.954300  1
  C  C166  1  0.377800  0.397500  0.979500  1
  C  C167  1  0.622200  0.602500  0.020500  1
  C  C168  1  0.788200  0.867800  0.862900  1
  C  C169  1  0.211800  0.132200  0.137100  1
  C  C170  1  0.500900  0.930200  0.898500  1
  C  C171  1  0.499100  0.069800  0.101500  1
  C  C172  1  0.139100  0.896300  0.845200  1
  C  C173  1  0.860900  0.103700  0.154800  1
  C  C174  1  0.817900  0.674300  0.696700  1
  C  C175  1  0.182100  0.325700  0.303300  1
  N  N176  1  0.510800  0.798200  0.491200  1
  N  N177  1  0.489200  0.201800  0.508800  1
  N  N178  1  0.643200  0.763100  0.411300  1
  N  N179  1  0.356800  0.236900  0.588700  1
  N  N180  1  0.340400  0.880000  0.515100  1
  N  N181  1  0.659600  0.120000  0.484900  1
  N  N182  1  0.822400  0.534400  0.410500  1
  N  N183  1  0.177600  0.465600  0.589500  1
  N  N184  1  0.850600  0.406900  0.490200  1
  N  N185  1  0.149400  0.593100  0.509800  1
  N  N186  1  0.836600  0.635300  0.271200  1
  N  N187  1  0.163400  0.364700  0.728800  1
  N  N188  1  0.718700  0.298700  0.700000  1
  N  N189  1  0.281300  0.701300  0.300000  1
  N  N190  1  0.586400  0.338000  0.777600  1
  N  N191  1  0.413600  0.662000  0.222400  1
  N  N192  1  0.882400  0.209400  0.675100  1
  N  N193  1  0.117600  0.790600  0.324900  1
  N  N194  1  0.408000  0.560700  0.782800  1
  N  N195  1  0.592000  0.439300  0.217200  1
  N  N196  1  0.372300  0.686000  0.701300  1
  N  N197  1  0.627700  0.314000  0.298700  1
  N  N198  1  0.387000  0.452100  0.915000  1
  N  N199  1  0.613000  0.547900  0.085000  1
  N  N200  1  0.679600  0.817200  0.805500  1
  N  N201  1  0.320400  0.182800  0.194500  1
  N  N202  1  0.501100  0.954200  0.807600  1
  N  N203  1  0.498900  0.045800  0.192400  1
  N  N204  1  0.162500  0.917200  0.942000  1
  N  N205  1  0.837500  0.082800  0.058000  1
  N  N206  1  0.773800  0.581400  0.719600  1
  N  N207  1  0.226200  0.418600  0.280400  1
  O  O208  1  0.652400  0.831100  0.726400  1
  O  O209  1  0.347600  0.168900  0.273600  1
  O  O210  1  0.618200  0.764200  0.836700  1
  O  O211  1  0.381800  0.235800  0.163300  1
  O  O212  1  0.421200  0.920000  0.744700  1
  O  O213  1  0.578800  0.080000  0.255300  1
  O  O214  1  0.587200  0.008300  0.800800  1
  O  O215  1  0.412800  0.991700  0.199200  1
  O  O216  1  0.247300  0.904600  0.988500  1
  O  O217  1  0.752700  0.095400  0.011500  1
  O  O218  1  0.088300  0.948800  0.968800  1
  O  O219  1  0.911700  0.051200  0.031200  1
  O  O220  1  0.697300  0.571300  0.759000  1
  O  O221  1  0.302700  0.428700  0.241000  1
  O  O222  1  0.816400  0.520600  0.698100  1
  O  O223  1  0.183600  0.479400  0.301900  1
  F  F224  1  0.950800  0.727000  0.927500  1
  F  F225  1  0.049200  0.273000  0.072500  1
  F  F226  1  0.056500  0.674300  0.843500  1
  F  F227  1  0.943500  0.325700  0.156500  1
  F  F228  1  0.117700  0.694700  0.991300  1
  F  F229  1  0.882300  0.305300  0.008700  1
  F  F230  1  0.972300  0.584000  0.927100  1
  F  F231  1  0.027700  0.416000  0.072900  1
  F  F232  1  0.544700  0.842400  0.057300  1
  F  F233  1  0.455300  0.157600  0.942700  1
  F  F234  1  0.660400  0.923100  0.180300  1
  F  F235  1  0.339600  0.076900  0.819700  1
  F  F236  1  0.728800  0.864000  0.077800  1
  F  F237  1  0.271200  0.136000  0.922200  1
  F  F238  1  0.635100  0.776800  0.161200  1
  F  F239  1  0.364900  0.223200  0.838800  1
  F  F240  1  0.911200  0.853500  0.654000  1
  F  F241  1  0.088800  0.146500  0.346000  1
  F  F242  1  0.077500  0.812400  0.648900  1
  F  F243  1  0.922500  0.187600  0.351100  1
  F  F244  1  0.928000  0.770700  0.530600  1
  F  F245  1  0.072000  0.229300  0.469400  1
  F  F246  1  0.014600  0.919200  0.564500  1
  F  F247  1  0.985400  0.080800  0.435500  1
  F  F248  1  0.425100  0.590500  0.510300  1.0
  F  F249  1  0.574900  0.409500  0.489700  1.0
  F  F250  1  0.473200  0.461100  0.602200  1.0
  F  F251  1  0.526800  0.538900  0.397800  1.0
  F  F252  1  0.630900  0.573400  0.560100  1.0
  F  F253  1  0.369100  0.426600  0.439900  1.0
