# generated using pymatgen
data_H96Pd4C186S12N23O37
_symmetry_space_group_name_H-M   'P 1'
_cell_length_a   20.70500000
_cell_length_b   21.15100000
_cell_length_c   22.27800000
_cell_angle_alpha   91.72500000
_cell_angle_beta   90.59500000
_cell_angle_gamma   107.38900000
_symmetry_Int_Tables_number   1
_chemical_formula_structural   H96Pd4C186S12N23O37
_chemical_formula_sum   'H192 Pd8 C372 S24 N46 O74'
_cell_volume   9304.21432130
_cell_formula_units_Z   2
loop_
 _symmetry_equiv_pos_site_id
 _symmetry_equiv_pos_as_xyz
  1  'x, y, z'
loop_
 _atom_site_type_symbol
 _atom_site_label
 _atom_site_symmetry_multiplicity
 _atom_site_fract_x
 _atom_site_fract_y
 _atom_site_fract_z
 _atom_site_occupancy
  H  H1  1  0.372600  0.531600  0.627900  1
  H  H2  1  0.627400  0.468400  0.372100  1
  H  H3  1  0.397300  0.723400  0.630000  1
  H  H4  1  0.602700  0.276600  0.370000  1
  H  H5  1  0.512100  0.744600  0.610800  1
  H  H6  1  0.487900  0.255400  0.389200  1
  H  H7  1  0.556200  0.656300  0.593100  1
  H  H8  1  0.443800  0.343700  0.406900  1
  H  H9  1  0.572400  0.567900  0.547300  1
  H  H10  1  0.427600  0.432100  0.452700  1
  H  H11  1  0.603300  0.472600  0.526200  1
  H  H12  1  0.396700  0.527400  0.473800  1
  H  H13  1  0.456800  0.368600  0.632400  1
  H  H14  1  0.543200  0.631400  0.367600  1
  H  H15  1  0.426400  0.463500  0.655300  1
  H  H16  1  0.573600  0.536500  0.344700  1
  H  H17  1  0.456000  0.287800  0.572300  1
  H  H18  1  0.544000  0.712200  0.427700  1
  H  H19  1  0.576000  0.190700  0.503300  1
  H  H20  1  0.424000  0.809300  0.496700  1
  H  H21  1  0.665600  0.286300  0.507200  1
  H  H22  1  0.334400  0.713700  0.492800  1
  H  H23  1  0.647600  0.388200  0.532800  1
  H  H24  1  0.352400  0.611800  0.467200  1
  H  H25  1  0.360700  0.241500  0.519500  1
  H  H26  1  0.639300  0.758500  0.480500  1
  H  H27  1  0.384900  0.097900  0.412000  1
  H  H28  1  0.615100  0.902100  0.588000  1
  H  H29  1  0.325000  0.129000  0.335300  1
  H  H30  1  0.675000  0.871000  0.664700  1
  H  H31  1  0.283800  0.219300  0.348800  1
  H  H32  1  0.716200  0.780700  0.651200  1
  H  H33  1  0.288300  0.290400  0.538200  1
  H  H34  1  0.711700  0.709600  0.461800  1
  H  H35  1  0.257600  0.384700  0.560600  1
  H  H36  1  0.742400  0.615300  0.439400  1
  H  H37  1  0.265600  0.425100  0.382500  1
  H  H38  1  0.734400  0.574900  0.617500  1
  H  H39  1  0.294500  0.328900  0.361800  1
  H  H40  1  0.705500  0.671100  0.638200  1
  H  H41  1  0.280300  0.488000  0.572300  1
  H  H42  1  0.719700  0.512000  0.427700  1
  H  H43  1  0.215800  0.639700  0.531000  1
  H  H44  1  0.784200  0.360300  0.469000  1
  H  H45  1  0.182900  0.591500  0.436200  1
  H  H46  1  0.817100  0.408500  0.563800  1
  H  H47  1  0.204200  0.492400  0.406900  1
  H  H48  1  0.795800  0.507600  0.593100  1
  H  H49  1  0.442900  0.153600  0.673400  1
  H  H50  1  0.557100  0.846400  0.326600  1
  H  H51  1  0.535900  0.075600  0.550200  1
  H  H52  1  0.464100  0.924400  0.449800  1
  H  H53  1  0.602000  0.046600  0.625600  1
  H  H54  1  0.398000  0.953400  0.374400  1
  H  H55  1  0.582800  0.067800  0.726900  1
  H  H56  1  0.417200  0.932200  0.273100  1
  H  H57  1  0.561900  0.088000  0.812600  1
  H  H58  1  0.438100  0.912000  0.187400  1
  H  H59  1  0.552700  0.125300  0.908500  1
  H  H60  1  0.447300  0.874700  0.091500  1
  H  H61  1  0.411100  0.204300  0.855500  1
  H  H62  1  0.588900  0.795700  0.144500  1
  H  H63  1  0.428300  0.172900  0.759100  1
  H  H64  1  0.571700  0.827100  0.240900  1
  H  H65  1  0.388100  0.215000  0.944100  1
  H  H66  1  0.611900  0.785000  0.055900  1
  H  H67  1  0.446500  0.236700  0.114200  1
  H  H68  1  0.553500  0.763300  0.885800  1
  H  H69  1  0.544400  0.209600  0.091300  1
  H  H70  1  0.455600  0.790400  0.908700  1
  H  H71  1  0.557500  0.172400  0.992300  1
  H  H72  1  0.442500  0.827600  0.007700  1
  H  H73  1  0.314000  0.561600  0.760400  1
  H  H74  1  0.686000  0.438400  0.239600  1
  H  H75  1  0.280200  0.729100  0.718300  1
  H  H76  1  0.719800  0.270900  0.281700  1
  H  H77  1  0.290100  0.764500  0.816800  1
  H  H78  1  0.709900  0.235500  0.183200  1
  H  H79  1  0.320300  0.703200  0.890200  1
  H  H80  1  0.679700  0.296800  0.109800  1
  H  H81  1  0.295500  0.492200  0.837000  1
  H  H82  1  0.704500  0.507800  0.163000  1
  H  H83  1  0.329500  0.429800  0.905400  1
  H  H84  1  0.670500  0.570200  0.094600  1
  H  H85  1  0.425300  0.589100  0.006200  1
  H  H86  1  0.574700  0.410900  0.993800  1
  H  H87  1  0.397400  0.656600  0.936600  1
  H  H88  1  0.602600  0.343400  0.063400  1
  H  H89  1  0.329600  0.370600  0.981400  1
  H  H90  1  0.670400  0.629400  0.018600  1
  H  H91  1  0.432500  0.350800  0.126200  1
  H  H92  1  0.567500  0.649200  0.873800  1
  H  H93  1  0.494100  0.465100  0.128100  1
  H  H94  1  0.505900  0.534900  0.871900  1
  H  H95  1  0.467500  0.532500  0.057300  1
  H  H96  1  0.532500  0.467500  0.942700  1
  H  H97  1  0.972500  0.046600  0.826200  1
  H  H98  1  0.027500  0.953400  0.173800  1
  H  H99  1  0.806900  0.912500  0.764200  1
  H  H100  1  0.193100  0.087500  0.235800  1
  H  H101  1  0.831300  0.832000  0.819500  1
  H  H102  1  0.168700  0.168000  0.180500  1
  H  H103  1  0.928500  0.862400  0.884400  1
  H  H104  1  0.071500  0.137600  0.115600  1
  H  H105  1  0.004000  0.073400  0.923500  1
  H  H106  1  0.996000  0.926600  0.076500  1
  H  H107  1  0.096900  0.113600  0.986600  1
  H  H108  1  0.903100  0.886400  0.013400  1
  H  H109  1  0.142100  0.940900  0.968000  1
  H  H110  1  0.857900  0.059100  0.032000  1
  H  H111  1  0.048000  0.899900  0.902500  1
  H  H112  1  0.952000  0.100100  0.097500  1
  H  H113  1  0.217100  0.149900  0.988100  1
  H  H114  1  0.782900  0.850100  0.011900  1
  H  H115  1  0.327900  0.143500  0.132500  1
  H  H116  1  0.672100  0.856500  0.867500  1
  H  H117  1  0.272300  0.029200  0.141200  1
  H  H118  1  0.727700  0.970800  0.858800  1
  H  H119  1  0.183000  0.977400  0.073100  1
  H  H120  1  0.817000  0.022600  0.926900  1
  H  H121  1  0.185800  0.241500  0.005100  1
  H  H122  1  0.814200  0.758500  0.994900  1
  H  H123  1  0.280100  0.319300  0.160000  1
  H  H124  1  0.719900  0.680700  0.840000  1
  H  H125  1  0.180700  0.335200  0.195000  1
  H  H126  1  0.819300  0.664800  0.805000  1
  H  H127  1  0.083100  0.309300  0.133900  1
  H  H128  1  0.916900  0.690700  0.866100  1
  H  H129  1  0.993100  0.235200  0.087200  1
  H  H130  1  0.006900  0.764800  0.912800  1
  H  H131  1  0.898600  0.195700  0.023000  1
  H  H132  1  0.101400  0.804300  0.977000  1
  H  H133  1  0.020400  0.221600  0.879900  1
  H  H134  1  0.979600  0.778400  0.120100  1
  H  H135  1  0.116000  0.259700  0.943900  1
  H  H136  1  0.884000  0.740300  0.056100  1
  H  H137  1  0.946000  0.139300  0.840600  1
  H  H138  1  0.054000  0.860700  0.159400  1
  H  H139  1  0.752100  0.088200  0.796200  1
  H  H140  1  0.247900  0.911800  0.203800  1
  H  H141  1  0.730000  0.144500  0.882300  1
  H  H142  1  0.270000  0.855500  0.117700  1
  H  H143  1  0.818200  0.192900  0.951600  1
  H  H144  1  0.181800  0.807100  0.048400  1
  H  H145  1  0.151700  0.490200  0.651400  1
  H  H146  1  0.848300  0.509800  0.348600  1
  H  H147  1  0.174200  0.681800  0.664600  1
  H  H148  1  0.825800  0.318200  0.335400  1
  H  H149  1  0.060400  0.662000  0.683900  1
  H  H150  1  0.939600  0.338000  0.316100  1
  H  H151  1  0.987800  0.551300  0.676900  1
  H  H152  1  0.012200  0.448700  0.323100  1
  H  H153  1  0.089600  0.394700  0.684500  1
  H  H154  1  0.910400  0.605300  0.315500  1
  H  H155  1  0.019800  0.286700  0.679700  1
  H  H156  1  0.980200  0.713300  0.320300  1
  H  H157  1  0.863400  0.352100  0.631900  1
  H  H158  1  0.136600  0.647900  0.368100  1
  H  H159  1  0.933000  0.458500  0.637900  1
  H  H160  1  0.067000  0.541500  0.362100  1
  H  H161  1  0.929100  0.200800  0.717400  1
  H  H162  1  0.070900  0.799200  0.282600  1
  H  H163  1  0.769400  0.068300  0.643200  1
  H  H164  1  0.230600  0.931700  0.356800  1
  H  H165  1  0.754400  0.144900  0.575900  1
  H  H166  1  0.245600  0.855100  0.424100  1
  H  H167  1  0.830600  0.251300  0.578500  1
  H  H168  1  0.169400  0.748700  0.421500  1
  H  H169  1  0.281900  0.092200  0.553800  1
  H  H170  1  0.718100  0.907800  0.446200  1
  H  H171  1  0.419800  0.001200  0.522800  1
  H  H172  1  0.580200  0.998800  0.477200  1
  H  H173  1  0.340000  0.898500  0.527000  1
  H  H174  1  0.660000  0.101500  0.473000  1
  H  H175  1  0.226100  0.892400  0.540700  1
  H  H176  1  0.773900  0.107600  0.459300  1
  H  H177  1  0.125800  0.899500  0.520500  1
  H  H178  1  0.874200  0.100500  0.479500  1
  H  H179  1  0.015600  0.894800  0.539400  1
  H  H180  1  0.984400  0.105200  0.460600  1
  H  H181  1  0.079400  0.072700  0.626200  1
  H  H182  1  0.920600  0.927300  0.373800  1
  H  H183  1  0.190100  0.078600  0.606000  1
  H  H184  1  0.809900  0.921400  0.394000  1
  H  H185  1  0.985400  0.036700  0.673400  1
  H  H186  1  0.014600  0.963300  0.326600  1
  H  H187  1  0.787600  0.962000  0.641600  1
  H  H188  1  0.212400  0.038000  0.358400  1
  H  H189  1  0.806600  0.907900  0.556900  1
  H  H190  1  0.193400  0.092100  0.443100  1
  H  H191  1  0.917700  0.916500  0.528200  1
  H  H192  1  0.082300  0.083500  0.471800  1
  Pd  Pd193  1  0.432070  0.142590  0.538810  1
  Pd  Pd194  1  0.567930  0.857410  0.461190  1
  Pd  Pd195  1  0.274510  0.606050  0.645690  1
  Pd  Pd196  1  0.725490  0.393950  0.354310  1
  Pd  Pd197  1  0.868040  0.057200  0.738060  1
  Pd  Pd198  1  0.131960  0.942800  0.261940  1
  Pd  Pd199  1  0.325980  0.254350  0.054650  1
  Pd  Pd200  1  0.674020  0.745650  0.945350  1
  C  C201  1  0.469500  0.583800  0.610600  1
  C  C202  1  0.530500  0.416200  0.389400  1
  C  C203  1  0.401800  0.575400  0.624000  1
  C  C204  1  0.598200  0.424600  0.376000  1
  C  C205  1  0.416000  0.687600  0.625600  1
  C  C206  1  0.584000  0.312400  0.374400  1
  C  C207  1  0.483800  0.700200  0.613100  1
  C  C208  1  0.516200  0.299800  0.386900  1
  C  C209  1  0.510200  0.648000  0.603900  1
  C  C210  1  0.489800  0.352000  0.396100  1
  C  C211  1  0.492900  0.524700  0.599100  1
  C  C212  1  0.507100  0.475300  0.400900  1
  C  C213  1  0.547100  0.527000  0.563500  1
  C  C214  1  0.452900  0.473000  0.436500  1
  C  C215  1  0.565500  0.469700  0.551000  1
  C  C216  1  0.434500  0.530300  0.449000  1
  C  C217  1  0.531400  0.409700  0.573200  1
  C  C218  1  0.468600  0.590300  0.426800  1
  C  C219  1  0.479500  0.408800  0.613700  1
  C  C220  1  0.520500  0.591200  0.386300  1
  C  C221  1  0.460900  0.465100  0.627100  1
  C  C222  1  0.539100  0.534900  0.372900  1
  C  C223  1  0.547200  0.347800  0.555400  1
  C  C224  1  0.452800  0.652200  0.444600  1
  C  C225  1  0.498700  0.288500  0.556700  1
  C  C226  1  0.501300  0.711500  0.443300  1
  C  C227  1  0.569100  0.230900  0.517700  1
  C  C228  1  0.430900  0.769100  0.482300  1
  C  C229  1  0.621900  0.287700  0.518300  1
  C  C230  1  0.378100  0.712300  0.481700  1
  C  C231  1  0.611900  0.347900  0.535000  1
  C  C232  1  0.388100  0.652100  0.465000  1
  C  C233  1  0.318700  0.241000  0.436000  1
  C  C234  1  0.681300  0.759000  0.564000  1
  C  C235  1  0.354400  0.219400  0.481100  1
  C  C236  1  0.645600  0.780600  0.518900  1
  C  C237  1  0.368300  0.134800  0.418300  1
  C  C238  1  0.631700  0.865200  0.581700  1
  C  C239  1  0.332500  0.153300  0.372600  1
  C  C240  1  0.667500  0.846700  0.627400  1
  C  C241  1  0.307800  0.206300  0.380400  1
  C  C242  1  0.692200  0.793700  0.619600  1
  C  C243  1  0.297200  0.301800  0.449400  1
  C  C244  1  0.702800  0.698200  0.550600  1
  C  C245  1  0.284400  0.318400  0.506700  1
  C  C246  1  0.715600  0.681600  0.493300  1
  C  C247  1  0.266200  0.374400  0.520300  1
  C  C248  1  0.733800  0.625600  0.479700  1
  C  C249  1  0.260300  0.416500  0.474100  1
  C  C250  1  0.739700  0.583500  0.525900  1
  C  C251  1  0.270700  0.398100  0.414400  1
  C  C252  1  0.729300  0.601900  0.585600  1
  C  C253  1  0.288300  0.341400  0.402100  1
  C  C254  1  0.711700  0.658600  0.597900  1
  C  C255  1  0.245000  0.479800  0.488800  1
  C  C256  1  0.755000  0.520200  0.511200  1
  C  C257  1  0.260700  0.509400  0.543500  1
  C  C258  1  0.739300  0.490600  0.456500  1
  C  C259  1  0.222700  0.598400  0.520500  1
  C  C260  1  0.777300  0.401600  0.479500  1
  C  C261  1  0.204100  0.570100  0.463800  1
  C  C262  1  0.795900  0.429900  0.536200  1
  C  C263  1  0.215700  0.511100  0.446300  1
  C  C264  1  0.784300  0.488900  0.553700  1
  C  C265  1  0.512500  0.116800  0.709800  1
  C  C266  1  0.487500  0.883200  0.290200  1
  C  C267  1  0.475700  0.131700  0.664200  1
  C  C268  1  0.524300  0.868300  0.335800  1
  C  C269  1  0.529800  0.085600  0.591200  1
  C  C270  1  0.470200  0.914400  0.408800  1
  C  C271  1  0.569000  0.067800  0.636100  1
  C  C272  1  0.431000  0.932200  0.363900  1
  C  C273  1  0.558900  0.081700  0.695800  1
  C  C274  1  0.441100  0.918300  0.304200  1
  C  C275  1  0.502300  0.135000  0.773900  1
  C  C276  1  0.497700  0.865000  0.226100  1
  C  C277  1  0.534100  0.115800  0.820100  1
  C  C278  1  0.465900  0.884200  0.179900  1
  C  C279  1  0.526400  0.136200  0.877600  1
  C  C280  1  0.473600  0.863800  0.122400  1
  C  C281  1  0.483400  0.171300  0.893500  1
  C  C282  1  0.516600  0.828700  0.106500  1
  C  C283  1  0.444900  0.183300  0.847700  1
  C  C284  1  0.555100  0.816700  0.152300  1
  C  C285  1  0.456000  0.164300  0.790100  1
  C  C286  1  0.544000  0.835700  0.209900  1
  C  C287  1  0.474700  0.191200  0.956700  1
  C  C288  1  0.525300  0.808800  0.043300  1
  C  C289  1  0.420100  0.212600  0.974100  1
  C  C290  1  0.579900  0.787400  0.025900  1
  C  C291  1  0.454200  0.226600  0.073600  1
  C  C292  1  0.545800  0.773400  0.926400  1
  C  C293  1  0.511600  0.208400  0.060800  1
  C  C294  1  0.488400  0.791600  0.939200  1
  C  C295  1  0.520200  0.188200  0.001500  1
  C  C296  1  0.479800  0.811800  0.998500  1
  C  C297  1  0.324100  0.625300  0.833600  1
  C  C298  1  0.675900  0.374700  0.166400  1
  C  C299  1  0.311600  0.604400  0.772200  1
  C  C300  1  0.688400  0.395600  0.227800  1
  C  C301  1  0.290100  0.701900  0.748000  1
  C  C302  1  0.709900  0.298100  0.252000  1
  C  C303  1  0.297300  0.723300  0.806100  1
  C  C304  1  0.702700  0.276700  0.193900  1
  C  C305  1  0.314600  0.687100  0.849600  1
  C  C306  1  0.685400  0.312900  0.150400  1
  C  C307  1  0.343200  0.583700  0.878600  1
  C  C308  1  0.656800  0.416300  0.121400  1
  C  C309  1  0.322300  0.513200  0.871000  1
  C  C310  1  0.677700  0.486800  0.129000  1
  C  C311  1  0.341400  0.476300  0.913000  1
  C  C312  1  0.658600  0.523700  0.087000  1
  C  C313  1  0.376800  0.501500  0.966000  1
  C  C314  1  0.623200  0.498500  0.034000  1
  C  C315  1  0.398200  0.569100  0.972100  1
  C  C316  1  0.601800  0.430900  0.027900  1
  C  C317  1  0.381800  0.609800  0.929900  1
  C  C318  1  0.618200  0.390200  0.070100  1
  C  C319  1  0.394400  0.461100  0.010300  1
  C  C320  1  0.605600  0.538900  0.989700  1
  C  C321  1  0.362700  0.390900  0.011600  1
  C  C322  1  0.637300  0.609100  0.988400  1
  C  C323  1  0.423700  0.378500  0.096400  1
  C  C324  1  0.576300  0.621500  0.903600  1
  C  C325  1  0.459900  0.446900  0.098400  1
  C  C326  1  0.540100  0.553100  0.901600  1
  C  C327  1  0.444000  0.486400  0.055800  1
  C  C328  1  0.556000  0.513600  0.944200  1
  C  C329  1  0.958200  0.958800  0.864100  1
  C  C330  1  0.041800  0.041200  0.135900  1
  C  C331  1  0.942800  0.002600  0.826500  1
  C  C332  1  0.057200  0.997400  0.173500  1
  C  C333  1  0.846700  0.924000  0.788900  1
  C  C334  1  0.153300  0.076000  0.211100  1
  C  C335  1  0.860000  0.876500  0.822100  1
  C  C336  1  0.140000  0.123500  0.177900  1
  C  C337  1  0.917900  0.894800  0.860800  1
  C  C338  1  0.082100  0.105200  0.139200  1
  C  C339  1  0.017100  0.983300  0.905500  1
  C  C340  1  0.982900  0.016700  0.094500  1
  C  C341  1  0.032100  0.046400  0.931800  1
  C  C342  1  0.967900  0.953600  0.068200  1
  C  C343  1  0.087200  0.069900  0.969600  1
  C  C344  1  0.912800  0.930100  0.030400  1
  C  C345  1  0.129700  0.031800  0.984000  1
  C  C346  1  0.870300  0.968200  0.016000  1
  C  C347  1  0.114400  0.968100  0.958800  1
  C  C348  1  0.885600  0.031900  0.041200  1
  C  C349  1  0.058200  0.943600  0.919600  1
  C  C350  1  0.941800  0.056400  0.080400  1
  C  C351  1  0.188500  0.059800  0.025100  1
  C  C352  1  0.811500  0.940200  0.974900  1
  C  C353  1  0.226100  0.125500  0.020600  1
  C  C354  1  0.773900  0.874500  0.979400  1
  C  C355  1  0.292500  0.121500  0.104800  1
  C  C356  1  0.707500  0.878500  0.895200  1
  C  C357  1  0.259300  0.053600  0.110700  1
  C  C358  1  0.740700  0.946400  0.889300  1
  C  C359  1  0.206700  0.023200  0.070100  1
  C  C360  1  0.793300  0.976800  0.929900  1
  C  C361  1  0.125200  0.272400  0.063200  1
  C  C362  1  0.874800  0.727600  0.936800  1
  C  C363  1  0.184500  0.261200  0.043800  1
  C  C364  1  0.815500  0.738800  0.956200  1
  C  C365  1  0.240300  0.306500  0.135300  1
  C  C366  1  0.759700  0.693500  0.864700  1
  C  C367  1  0.181400  0.316800  0.155700  1
  C  C368  1  0.818600  0.683200  0.844300  1
  C  C369  1  0.123100  0.301000  0.120000  1
  C  C370  1  0.876900  0.699000  0.880000  1
  C  C371  1  0.064400  0.250900  0.022200  1
  C  C372  1  0.935600  0.749100  0.977800  1
  C  C373  1  0.999100  0.231800  0.045100  1
  C  C374  1  0.000900  0.768200  0.954900  1
  C  C375  1  0.942900  0.207800  0.007100  1
  C  C376  1  0.057100  0.792200  0.992900  1
  C  C377  1  0.951800  0.201700  0.945200  1
  C  C378  1  0.048200  0.798300  0.054800  1
  C  C379  1  0.014900  0.222900  0.922100  1
  C  C380  1  0.985100  0.777100  0.077900  1
  C  C381  1  0.072000  0.246600  0.960300  1
  C  C382  1  0.928000  0.753400  0.039700  1
  C  C383  1  0.891200  0.170600  0.904700  1
  C  C384  1  0.108800  0.829400  0.095300  1
  C  C385  1  0.901200  0.138900  0.850200  1
  C  C386  1  0.098800  0.861100  0.149800  1
  C  C387  1  0.788000  0.109900  0.823500  1
  C  C388  1  0.212000  0.890100  0.176500  1
  C  C389  1  0.774500  0.142400  0.875100  1
  C  C390  1  0.225500  0.857600  0.124900  1
  C  C391  1  0.827100  0.171800  0.915700  1
  C  C392  1  0.172900  0.828200  0.084300  1
  C  C393  1  0.061200  0.508300  0.664100  1
  C  C394  1  0.938800  0.491700  0.335900  1
  C  C395  1  0.132400  0.525200  0.657700  1
  C  C396  1  0.867600  0.474800  0.342300  1
  C  C397  1  0.145800  0.637400  0.666500  1
  C  C398  1  0.854200  0.362600  0.333500  1
  C  C399  1  0.078200  0.626200  0.675700  1
  C  C400  1  0.921800  0.373800  0.324300  1
  C  C401  1  0.035300  0.559900  0.672800  1
  C  C402  1  0.964700  0.440100  0.327200  1
  C  C403  1  0.019000  0.439000  0.661400  1
  C  C404  1  0.981000  0.561000  0.338600  1
  C  C405  1  0.043200  0.386100  0.673700  1
  C  C406  1  0.956800  0.613900  0.326300  1
  C  C407  1  0.001900  0.321700  0.670400  1
  C  C408  1  0.998100  0.678300  0.329600  1
  C  C409  1  0.934300  0.307400  0.653700  1
  C  C410  1  0.065700  0.692600  0.346300  1
  C  C411  1  0.909800  0.360200  0.642400  1
  C  C412  1  0.090200  0.639800  0.357600  1
  C  C413  1  0.951400  0.423500  0.646200  1
  C  C414  1  0.048600  0.576500  0.353800  1
  C  C415  1  0.887400  0.237500  0.648900  1
  C  C416  1  0.112600  0.762500  0.351100  1
  C  C417  1  0.894000  0.189500  0.687600  1
  C  C418  1  0.106000  0.810500  0.312400  1
  C  C419  1  0.800300  0.111800  0.643900  1
  C  C420  1  0.199700  0.888200  0.356100  1
  C  C421  1  0.790900  0.157000  0.604300  1
  C  C422  1  0.209100  0.843000  0.395700  1
  C  C423  1  0.835400  0.219900  0.606300  1
  C  C424  1  0.164600  0.780100  0.393700  1
  C  C425  1  0.242100  0.992000  0.550300  1
  C  C426  1  0.757900  0.008000  0.449700  1
  C  C427  1  0.293200  0.052000  0.548700  1
  C  C428  1  0.706800  0.948000  0.451300  1
  C  C429  1  0.374100  0.998700  0.530800  1
  C  C430  1  0.625900  0.001300  0.469200  1
  C  C431  1  0.327000  0.937700  0.532100  1
  C  C432  1  0.673000  0.062300  0.467900  1
  C  C433  1  0.259800  0.934200  0.541000  1
  C  C434  1  0.740200  0.065800  0.459000  1
  C  C435  1  0.170800  0.989300  0.560800  1
  C  C436  1  0.829200  0.010700  0.439200  1
  C  C437  1  0.116900  0.935400  0.541900  1
  C  C438  1  0.883100  0.064600  0.458100  1
  C  C439  1  0.051300  0.932400  0.553200  1
  C  C440  1  0.948700  0.067600  0.446800  1
  C  C441  1  0.036500  0.983800  0.584600  1
  C  C442  1  0.963500  0.016200  0.415400  1
  C  C443  1  0.088800  0.037400  0.604200  1
  C  C444  1  0.911200  0.962600  0.395800  1
  C  C445  1  0.154700  0.040700  0.592400  1
  C  C446  1  0.845300  0.959300  0.407600  1
  C  C447  1  0.963300  0.978800  0.599200  1
  C  C448  1  0.036700  0.021200  0.400800  1
  C  C449  1  0.949000  0.010400  0.648700  1
  C  C450  1  0.051000  0.989600  0.351300  1
  C  C451  1  0.832800  0.966700  0.630100  1
  C  C452  1  0.167200  0.033300  0.369900  1
  C  C453  1  0.843900  0.934400  0.580500  1
  C  C454  1  0.156100  0.065600  0.419500  1
  C  C455  1  0.909500  0.939300  0.563300  1
  C  C456  1  0.090500  0.060700  0.436700  1
  C  C457  1  0.532600  0.109300  0.205400  1
  C  C458  1  0.467400  0.890700  0.794600  1
  C  C459  1  0.536300  0.233800  0.198300  1
  C  C460  1  0.463700  0.766200  0.801700  1
  C  C461  1  0.761900  0.049800  0.237600  1
  C  C462  1  0.238100  0.950200  0.762400  1
  C  C463  1  0.698700  0.124500  0.287200  1
  C  C464  1  0.301300  0.875500  0.712800  1
  C  C465  1  0.605000  0.534700  0.719600  1
  C  C466  1  0.395000  0.465300  0.280400  1
  C  C467  1  0.738500  0.577900  0.732100  1
  C  C468  1  0.261500  0.422100  0.267900  1
  C  C469  1  0.628100  0.298300  0.703800  1
  C  C470  1  0.371900  0.701700  0.296200  1
  C  C471  1  0.723000  0.233400  0.732000  1
  C  C472  1  0.277000  0.766600  0.268000  1
  C  C473  1  0.817100  0.438000  0.750400  1
  C  C474  1  0.182900  0.562000  0.249600  1
  C  C475  1  0.938000  0.583000  0.794000  1
  C  C476  1  0.062000  0.417000  0.206000  1
  C  C477  1  0.875900  0.625300  0.162900  1
  C  C478  1  0.124100  0.374700  0.837100  1
  C  C479  1  0.809600  0.705100  0.219000  1
  C  C480  1  0.190400  0.294900  0.781000  1
  C  C481  1  0.798900  0.932000  0.151800  1
  C  C482  1  0.201100  0.068000  0.848200  1
  C  C483  1  0.808500  0.899100  0.263000  1
  C  C484  1  0.191500  0.100900  0.737000  1
  C  C485  1  0.138200  0.208800  0.318000  1
  C  C486  1  0.861800  0.791200  0.682000  1
  C  C487  1  0.104400  0.317400  0.326300  1
  C  C488  1  0.895600  0.682600  0.673700  1
  C  C489  1  0.070000  0.927600  0.732300  1
  C  C490  1  0.930000  0.072400  0.267700  1
  C  C491  1  0.073500  0.858900  0.772200  1
  C  C492  1  0.926500  0.141100  0.227800  1
  C  C493  1  0.034000  0.878600  0.710200  1
  C  C494  1  0.966000  0.121400  0.289800  1
  C  C495  1  0.007700  0.817900  0.793000  1
  C  C496  1  0.992300  0.182100  0.207000  1
  C  C497  1  0.100400  0.837800  0.690500  1
  C  C498  1  0.899600  0.162200  0.309500  1
  C  C499  1  0.029300  0.215100  0.769200  1
  C  C500  1  0.970700  0.784900  0.230800  1
  C  C501  1  0.043000  0.171400  0.759800  1
  C  C502  1  0.957000  0.828600  0.240200  1
  C  C503  1  0.059900  0.141800  0.812400  1
  C  C504  1  0.940100  0.858200  0.187600  1
  C  C505  1  0.039300  0.163400  0.685600  1
  C  C506  1  0.960700  0.836600  0.314400  1
  C  C507  1  0.045700  0.110600  0.755300  1
  C  C508  1  0.954300  0.889400  0.244700  1
  C  C509  1  0.028200  0.146400  0.729400  1
  C  C510  1  0.971800  0.853600  0.270600  1
  C  C511  1  0.140500  0.569800  0.912200  1
  C  C512  1  0.859500  0.430200  0.087800  1
  C  C513  1  0.133000  0.567600  0.822300  1
  C  C514  1  0.867000  0.432400  0.177700  1
  C  C515  1  0.449000  0.350900  0.842200  1
  C  C516  1  0.551000  0.649100  0.157800  1
  C  C517  1  0.496000  0.364000  0.785000  1
  C  C518  1  0.504000  0.636000  0.215000  1
  C  C519  1  0.478900  0.364000  0.896400  1
  C  C520  1  0.521100  0.636000  0.103600  1
  C  C521  1  0.385000  0.357000  0.813400  1
  C  C522  1  0.615000  0.643000  0.186600  1
  C  C523  1  0.198300  0.447800  0.014000  1
  C  C524  1  0.801700  0.552200  0.986000  1
  C  C525  1  0.067000  0.436000  0.034000  1
  C  C526  1  0.933000  0.564000  0.966000  1
  C  C527  1  0.167000  0.479000  0.093000  1
  C  C528  1  0.833000  0.521000  0.907000  1
  C  C529  1  0.129000  0.466000  0.045000  1
  C  C530  1  0.871000  0.534000  0.955000  1
  C  C531  1  0.399000  0.011000  0.020000  1
  C  C532  1  0.601000  0.989000  0.980000  1
  C  C533  1  0.362700  0.021700  0.969200  1
  C  C534  1  0.637300  0.978300  0.030800  1
  C  C535  1  0.376000  0.992000  0.902000  1
  C  C536  1  0.624000  0.008000  0.098000  1
  C  C537  1  0.333600  0.067200  0.961700  1
  C  C538  1  0.666400  0.932800  0.038300  1
  C  C539  1  0.937000  0.374000  0.912000  1
  C  C540  1  0.063000  0.626000  0.088000  1
  C  C541  1  0.930000  0.352000  0.845000  1
  C  C542  1  0.070000  0.648000  0.155000  1
  C  C543  1  0.977000  0.436000  0.823000  1
  C  C544  1  0.023000  0.564000  0.177000  1
  C  C545  1  0.909900  0.319900  0.811600  1
  C  C546  1  0.090100  0.680100  0.188400  1
  C  C547  1  0.368200  0.234200  0.648900  1
  C  C548  1  0.631800  0.765800  0.351100  1
  C  C549  1  0.335000  0.186000  0.640300  1
  C  C550  1  0.665000  0.814000  0.359700  1
  C  C551  1  0.351900  0.270200  0.623700  1
  C  C552  1  0.648100  0.729800  0.376300  1
  C  C553  1  0.414700  0.253700  0.680200  1
  C  C554  1  0.585300  0.746300  0.319800  1
  C  C555  1  0.278500  0.193300  0.608200  1
  C  C556  1  0.721500  0.806700  0.391800  1
  C  C557  1  0.323800  0.149200  0.667600  1
  C  C558  1  0.676200  0.850800  0.332400  1
  C  C559  1  0.350000  0.218000  0.702000  1
  C  C560  1  0.650000  0.782000  0.298000  1
  C  C561  1  0.963100  0.592100  0.515300  1
  C  C562  1  0.036900  0.407900  0.484700  1
  C  C563  1  0.069600  0.593400  0.518200  1
  C  C564  1  0.930400  0.406600  0.481800  1
  C  C565  1  0.940300  0.562400  0.570700  1
  C  C566  1  0.059700  0.437600  0.429300  1
  C  C567  1  0.049000  0.698000  0.519000  1
  C  C568  1  0.951000  0.302000  0.481000  1
  C  C569  1  0.070100  0.761300  0.529000  1
  C  C570  1  0.929900  0.238700  0.471000  1
  C  C571  1  0.031000  0.612500  0.521500  1
  C  C572  1  0.969000  0.387500  0.478500  1
  S  S573  1  0.536300  0.188000  0.240700  1
  S  S574  1  0.463700  0.812000  0.759300  1
  S  S575  1  0.730800  0.057600  0.294100  1
  S  S576  1  0.269200  0.942400  0.705900  1
  S  S577  1  0.676500  0.561400  0.767400  1
  S  S578  1  0.323500  0.438600  0.232600  1
  S  S579  1  0.691800  0.273700  0.679300  1
  S  S580  1  0.308200  0.726300  0.320700  1
  S  S581  1  0.856700  0.528400  0.742100  1
  S  S582  1  0.143300  0.471600  0.257900  1
  S  S583  1  0.792200  0.639500  0.159200  1
  S  S584  1  0.207800  0.360500  0.840800  1
  S  S585  1  0.735200  0.887500  0.194700  1
  S  S586  1  0.264800  0.112500  0.805300  1
  S  S587  1  0.113100  0.248800  0.371200  1
  S  S588  1  0.886900  0.751200  0.628800  1
  S  S589  1  0.681600  0.054500  0.245300  1
  S  S590  1  0.318400  0.945500  0.754700  1
  S  S591  1  0.699000  0.516000  0.742000  1
  S  S592  1  0.301000  0.484000  0.258000  1
  S  S593  1  0.841000  0.682100  0.164800  1
  S  S594  1  0.159000  0.317900  0.835200  1
  S  S595  1  0.102100  0.291000  0.387600  1
  S  S596  1  0.897900  0.709000  0.612400  1
  N  N597  1  0.376400  0.625300  0.631600  1
  N  N598  1  0.623600  0.374700  0.368400  1
  N  N599  1  0.507000  0.230100  0.537200  1
  N  N600  1  0.493000  0.769900  0.462800  1
  N  N601  1  0.379900  0.169100  0.472000  1
  N  N602  1  0.620100  0.830900  0.528000  1
  N  N603  1  0.250500  0.568000  0.560500  1
  N  N604  1  0.749500  0.432000  0.439500  1
  N  N605  1  0.484600  0.116000  0.605700  1
  N  N606  1  0.515400  0.884000  0.394300  1
  N  N607  1  0.409700  0.230500  0.032000  1
  N  N608  1  0.590300  0.769500  0.968000  1
  N  N609  1  0.296900  0.641600  0.731100  1
  N  N610  1  0.703100  0.358400  0.268900  1
  N  N611  1  0.377100  0.352400  0.053000  1
  N  N612  1  0.622900  0.647600  0.947000  1
  N  N613  1  0.887000  0.986100  0.789500  1
  N  N614  1  0.113000  0.013900  0.210500  1
  N  N615  1  0.275500  0.155900  0.061400  1
  N  N616  1  0.724500  0.844100  0.938600  1
  N  N617  1  0.241500  0.278400  0.080700  1
  N  N618  1  0.758500  0.721600  0.919300  1
  N  N619  1  0.851500  0.108800  0.812100  1
  N  N620  1  0.148500  0.891200  0.187900  1
  N  N621  1  0.173800  0.587000  0.659900  1
  N  N622  1  0.826200  0.413000  0.340100  1
  N  N623  1  0.852400  0.128200  0.683900  1
  N  N624  1  0.147600  0.871800  0.316100  1
  N  N625  1  0.358300  0.054800  0.540200  1
  N  N626  1  0.641700  0.945200  0.459800  1
  N  N627  1  0.885400  0.006200  0.664300  1
  N  N628  1  0.114600  0.993800  0.335700  1
  N  N629  1  0.664200  0.745200  0.767600  1
  N  N630  1  0.335800  0.254800  0.232400  1
  N  N631  1  0.755700  0.233900  0.425700  1
  N  N632  1  0.244300  0.766100  0.574300  1
  N  N633  1  0.679200  0.987800  0.731700  1
  N  N634  1  0.320800  0.012200  0.268300  1
  N  N635  1  0.530100  0.099500  0.401400  1
  N  N636  1  0.469900  0.900500  0.598600  1
  N  N637  1  0.750000  0.569300  0.297000  1
  N  N638  1  0.250000  0.430700  0.703000  1
  N  N639  1  0.703000  0.180700  0.030700  1
  N  N640  1  0.297000  0.819300  0.969300  1
  N  N641  1  0.853600  0.790300  0.440300  1
  N  N642  1  0.146400  0.209700  0.559700  1
  O  O643  1  0.635700  0.745100  0.815500  1
  O  O644  1  0.364300  0.254900  0.184500  1
  O  O645  1  0.719200  0.781500  0.757900  1
  O  O646  1  0.280800  0.218500  0.242100  1
  O  O647  1  0.629300  0.704700  0.726300  1
  O  O648  1  0.370700  0.295300  0.273700  1
  O  O649  1  0.720800  0.262400  0.396000  1
  O  O650  1  0.279200  0.737600  0.604000  1
  O  O651  1  0.748700  0.225900  0.479300  1
  O  O652  1  0.251300  0.774100  0.520700  1
  O  O653  1  0.800900  0.215500  0.397600  1
  O  O654  1  0.199100  0.784500  0.602400  1
  O  O655  1  0.727600  0.968600  0.743100  1
  O  O656  1  0.272400  0.031400  0.256900  1
  O  O657  1  0.662700  0.988800  0.676800  1
  O  O658  1  0.337300  0.011200  0.323200  1
  O  O659  1  0.646900  0.005600  0.774400  1
  O  O660  1  0.353100  0.994400  0.225600  1
  O  O661  1  0.506900  0.074800  0.450700  1
  O  O662  1  0.493100  0.925200  0.549300  1
  O  O663  1  0.527200  0.155200  0.389800  1
  O  O664  1  0.472800  0.844800  0.610200  1
  O  O665  1  0.551700  0.066900  0.364300  1
  O  O666  1  0.448300  0.933100  0.635700  1
  O  O667  1  0.787200  0.592100  0.343200  1
  O  O668  1  0.212800  0.407900  0.656800  1
  O  O669  1  0.781900  0.546600  0.258400  1
  O  O670  1  0.218100  0.453400  0.741600  1
  O  O671  1  0.690200  0.537000  0.300400  1
  O  O672  1  0.309800  0.463000  0.699600  1
  O  O673  1  0.662500  0.173500  0.074400  1
  O  O674  1  0.337500  0.826500  0.925600  1
  O  O675  1  0.680600  0.175100  0.979800  1
  O  O676  1  0.319400  0.824900  0.020200  1
  O  O677  1  0.761800  0.158000  0.045700  1
  O  O678  1  0.238200  0.842000  0.954300  1
  O  O679  1  0.820200  0.769100  0.376300  1
  O  O680  1  0.179800  0.230900  0.623700  1
  O  O681  1  0.926000  0.773000  0.445500  1
  O  O682  1  0.074000  0.227000  0.554500  1
  O  O683  1  0.827800  0.824100  0.473400  1
  O  O684  1  0.172200  0.175900  0.526600  1
  O  O685  1  0.447700  0.159800  0.265300  1
  O  O686  1  0.552300  0.840200  0.734700  1
  O  O687  1  0.657800  0.998600  0.295100  1
  O  O688  1  0.342200  0.001400  0.704900  1
  O  O689  1  0.669500  0.503900  0.814100  1
  O  O690  1  0.330500  0.496100  0.185900  1
  O  O691  1  0.736200  0.314900  0.644700  1
  O  O692  1  0.263800  0.685100  0.355300  1
  O  O693  1  0.866100  0.534800  0.681400  1
  O  O694  1  0.133900  0.465200  0.318600  1
  O  O695  1  0.783700  0.664600  0.100800  1
  O  O696  1  0.216300  0.335400  0.899200  1
  O  O697  1  0.720000  0.821900  0.172600  1
  O  O698  1  0.280000  0.178100  0.827400  1
  O  O699  1  0.044700  0.212600  0.386200  1
  O  O700  1  0.955300  0.787400  0.613800  1
  O  O701  1  0.557500  0.487900  0.227700  1
  O  O702  1  0.442500  0.512100  0.772300  1
  O  O703  1  0.508400  0.353600  0.229100  1
  O  O704  1  0.491600  0.646400  0.770900  1
  O  O705  1  0.731800  0.755600  0.074000  1
  O  O706  1  0.268200  0.244400  0.926000  1
  O  O707  1  0.815300  0.153400  0.145200  1
  O  O708  1  0.184700  0.846600  0.854800  1
  O  O709  1  0.967200  0.282000  0.196300  1
  O  O710  1  0.032800  0.718000  0.803700  1
  O  O711  1  0.672000  0.331200  0.904600  1
  O  O712  1  0.328000  0.668800  0.095400  1
  O  O713  1  0.726000  0.369000  0.676000  1
  O  O714  1  0.274000  0.631000  0.324000  1
  O  O715  1  0.031000  0.255000  0.386000  1
  O  O716  1  0.969000  0.745000  0.614000  1
