# generated using pymatgen
data_H40Pd2C36(N4O5)3
_symmetry_space_group_name_H-M   'P 1'
_cell_length_a   12.99800000
_cell_length_b   22.17800000
_cell_length_c   30.28600000
_cell_angle_alpha   98.13800000
_cell_angle_beta   90.00000000
_cell_angle_gamma   90.00000000
_symmetry_Int_Tables_number   1
_chemical_formula_structural   H40Pd2C36(N4O5)3
_chemical_formula_sum   'H320 Pd16 C288 N96 O120'
_cell_volume   8642.61787562
_cell_formula_units_Z   8
loop_
 _symmetry_equiv_pos_site_id
 _symmetry_equiv_pos_as_xyz
  1  'x, y, z'
loop_
 _atom_site_type_symbol
 _atom_site_label
 _atom_site_symmetry_multiplicity
 _atom_site_fract_x
 _atom_site_fract_y
 _atom_site_fract_z
 _atom_site_occupancy
  H  H1  1  0.703700  0.819200  0.228100  1
  H  H2  1  0.203700  0.680800  0.271900  1
  H  H3  1  0.296300  0.180800  0.771900  1
  H  H4  1  0.796300  0.319200  0.728100  1
  H  H5  1  0.667900  0.875300  0.261000  1
  H  H6  1  0.167900  0.624700  0.239000  1
  H  H7  1  0.332100  0.124700  0.739000  1
  H  H8  1  0.832100  0.375300  0.761000  1
  H  H9  1  0.530800  0.773100  0.325100  1
  H  H10  1  0.030800  0.726900  0.174900  1
  H  H11  1  0.469200  0.226900  0.674900  1
  H  H12  1  0.969200  0.273100  0.825100  1
  H  H13  1  0.536500  0.842700  0.323900  1
  H  H14  1  0.036500  0.657300  0.176100  1
  H  H15  1  0.463500  0.157300  0.676100  1
  H  H16  1  0.963500  0.342700  0.823900  1
  H  H17  1  0.696700  0.808200  0.307000  1
  H  H18  1  0.196700  0.691800  0.193000  1
  H  H19  1  0.303300  0.191800  0.693000  1
  H  H20  1  0.803300  0.308200  0.807000  1
  H  H21  1  0.655400  0.754500  0.273200  1
  H  H22  1  0.155400  0.745500  0.226800  1
  H  H23  1  0.344600  0.245500  0.726800  1
  H  H24  1  0.844600  0.254500  0.773200  1
  H  H25  1  0.503400  0.345900  0.918600  1
  H  H26  1  0.003400  0.154100  0.581400  1
  H  H27  1  0.496600  0.654100  0.081400  1
  H  H28  1  0.996600  0.845900  0.418600  1
  H  H29  1  0.542100  0.402900  0.949900  1
  H  H30  1  0.042100  0.097100  0.550100  1
  H  H31  1  0.457900  0.597100  0.050100  1
  H  H32  1  0.957900  0.902900  0.449900  1
  H  H33  1  0.673800  0.371800  0.902600  1
  H  H34  1  0.173800  0.128200  0.597400  1
  H  H35  1  0.326200  0.628200  0.097400  1
  H  H36  1  0.826200  0.871800  0.402600  1
  H  H37  1  0.601900  0.370400  0.861500  1
  H  H38  1  0.101900  0.129600  0.638500  1
  H  H39  1  0.398100  0.629600  0.138500  1
  H  H40  1  0.898100  0.870400  0.361500  1
  H  H41  1  0.401400  0.820400  0.283500  1
  H  H42  1  0.901400  0.679600  0.216500  1
  H  H43  1  0.598600  0.179600  0.716500  1
  H  H44  1  0.098600  0.320400  0.783500  1
  H  H45  1  0.442700  0.756500  0.264300  1
  H  H46  1  0.942700  0.743500  0.235700  1
  H  H47  1  0.557300  0.243500  0.735700  1
  H  H48  1  0.057300  0.256500  0.764300  1
  H  H49  1  0.387900  0.429600  0.926100  1
  H  H50  1  0.887900  0.070400  0.573900  1
  H  H51  1  0.612100  0.570400  0.073900  1
  H  H52  1  0.112100  0.929600  0.426100  1
  H  H53  1  0.413600  0.403400  0.877100  1
  H  H54  1  0.913600  0.096600  0.622900  1
  H  H55  1  0.586400  0.596600  0.122900  1
  H  H56  1  0.086400  0.903400  0.377100  1
  H  H57  1  0.670100  0.462200  0.862000  1
  H  H58  1  0.170100  0.037800  0.638000  1
  H  H59  1  0.329900  0.537800  0.138000  1
  H  H60  1  0.829900  0.962200  0.362000  1
  H  H61  1  0.682200  0.472600  0.913400  1
  H  H62  1  0.182200  0.027400  0.586600  1
  H  H63  1  0.317800  0.527400  0.086600  1
  H  H64  1  0.817800  0.972600  0.413400  1
  H  H65  1  0.579600  0.951300  0.194200  1
  H  H66  1  0.079600  0.548700  0.305800  1
  H  H67  1  0.420400  0.048700  0.805800  1
  H  H68  1  0.920400  0.451300  0.694200  1
  H  H69  1  0.624900  0.995600  0.129900  1
  H  H70  1  0.124900  0.504400  0.370100  1
  H  H71  1  0.375100  0.004400  0.870100  1
  H  H72  1  0.875100  0.495600  0.629900  1
  H  H73  1  0.658900  0.930300  0.062600  1
  H  H74  1  0.158900  0.569700  0.437400  1
  H  H75  1  0.341100  0.069700  0.937400  1
  H  H76  1  0.841100  0.430300  0.562600  1
  H  H77  1  0.581600  0.785300  0.126000  1
  H  H78  1  0.081600  0.714700  0.374000  1
  H  H79  1  0.418400  0.214700  0.874000  1
  H  H80  1  0.918400  0.285300  0.626000  1
  H  H81  1  0.667300  0.662500  0.005200  1
  H  H82  1  0.167300  0.837500  0.494800  1
  H  H83  1  0.332700  0.337500  0.994800  1
  H  H84  1  0.832700  0.162500  0.505200  1
  H  H85  1  0.656200  0.730100  0.072100  1
  H  H86  1  0.156200  0.769900  0.427900  1
  H  H87  1  0.343800  0.269900  0.927900  1
  H  H88  1  0.843800  0.230100  0.572100  1
  H  H89  1  0.597300  0.870900  0.003100  1
  H  H90  1  0.097300  0.629100  0.496900  1
  H  H91  1  0.402700  0.129100  0.996900  1
  H  H92  1  0.902700  0.370900  0.503100  1
  H  H93  1  0.603600  0.802900  0.936500  1
  H  H94  1  0.103600  0.697100  0.563500  1
  H  H95  1  0.396400  0.197100  0.063500  1
  H  H96  1  0.896400  0.302900  0.436500  1
  H  H97  1  0.575100  0.613000  0.952600  1
  H  H98  1  0.075100  0.887000  0.547400  1
  H  H99  1  0.424900  0.387000  0.047400  1
  H  H100  1  0.924900  0.113000  0.452600  1
  H  H101  1  0.678900  0.739000  0.878000  1
  H  H102  1  0.178900  0.761000  0.622000  1
  H  H103  1  0.321100  0.261000  0.122000  1
  H  H104  1  0.821100  0.239000  0.378000  1
  H  H105  1  0.663600  0.665300  0.815000  1
  H  H106  1  0.163600  0.834700  0.685000  1
  H  H107  1  0.336400  0.334700  0.185000  1
  H  H108  1  0.836400  0.165300  0.315000  1
  H  H109  1  0.590000  0.571500  0.819800  1
  H  H110  1  0.090000  0.928500  0.680200  1
  H  H111  1  0.410000  0.428500  0.180200  1
  H  H112  1  0.910000  0.071500  0.319800  1
  H  H113  1  0.299600  0.889100  0.230400  1
  H  H114  1  0.799600  0.610900  0.269600  1
  H  H115  1  0.700400  0.110900  0.769600  1
  H  H116  1  0.200400  0.389100  0.730400  1
  H  H117  1  0.145000  0.887100  0.191500  1
  H  H118  1  0.645000  0.612900  0.308500  1
  H  H119  1  0.855000  0.112900  0.808500  1
  H  H120  1  0.355000  0.387100  0.691500  1
  H  H121  1  0.122900  0.820400  0.126100  1
  H  H122  1  0.622900  0.679600  0.373900  1
  H  H123  1  0.877100  0.179600  0.873900  1
  H  H124  1  0.377100  0.320400  0.626100  1
  H  H125  1  0.413300  0.757300  0.140900  1
  H  H126  1  0.913300  0.742700  0.359100  1
  H  H127  1  0.586700  0.242700  0.859100  1
  H  H128  1  0.086700  0.257300  0.640900  1
  H  H129  1  0.122300  0.701800  0.091500  1
  H  H130  1  0.622300  0.798200  0.408500  1
  H  H131  1  0.877700  0.298200  0.908500  1
  H  H132  1  0.377700  0.201800  0.591500  1
  H  H133  1  0.126600  0.632700  0.024700  1
  H  H134  1  0.626600  0.867300  0.475300  1
  H  H135  1  0.873400  0.367300  0.975300  1
  H  H136  1  0.373400  0.132700  0.524700  1
  H  H137  1  0.400500  0.696700  0.992400  1
  H  H138  1  0.900500  0.803300  0.507600  1
  H  H139  1  0.599500  0.303300  0.007600  1
  H  H140  1  0.099500  0.196700  0.492400  1
  H  H141  1  0.402700  0.763100  0.060200  1
  H  H142  1  0.902700  0.736900  0.439800  1
  H  H143  1  0.597300  0.236900  0.939800  1
  H  H144  1  0.097300  0.263100  0.560200  1
  H  H145  1  0.415800  0.594800  0.966000  1
  H  H146  1  0.915800  0.905200  0.534000  1
  H  H147  1  0.584200  0.405200  0.034000  1
  H  H148  1  0.084200  0.094800  0.466000  1
  H  H149  1  0.113100  0.619800  0.944800  1
  H  H150  1  0.613100  0.880200  0.555200  1
  H  H151  1  0.886900  0.380200  0.055200  1
  H  H152  1  0.386900  0.119800  0.444800  1
  H  H153  1  0.128400  0.548500  0.879100  1
  H  H154  1  0.628400  0.951500  0.620900  1
  H  H155  1  0.871600  0.451500  0.120900  1
  H  H156  1  0.371600  0.048500  0.379100  1
  H  H157  1  0.289800  0.509900  0.856300  1
  H  H158  1  0.789800  0.990100  0.643700  1
  H  H159  1  0.710200  0.490100  0.143700  1
  H  H160  1  0.210200  0.009900  0.356300  1
  H  H161  1  0.892200  0.117600  0.142700  1
  H  H162  1  0.392200  0.382400  0.357300  1
  H  H163  1  0.107800  0.882400  0.857300  1
  H  H164  1  0.607800  0.617600  0.642700  1
  H  H165  1  0.820200  0.115700  0.101700  1
  H  H166  1  0.320200  0.384300  0.398300  1
  H  H167  1  0.179800  0.884300  0.898300  1
  H  H168  1  0.679800  0.615700  0.601700  1
  H  H169  1  0.956900  0.092700  0.053600  1
  H  H170  1  0.456900  0.407300  0.446400  1
  H  H171  1  0.043100  0.907300  0.946400  1
  H  H172  1  0.543100  0.592700  0.553600  1
  H  H173  1  0.988400  0.150000  0.086300  1
  H  H174  1  0.488400  0.350000  0.413700  1
  H  H175  1  0.011600  0.850000  0.913700  1
  H  H176  1  0.511600  0.650000  0.586300  1
  H  H177  1  0.838100  0.685900  0.690900  1
  H  H178  1  0.338100  0.814100  0.809100  1
  H  H179  1  0.161900  0.314100  0.309100  1
  H  H180  1  0.661900  0.185900  0.190900  1
  H  H181  1  0.925300  0.637700  0.685000  1
  H  H182  1  0.425300  0.862300  0.815000  1
  H  H183  1  0.074700  0.362300  0.315000  1
  H  H184  1  0.574700  0.137700  0.185000  1
  H  H185  1  0.999000  0.732000  0.678500  1
  H  H186  1  0.499000  0.768000  0.821500  1
  H  H187  1  0.001000  0.268000  0.321500  1
  H  H188  1  0.501000  0.232000  0.178500  1
  H  H189  1  0.952300  0.759400  0.724100  1
  H  H190  1  0.452300  0.740600  0.775900  1
  H  H191  1  0.047700  0.240600  0.275900  1
  H  H192  1  0.547700  0.259400  0.224100  1
  H  H193  1  0.112400  0.738400  0.741000  1
  H  H194  1  0.612400  0.761600  0.759000  1
  H  H195  1  0.887600  0.261600  0.259000  1
  H  H196  1  0.387600  0.238400  0.241000  1
  H  H197  1  0.110300  0.676300  0.710200  1
  H  H198  1  0.610300  0.823700  0.789800  1
  H  H199  1  0.889700  0.323700  0.289800  1
  H  H200  1  0.389700  0.176300  0.210200  1
  H  H201  1  0.853500  0.622900  0.751200  1
  H  H202  1  0.353500  0.877100  0.748800  1
  H  H203  1  0.146500  0.377100  0.248800  1
  H  H204  1  0.646500  0.122900  0.251200  1
  H  H205  1  0.841800  0.692400  0.766300  1
  H  H206  1  0.341800  0.807600  0.733700  1
  H  H207  1  0.158200  0.307600  0.233700  1
  H  H208  1  0.658200  0.192400  0.266300  1
  H  H209  1  0.083900  0.094900  0.126200  1
  H  H210  1  0.583900  0.405100  0.373800  1
  H  H211  1  0.916100  0.905100  0.873800  1
  H  H212  1  0.416100  0.594900  0.626200  1
  H  H213  1  0.113300  0.073300  0.076900  1
  H  H214  1  0.613300  0.426700  0.423100  1
  H  H215  1  0.886700  0.926700  0.923100  1
  H  H216  1  0.386700  0.573300  0.576900  1
  H  H217  1  0.826700  0.016400  0.086700  1
  H  H218  1  0.326700  0.483600  0.413300  1
  H  H219  1  0.173300  0.983600  0.913300  1
  H  H220  1  0.673300  0.516400  0.586700  1
  H  H221  1  0.838200  0.023300  0.138200  1
  H  H222  1  0.338200  0.476700  0.361800  1
  H  H223  1  0.161800  0.976700  0.861800  1
  H  H224  1  0.661800  0.523300  0.638200  1
  H  H225  1  0.949700  0.878300  0.045100  1
  H  H226  1  0.449700  0.621700  0.454900  1
  H  H227  1  0.050300  0.121700  0.954900  1
  H  H228  1  0.550300  0.378300  0.545100  1
  H  H229  1  0.854300  0.750300  0.119400  1
  H  H230  1  0.354300  0.749700  0.380600  1
  H  H231  1  0.145700  0.249700  0.880600  1
  H  H232  1  0.645700  0.250300  0.619400  1
  H  H233  1  0.868900  0.823400  0.182900  1
  H  H234  1  0.368900  0.676600  0.317100  1
  H  H235  1  0.131100  0.176600  0.817100  1
  H  H236  1  0.631100  0.323400  0.682900  1
  H  H237  1  0.936000  0.918500  0.177100  1
  H  H238  1  0.436000  0.581500  0.322900  1
  H  H239  1  0.064000  0.081500  0.822900  1
  H  H240  1  0.564000  0.418500  0.677100  1
  H  H241  1  0.871000  0.827400  0.989500  1
  H  H242  1  0.371000  0.672600  0.510500  1
  H  H243  1  0.129000  0.172600  0.010500  1
  H  H244  1  0.629000  0.327400  0.489500  1
  H  H245  1  0.870100  0.755500  0.924100  1
  H  H246  1  0.370100  0.744500  0.575900  1
  H  H247  1  0.129900  0.244500  0.075900  1
  H  H248  1  0.629900  0.255500  0.424100  1
  H  H249  1  0.920100  0.615500  0.994700  1
  H  H250  1  0.420100  0.884500  0.505300  1
  H  H251  1  0.079900  0.384500  0.005300  1
  H  H252  1  0.579900  0.115500  0.494700  1
  H  H253  1  0.921300  0.683600  0.061300  1
  H  H254  1  0.421300  0.816400  0.438700  1
  H  H255  1  0.078700  0.316400  0.938700  1
  H  H256  1  0.578700  0.183600  0.561300  1
  H  H257  1  0.961500  0.703300  0.873900  1
  H  H258  1  0.461500  0.796700  0.626100  1
  H  H259  1  0.038500  0.296700  0.126100  1
  H  H260  1  0.538500  0.203300  0.373900  1
  H  H261  1  0.862600  0.560300  0.932800  1
  H  H262  1  0.362600  0.939700  0.567200  1
  H  H263  1  0.137400  0.439700  0.067200  1
  H  H264  1  0.637400  0.060300  0.432800  1
  H  H265  1  0.886600  0.496300  0.862900  1
  H  H266  1  0.386600  0.003700  0.637100  1
  H  H267  1  0.113400  0.503700  0.137100  1
  H  H268  1  0.613400  0.996300  0.362900  1
  H  H269  1  0.949200  0.539200  0.802800  1
  H  H270  1  0.449200  0.960800  0.697200  1
  H  H271  1  0.050800  0.460800  0.197200  1
  H  H272  1  0.550800  0.039200  0.302800  1
  H  H273  1  0.245100  0.612200  0.771400  1
  H  H274  1  0.745100  0.887800  0.728600  1
  H  H275  1  0.754900  0.387800  0.228600  1
  H  H276  1  0.254900  0.112200  0.271400  1
  H  H277  1  0.397800  0.623800  0.807700  1
  H  H278  1  0.897800  0.876200  0.692300  1
  H  H279  1  0.602200  0.376200  0.192300  1
  H  H280  1  0.102200  0.123800  0.307700  1
  H  H281  1  0.409400  0.689800  0.873900  1
  H  H282  1  0.909400  0.810200  0.626100  1
  H  H283  1  0.590600  0.310200  0.126100  1
  H  H284  1  0.090600  0.189800  0.373900  1
  H  H285  1  0.115100  0.742500  0.857700  1
  H  H286  1  0.615100  0.757500  0.642300  1
  H  H287  1  0.884900  0.257500  0.142300  1
  H  H288  1  0.384900  0.242500  0.357700  1
  H  H289  1  0.404800  0.805400  0.904000  1
  H  H290  1  0.904800  0.694600  0.596000  1
  H  H291  1  0.595200  0.194600  0.096000  1
  H  H292  1  0.095200  0.305400  0.404000  1
  H  H293  1  0.399300  0.878500  0.970300  1
  H  H294  1  0.899300  0.621500  0.529700  1
  H  H295  1  0.600700  0.121500  0.029700  1
  H  H296  1  0.100700  0.378500  0.470300  1
  H  H297  1  0.122600  0.810300  0.002800  1
  H  H298  1  0.622600  0.689700  0.497200  1
  H  H299  1  0.877400  0.189700  0.997200  1
  H  H300  1  0.377400  0.310300  0.502800  1
  H  H301  1  0.123200  0.744500  0.936700  1
  H  H302  1  0.623200  0.755500  0.563300  1
  H  H303  1  0.876800  0.255500  0.063300  1
  H  H304  1  0.376800  0.244500  0.436700  1
  H  H305  1  0.104200  0.912100  0.031300  1
  H  H306  1  0.604200  0.587900  0.468700  1
  H  H307  1  0.895800  0.087900  0.968700  1
  H  H308  1  0.395800  0.412100  0.531300  1
  H  H309  1  0.410200  0.892800  0.054600  1
  H  H310  1  0.910200  0.607200  0.445400  1
  H  H311  1  0.589800  0.107200  0.945400  1
  H  H312  1  0.089800  0.392800  0.554600  1
  H  H313  1  0.389000  0.958200  0.121300  1
  H  H314  1  0.889000  0.541800  0.378700  1
  H  H315  1  0.611000  0.041800  0.878700  1
  H  H316  1  0.111000  0.458200  0.621300  1
  H  H317  1  0.223600  0.996700  0.144200  1
  H  H318  1  0.723600  0.503300  0.355800  1
  H  H319  1  0.776400  0.003300  0.855800  1
  H  H320  1  0.276400  0.496700  0.644200  1
  Pd  Pd321  1  0.511690  0.831540  0.217650  1
  Pd  Pd322  1  0.011690  0.668460  0.282350  1
  Pd  Pd323  1  0.488310  0.168460  0.782350  1
  Pd  Pd324  1  0.988310  0.331540  0.717650  1
  Pd  Pd325  1  0.503780  0.504850  0.895120  1
  Pd  Pd326  1  0.003780  0.995150  0.604880  1
  Pd  Pd327  1  0.496220  0.495150  0.104880  1
  Pd  Pd328  1  0.996220  0.004850  0.395120  1
  Pd  Pd329  1  0.022710  0.663090  0.781750  1
  Pd  Pd330  1  0.522710  0.836910  0.718250  1
  Pd  Pd331  1  0.977290  0.336910  0.218250  1
  Pd  Pd332  1  0.477290  0.163090  0.281750  1
  Pd  Pd333  1  0.008830  0.989790  0.104220  1
  Pd  Pd334  1  0.508830  0.510210  0.395780  1
  Pd  Pd335  1  0.991170  0.010210  0.895780  1
  Pd  Pd336  1  0.491170  0.489790  0.604220  1
  C  C337  1  0.542300  0.802300  0.306400  1
  C  C338  1  0.042300  0.697700  0.193600  1
  C  C339  1  0.457700  0.197700  0.693600  1
  C  C340  1  0.957700  0.302300  0.806400  1
  C  C341  1  0.642000  0.796100  0.285400  1
  C  C342  1  0.142000  0.703900  0.214600  1
  C  C343  1  0.358000  0.203900  0.714600  1
  C  C344  1  0.858000  0.296100  0.785400  1
  C  C345  1  0.588500  0.925200  0.166300  1
  C  C346  1  0.088500  0.574800  0.333700  1
  C  C347  1  0.411500  0.074800  0.833700  1
  C  C348  1  0.911500  0.425200  0.666300  1
  C  C349  1  0.618900  0.951700  0.128100  1
  C  C350  1  0.118900  0.548300  0.371900  1
  C  C351  1  0.381100  0.048300  0.871900  1
  C  C352  1  0.881100  0.451700  0.628100  1
  C  C353  1  0.633300  0.914700  0.087900  1
  C  C354  1  0.133300  0.585300  0.412100  1
  C  C355  1  0.366700  0.085300  0.912100  1
  C  C356  1  0.866700  0.414700  0.587900  1
  C  C357  1  0.617700  0.851200  0.087400  1
  C  C358  1  0.117700  0.648800  0.412600  1
  C  C359  1  0.382300  0.148800  0.912600  1
  C  C360  1  0.882300  0.351200  0.587400  1
  C  C361  1  0.587200  0.829500  0.126500  1
  C  C362  1  0.087200  0.670500  0.373500  1
  C  C363  1  0.412800  0.170500  0.873500  1
  C  C364  1  0.912800  0.329500  0.626500  1
  C  C365  1  0.631700  0.726200  0.964700  1
  C  C366  1  0.131700  0.773800  0.535300  1
  C  C367  1  0.368300  0.273800  0.035300  1
  C  C368  1  0.868300  0.226200  0.464700  1
  C  C369  1  0.650000  0.705600  0.004700  1
  C  C370  1  0.150000  0.794400  0.495300  1
  C  C371  1  0.350000  0.294400  0.995300  1
  C  C372  1  0.850000  0.205600  0.504700  1
  C  C373  1  0.645900  0.744800  0.043200  1
  C  C374  1  0.145900  0.755200  0.456800  1
  C  C375  1  0.354100  0.255200  0.956800  1
  C  C376  1  0.854100  0.244800  0.543200  1
  C  C377  1  0.625200  0.807600  0.044200  1
  C  C378  1  0.125200  0.692400  0.455800  1
  C  C379  1  0.374800  0.192400  0.955800  1
  C  C380  1  0.874800  0.307600  0.544200  1
  C  C381  1  0.608900  0.828600  0.003600  1
  C  C382  1  0.108900  0.671400  0.496400  1
  C  C383  1  0.391100  0.171400  0.996400  1
  C  C384  1  0.891100  0.328600  0.503600  1
  C  C385  1  0.613500  0.788300  0.964100  1
  C  C386  1  0.113500  0.711700  0.535900  1
  C  C387  1  0.386500  0.211700  0.035900  1
  C  C388  1  0.886500  0.288300  0.464100  1
  C  C389  1  0.591300  0.624500  0.923400  1
  C  C390  1  0.091300  0.875500  0.576600  1
  C  C391  1  0.408700  0.375500  0.076600  1
  C  C392  1  0.908700  0.124500  0.423400  1
  C  C393  1  0.628300  0.683200  0.922100  1
  C  C394  1  0.128300  0.816800  0.577900  1
  C  C395  1  0.371700  0.316800  0.077900  1
  C  C396  1  0.871700  0.183200  0.422100  1
  C  C397  1  0.654700  0.699300  0.880200  1
  C  C398  1  0.154700  0.800700  0.619800  1
  C  C399  1  0.345300  0.300700  0.119800  1
  C  C400  1  0.845300  0.199300  0.380200  1
  C  C401  1  0.643100  0.655800  0.843100  1
  C  C402  1  0.143100  0.844200  0.656900  1
  C  C403  1  0.356900  0.344200  0.156900  1
  C  C404  1  0.856900  0.155800  0.343100  1
  C  C405  1  0.601800  0.599700  0.846500  1
  C  C406  1  0.101800  0.900300  0.653500  1
  C  C407  1  0.398200  0.400300  0.153500  1
  C  C408  1  0.898200  0.099700  0.346500  1
  C  C409  1  0.612900  0.391400  0.890700  1
  C  C410  1  0.112900  0.108600  0.609300  1
  C  C411  1  0.387100  0.608600  0.109300  1
  C  C412  1  0.887100  0.891400  0.390700  1
  C  C413  1  0.524900  0.386900  0.920400  1
  C  C414  1  0.024900  0.113100  0.579600  1
  C  C415  1  0.475100  0.613100  0.079600  1
  C  C416  1  0.975100  0.886900  0.420400  1
  C  C417  1  0.291300  0.862000  0.203000  1
  C  C418  1  0.791300  0.638000  0.297000  1
  C  C419  1  0.708700  0.138000  0.797000  1
  C  C420  1  0.208700  0.362000  0.703000  1
  C  C421  1  0.199400  0.860500  0.179900  1
  C  C422  1  0.699400  0.639500  0.320100  1
  C  C423  1  0.800600  0.139500  0.820100  1
  C  C424  1  0.300600  0.360500  0.679900  1
  C  C425  1  0.186900  0.821800  0.141500  1
  C  C426  1  0.686900  0.678200  0.358500  1
  C  C427  1  0.813100  0.178200  0.858500  1
  C  C428  1  0.313100  0.321800  0.641500  1
  C  C429  1  0.267200  0.782900  0.124400  1
  C  C430  1  0.767200  0.717100  0.375600  1
  C  C431  1  0.732800  0.217100  0.875600  1
  C  C432  1  0.232800  0.282900  0.624400  1
  C  C433  1  0.356900  0.785800  0.150000  1
  C  C434  1  0.856900  0.714200  0.350000  1
  C  C435  1  0.643100  0.214200  0.850000  1
  C  C436  1  0.143100  0.285800  0.650000  1
  C  C437  1  0.263000  0.740100  0.082100  1
  C  C438  1  0.763000  0.759900  0.417900  1
  C  C439  1  0.737000  0.259900  0.917900  1
  C  C440  1  0.237000  0.240100  0.582100  1
  C  C441  1  0.179900  0.701800  0.071100  1
  C  C442  1  0.679900  0.798200  0.428900  1
  C  C443  1  0.820100  0.298200  0.928900  1
  C  C444  1  0.320100  0.201800  0.571100  1
  C  C445  1  0.181900  0.660500  0.032000  1
  C  C446  1  0.681900  0.839500  0.468000  1
  C  C447  1  0.818100  0.339500  0.968000  1
  C  C448  1  0.318100  0.160500  0.532000  1
  C  C449  1  0.264800  0.657700  0.003500  1
  C  C450  1  0.764800  0.842300  0.496500  1
  C  C451  1  0.735200  0.342300  0.996500  1
  C  C452  1  0.235200  0.157700  0.503500  1
  C  C453  1  0.345000  0.697400  0.012900  1
  C  C454  1  0.845000  0.802600  0.487100  1
  C  C455  1  0.655000  0.302600  0.987100  1
  C  C456  1  0.155000  0.197400  0.512900  1
  C  C457  1  0.344900  0.737000  0.052100  1
  C  C458  1  0.844900  0.763000  0.447900  1
  C  C459  1  0.655100  0.263000  0.947900  1
  C  C460  1  0.155100  0.237000  0.552100  1
  C  C461  1  0.356200  0.586400  0.947900  1
  C  C462  1  0.856200  0.913600  0.552100  1
  C  C463  1  0.643800  0.413600  0.052100  1
  C  C464  1  0.143800  0.086400  0.447900  1
  C  C465  1  0.264300  0.613600  0.961400  1
  C  C466  1  0.764300  0.886400  0.538600  1
  C  C467  1  0.735700  0.386400  0.038600  1
  C  C468  1  0.235700  0.113600  0.461400  1
  C  C469  1  0.179100  0.600800  0.934800  1
  C  C470  1  0.679100  0.899200  0.565200  1
  C  C471  1  0.820900  0.399200  0.065200  1
  C  C472  1  0.320900  0.100800  0.434800  1
  C  C473  1  0.186800  0.560700  0.897100  1
  C  C474  1  0.686800  0.939300  0.602900  1
  C  C475  1  0.813200  0.439300  0.102900  1
  C  C476  1  0.313200  0.060700  0.397100  1
  C  C477  1  0.284000  0.536500  0.883900  1
  C  C478  1  0.784000  0.963500  0.616100  1
  C  C479  1  0.716000  0.463500  0.116100  1
  C  C480  1  0.216000  0.036500  0.383900  1
  C  C481  1  0.972300  0.108700  0.084300  1
  C  C482  1  0.472300  0.391300  0.415700  1
  C  C483  1  0.027700  0.891300  0.915700  1
  C  C484  1  0.527700  0.608700  0.584300  1
  C  C485  1  0.882400  0.098900  0.112700  1
  C  C486  1  0.382400  0.401100  0.387300  1
  C  C487  1  0.117600  0.901100  0.887300  1
  C  C488  1  0.617600  0.598900  0.612700  1
  C  C489  1  0.935200  0.866000  0.074500  1
  C  C490  1  0.435200  0.634000  0.425500  1
  C  C491  1  0.064800  0.134000  0.925500  1
  C  C492  1  0.564800  0.366000  0.574500  1
  C  C493  1  0.901600  0.806000  0.074900  1
  C  C494  1  0.401600  0.694000  0.425100  1
  C  C495  1  0.098400  0.194000  0.925100  1
  C  C496  1  0.598400  0.306000  0.574900  1
  C  C497  1  0.877600  0.789900  0.116600  1
  C  C498  1  0.377600  0.710100  0.383400  1
  C  C499  1  0.122400  0.210100  0.883400  1
  C  C500  1  0.622400  0.289900  0.616600  1
  C  C501  1  0.887600  0.834400  0.154300  1
  C  C502  1  0.387600  0.665600  0.345700  1
  C  C503  1  0.112400  0.165600  0.845700  1
  C  C504  1  0.612400  0.334400  0.654300  1
  C  C505  1  0.925400  0.889300  0.150200  1
  C  C506  1  0.425400  0.610700  0.349800  1
  C  C507  1  0.074600  0.110700  0.849800  1
  C  C508  1  0.574600  0.389300  0.650200  1
  C  C509  1  0.897900  0.762700  0.032900  1
  C  C510  1  0.397900  0.737300  0.467100  1
  C  C511  1  0.102100  0.237300  0.967100  1
  C  C512  1  0.602100  0.262700  0.532900  1
  C  C513  1  0.881800  0.784100  0.991100  1
  C  C514  1  0.381800  0.715900  0.508900  1
  C  C515  1  0.118200  0.215900  0.008900  1
  C  C516  1  0.618200  0.284100  0.491100  1
  C  C517  1  0.882800  0.742100  0.952600  1
  C  C518  1  0.382800  0.757900  0.547400  1
  C  C519  1  0.117200  0.257900  0.047400  1
  C  C520  1  0.617200  0.242100  0.452600  1
  C  C521  1  0.902000  0.680400  0.952600  1
  C  C522  1  0.402000  0.819600  0.547400  1
  C  C523  1  0.098000  0.319600  0.047400  1
  C  C524  1  0.598000  0.180400  0.452600  1
  C  C525  1  0.913200  0.659100  0.993900  1
  C  C526  1  0.413200  0.840900  0.506100  1
  C  C527  1  0.086800  0.340900  0.006100  1
  C  C528  1  0.586800  0.159100  0.493900  1
  C  C529  1  0.913200  0.699200  0.033300  1
  C  C530  1  0.413200  0.800800  0.466700  1
  C  C531  1  0.086800  0.300800  0.966700  1
  C  C532  1  0.586800  0.199200  0.533300  1
  C  C533  1  0.946500  0.660700  0.871800  1
  C  C534  1  0.446500  0.839300  0.628200  1
  C  C535  1  0.053500  0.339300  0.128200  1
  C  C536  1  0.553500  0.160700  0.371800  1
  C  C537  1  0.909300  0.638900  0.909700  1
  C  C538  1  0.409300  0.861100  0.590300  1
  C  C539  1  0.090700  0.361100  0.090300  1
  C  C540  1  0.590700  0.138900  0.409700  1
  C  C541  1  0.888500  0.577000  0.907100  1
  C  C542  1  0.388500  0.923000  0.592900  1
  C  C543  1  0.111500  0.423000  0.092900  1
  C  C544  1  0.611500  0.077000  0.407100  1
  C  C545  1  0.903300  0.539200  0.866100  1
  C  C546  1  0.403300  0.960800  0.633900  1
  C  C547  1  0.096700  0.460800  0.133900  1
  C  C548  1  0.596700  0.039200  0.366100  1
  C  C549  1  0.939100  0.566200  0.830800  1
  C  C550  1  0.439100  0.933800  0.669200  1
  C  C551  1  0.060900  0.433800  0.169200  1
  C  C552  1  0.560900  0.066200  0.330800  1
  C  C553  1  0.901800  0.674900  0.703800  1
  C  C554  1  0.401800  0.825100  0.796200  1
  C  C555  1  0.098200  0.325100  0.296200  1
  C  C556  1  0.598200  0.174900  0.203800  1
  C  C557  1  0.979000  0.722500  0.707100  1
  C  C558  1  0.479000  0.777500  0.792900  1
  C  C559  1  0.021000  0.277500  0.292900  1
  C  C560  1  0.521000  0.222500  0.207100  1
  C  C561  1  0.247000  0.640100  0.798100  1
  C  C562  1  0.747000  0.859900  0.701900  1
  C  C563  1  0.753000  0.359900  0.201900  1
  C  C564  1  0.253000  0.140100  0.298100  1
  C  C565  1  0.338100  0.646700  0.819200  1
  C  C566  1  0.838100  0.853300  0.680800  1
  C  C567  1  0.661900  0.353300  0.180800  1
  C  C568  1  0.161900  0.146700  0.319200  1
  C  C569  1  0.346300  0.686700  0.857300  1
  C  C570  1  0.846300  0.813300  0.642700  1
  C  C571  1  0.653700  0.313300  0.142700  1
  C  C572  1  0.153700  0.186700  0.357300  1
  C  C573  1  0.261500  0.722900  0.873500  1
  C  C574  1  0.761500  0.777100  0.626500  1
  C  C575  1  0.738500  0.277100  0.126500  1
  C  C576  1  0.238500  0.222900  0.373500  1
  C  C577  1  0.173500  0.715300  0.849100  1
  C  C578  1  0.673500  0.784700  0.650900  1
  C  C579  1  0.826500  0.284700  0.150900  1
  C  C580  1  0.326500  0.215300  0.349100  1
  C  C581  1  0.262700  0.766700  0.914200  1
  C  C582  1  0.762700  0.733300  0.585800  1
  C  C583  1  0.737300  0.233300  0.085800  1
  C  C584  1  0.237300  0.266700  0.414200  1
  C  C585  1  0.346300  0.806100  0.924900  1
  C  C586  1  0.846300  0.693900  0.575100  1
  C  C587  1  0.653700  0.193900  0.075100  1
  C  C588  1  0.153700  0.306100  0.424900  1
  C  C589  1  0.344400  0.848500  0.964300  1
  C  C590  1  0.844400  0.651500  0.535700  1
  C  C591  1  0.655600  0.151500  0.035700  1
  C  C592  1  0.155600  0.348500  0.464300  1
  C  C593  1  0.262500  0.850400  0.992800  1
  C  C594  1  0.762500  0.649600  0.507200  1
  C  C595  1  0.737500  0.149600  0.007200  1
  C  C596  1  0.237500  0.350400  0.492800  1
  C  C597  1  0.179400  0.809400  0.982400  1
  C  C598  1  0.679400  0.690600  0.517600  1
  C  C599  1  0.820600  0.190600  0.017600  1
  C  C600  1  0.320600  0.309400  0.482400  1
  C  C601  1  0.181300  0.769900  0.944300  1
  C  C602  1  0.681300  0.730100  0.555700  1
  C  C603  1  0.818700  0.230100  0.055700  1
  C  C604  1  0.318700  0.269900  0.444300  1
  C  C605  1  0.163800  0.919200  0.050600  1
  C  C606  1  0.663800  0.580800  0.449400  1
  C  C607  1  0.836200  0.080800  0.949400  1
  C  C608  1  0.336200  0.419200  0.550600  1
  C  C609  1  0.257100  0.893200  0.035600  1
  C  C610  1  0.757100  0.606800  0.464400  1
  C  C611  1  0.742900  0.106800  0.964400  1
  C  C612  1  0.242900  0.393200  0.535600  1
  C  C613  1  0.342400  0.909300  0.063100  1
  C  C614  1  0.842400  0.590700  0.436900  1
  C  C615  1  0.657600  0.090700  0.936900  1
  C  C616  1  0.157600  0.409300  0.563100  1
  C  C617  1  0.330600  0.947300  0.102400  1
  C  C618  1  0.830600  0.552700  0.397600  1
  C  C619  1  0.669400  0.052700  0.897600  1
  C  C620  1  0.169400  0.447300  0.602400  1
  C  C621  1  0.232900  0.969400  0.116300  1
  C  C622  1  0.732900  0.530600  0.383700  1
  C  C623  1  0.767100  0.030600  0.883700  1
  C  C624  1  0.267100  0.469400  0.616300  1
  N  N625  1  0.462500  0.797900  0.271800  1
  N  N626  1  0.962500  0.702100  0.228200  1
  N  N627  1  0.537500  0.202100  0.728200  1
  N  N628  1  0.037500  0.297900  0.771800  1
  N  N629  1  0.650100  0.834500  0.248700  1
  N  N630  1  0.150100  0.665500  0.251300  1
  N  N631  1  0.349900  0.165500  0.751300  1
  N  N632  1  0.849900  0.334500  0.748700  1
  N  N633  1  0.371000  0.825300  0.188000  1
  N  N634  1  0.871000  0.674700  0.312000  1
  N  N635  1  0.629000  0.174700  0.812000  1
  N  N636  1  0.129000  0.325300  0.688000  1
  N  N637  1  0.572200  0.865800  0.164400  1
  N  N638  1  0.072200  0.634200  0.335600  1
  N  N639  1  0.427800  0.134200  0.835600  1
  N  N640  1  0.927800  0.365800  0.664400  1
  N  N641  1  0.441700  0.424500  0.903900  1
  N  N642  1  0.941700  0.075500  0.596100  1
  N  N643  1  0.558300  0.575500  0.096100  1
  N  N644  1  0.058300  0.924500  0.403900  1
  N  N645  1  0.636000  0.457200  0.890000  1
  N  N646  1  0.136000  0.042800  0.610000  1
  N  N647  1  0.364000  0.542800  0.110000  1
  N  N648  1  0.864000  0.957200  0.390000  1
  N  N649  1  0.576400  0.583400  0.886600  1
  N  N650  1  0.076400  0.916600  0.613400  1
  N  N651  1  0.423600  0.416600  0.113400  1
  N  N652  1  0.923600  0.083400  0.386600  1
  N  N653  1  0.366800  0.547900  0.908600  1
  N  N654  1  0.866800  0.952100  0.591400  1
  N  N655  1  0.633200  0.452100  0.091400  1
  N  N656  1  0.133200  0.047900  0.408600  1
  N  N657  1  0.069900  0.703500  0.730600  1
  N  N658  1  0.569900  0.796500  0.769400  1
  N  N659  1  0.930100  0.296500  0.269400  1
  N  N660  1  0.430100  0.203500  0.230600  1
  N  N661  1  0.885300  0.661000  0.750500  1
  N  N662  1  0.385300  0.839000  0.749500  1
  N  N663  1  0.114700  0.339000  0.249500  1
  N  N664  1  0.614700  0.161000  0.250500  1
  N  N665  1  0.161900  0.673400  0.812300  1
  N  N666  1  0.661900  0.826600  0.687700  1
  N  N667  1  0.838100  0.326600  0.187700  1
  N  N668  1  0.338100  0.173400  0.312300  1
  N  N669  1  0.962300  0.625800  0.833100  1
  N  N670  1  0.462300  0.874200  0.666900  1
  N  N671  1  0.037700  0.374200  0.166900  1
  N  N672  1  0.537700  0.125800  0.333100  1
  N  N673  1  0.058900  0.074600  0.098400  1
  N  N674  1  0.558900  0.425400  0.401600  1
  N  N675  1  0.941100  0.925400  0.901600  1
  N  N676  1  0.441100  0.574600  0.598400  1
  N  N677  1  0.869600  0.031300  0.111800  1
  N  N678  1  0.369600  0.468700  0.388200  1
  N  N679  1  0.130400  0.968700  0.888200  1
  N  N680  1  0.630400  0.531300  0.611800  1
  N  N681  1  0.152400  0.954000  0.089900  1
  N  N682  1  0.652400  0.546000  0.410100  1
  N  N683  1  0.847600  0.046000  0.910100  1
  N  N684  1  0.347600  0.454000  0.589900  1
  N  N685  1  0.948400  0.906200  0.110400  1
  N  N686  1  0.448400  0.593800  0.389600  1
  N  N687  1  0.051600  0.093800  0.889600  1
  N  N688  1  0.551600  0.406200  0.610400  1
  N  N689  1  0.698600  0.527200  0.999400  1
  N  N690  1  0.198600  0.972800  0.500600  1
  N  N691  1  0.301400  0.472800  0.000600  1
  N  N692  1  0.801400  0.027200  0.499400  1
  N  N693  1  0.738300  0.528500  0.721500  1
  N  N694  1  0.238300  0.971500  0.778500  1
  N  N695  1  0.261700  0.471500  0.278500  1
  N  N696  1  0.761700  0.028500  0.221500  1
  N  N697  1  0.844300  0.790900  0.831800  1
  N  N698  1  0.344300  0.709100  0.668200  1
  N  N699  1  0.155700  0.209100  0.168200  1
  N  N700  1  0.655700  0.290900  0.331800  1
  N  N701  1  0.809900  0.965600  0.000600  1
  N  N702  1  0.309900  0.534400  0.499400  1
  N  N703  1  0.190100  0.034400  0.999400  1
  N  N704  1  0.690100  0.465600  0.500600  1
  N  N705  1  0.949400  0.946000  0.782900  1
  N  N706  1  0.449400  0.554000  0.717100  1
  N  N707  1  0.050600  0.054000  0.217100  1
  N  N708  1  0.550600  0.446000  0.282900  1
  N  N709  1  0.959400  0.859800  0.269800  1
  N  N710  1  0.459400  0.640200  0.230200  1
  N  N711  1  0.040600  0.140200  0.730200  1
  N  N712  1  0.540600  0.359800  0.769800  1
  N  N713  1  0.917000  0.488300  0.271500  1
  N  N714  1  0.417000  0.011700  0.228500  1
  N  N715  1  0.083000  0.511700  0.728500  1
  N  N716  1  0.583000  0.988300  0.771500  1
  N  N717  1  0.816700  0.195600  0.666000  1
  N  N718  1  0.316700  0.304400  0.834000  1
  N  N719  1  0.183300  0.804400  0.334000  1
  N  N720  1  0.683300  0.695600  0.166000  1
  O  O721  1  0.738700  0.554900  0.033400  1
  O  O722  1  0.238700  0.945100  0.466600  1
  O  O723  1  0.261300  0.445100  0.966600  1
  O  O724  1  0.761300  0.054900  0.533400  1
  O  O725  1  0.605300  0.528600  0.993300  1
  O  O726  1  0.105300  0.971400  0.506700  1
  O  O727  1  0.394700  0.471400  0.006700  1
  O  O728  1  0.894700  0.028600  0.493300  1
  O  O729  1  0.755100  0.496500  0.971800  1
  O  O730  1  0.255100  0.003500  0.528200  1
  O  O731  1  0.244900  0.503500  0.028200  1
  O  O732  1  0.744900  0.996500  0.471800  1
  O  O733  1  0.766500  0.545800  0.762400  1
  O  O734  1  0.266500  0.954200  0.737600  1
  O  O735  1  0.233500  0.454200  0.237600  1
  O  O736  1  0.733500  0.045800  0.262400  1
  O  O737  1  0.740600  0.567100  0.694500  1
  O  O738  1  0.240600  0.932900  0.805500  1
  O  O739  1  0.259400  0.432900  0.305500  1
  O  O740  1  0.759400  0.067100  0.194500  1
  O  O741  1  0.711800  0.475100  0.709700  1
  O  O742  1  0.211800  0.024900  0.790300  1
  O  O743  1  0.288200  0.524900  0.290300  1
  O  O744  1  0.788200  0.975100  0.209700  1
  O  O745  1  0.939300  0.782300  0.830600  1
  O  O746  1  0.439300  0.717700  0.669400  1
  O  O747  1  0.060700  0.217700  0.169400  1
  O  O748  1  0.560700  0.282300  0.330600  1
  O  O749  1  0.803800  0.821400  0.865600  1
  O  O750  1  0.303800  0.678600  0.634400  1
  O  O751  1  0.196200  0.178600  0.134400  1
  O  O752  1  0.696200  0.321400  0.365600  1
  O  O753  1  0.790000  0.767500  0.800800  1
  O  O754  1  0.290000  0.732500  0.699200  1
  O  O755  1  0.210000  0.232500  0.199200  1
  O  O756  1  0.710000  0.267500  0.300800  1
  O  O757  1  0.902100  0.962700  0.006800  1
  O  O758  1  0.402100  0.537300  0.493200  1
  O  O759  1  0.097900  0.037300  0.993200  1
  O  O760  1  0.597900  0.462700  0.506800  1
  O  O761  1  0.753300  0.997300  0.028500  1
  O  O762  1  0.253300  0.502700  0.471500  1
  O  O763  1  0.246700  0.002700  0.971500  1
  O  O764  1  0.746700  0.497300  0.528500  1
  O  O765  1  0.767100  0.938400  0.965900  1
  O  O766  1  0.267100  0.561600  0.534100  1
  O  O767  1  0.232900  0.061600  0.034100  1
  O  O768  1  0.732900  0.438400  0.465900  1
  O  O769  1  0.935000  0.899900  0.801000  1
  O  O770  1  0.435000  0.600100  0.699000  1
  O  O771  1  0.065000  0.100100  0.199000  1
  O  O772  1  0.565000  0.399900  0.301000  1
  O  O773  1  0.917900  0.997600  0.800100  1
  O  O774  1  0.417900  0.502400  0.699900  1
  O  O775  1  0.082100  0.002400  0.199900  1
  O  O776  1  0.582100  0.497600  0.300100  1
  O  O777  1  0.999500  0.940600  0.747900  1
  O  O778  1  0.499500  0.559400  0.752100  1
  O  O779  1  0.000500  0.059400  0.252100  1
  O  O780  1  0.500500  0.440600  0.247900  1
  O  O781  1  0.031900  0.838500  0.244600  1
  O  O782  1  0.531900  0.661500  0.255400  1
  O  O783  1  0.968100  0.161500  0.755400  1
  O  O784  1  0.468100  0.338500  0.744600  1
  O  O785  1  0.970900  0.911100  0.293400  1
  O  O786  1  0.470900  0.588900  0.206600  1
  O  O787  1  0.029100  0.088900  0.706600  1
  O  O788  1  0.529100  0.411100  0.793400  1
  O  O789  1  0.878100  0.827700  0.270500  1
  O  O790  1  0.378100  0.672300  0.229500  1
  O  O791  1  0.121900  0.172300  0.729500  1
  O  O792  1  0.621900  0.327700  0.770500  1
  O  O793  1  0.973000  0.457600  0.292400  1
  O  O794  1  0.473000  0.042400  0.207600  1
  O  O795  1  0.027000  0.542400  0.707600  1
  O  O796  1  0.527000  0.957600  0.792400  1
  O  O797  1  0.941000  0.532400  0.241600  1
  O  O798  1  0.441000  0.967600  0.258400  1
  O  O799  1  0.059000  0.467600  0.758400  1
  O  O800  1  0.559000  0.032400  0.741600  1
  O  O801  1  0.826000  0.460000  0.289300  1
  O  O802  1  0.326000  0.040000  0.210700  1
  O  O803  1  0.174000  0.540000  0.710700  1
  O  O804  1  0.674000  0.960000  0.789300  1
  O  O805  1  0.911100  0.204100  0.664100  1
  O  O806  1  0.411100  0.295900  0.835900  1
  O  O807  1  0.088900  0.795900  0.335900  1
  O  O808  1  0.588900  0.704100  0.164100  1
  O  O809  1  0.758800  0.226800  0.691800  1
  O  O810  1  0.258800  0.273200  0.808200  1
  O  O811  1  0.241200  0.773200  0.308200  1
  O  O812  1  0.741200  0.726800  0.191800  1
  O  O813  1  0.781900  0.152600  0.639800  1
  O  O814  1  0.281900  0.347400  0.860200  1
  O  O815  1  0.218100  0.847400  0.360200  1
  O  O816  1  0.718100  0.652600  0.139800  1
  O  O817  1  0.026000  0.437600  0.930300  1
  O  O818  1  0.526000  0.062400  0.569700  1
  O  O819  1  0.974000  0.562400  0.069700  1
  O  O820  1  0.474000  0.937600  0.430300  1
  O  O821  1  0.749500  0.441500  0.804200  1
  O  O822  1  0.249500  0.058500  0.695800  1
  O  O823  1  0.250500  0.558500  0.195800  1
  O  O824  1  0.750500  0.941500  0.304200  1
  O  O825  1  0.883000  0.577900  0.168800  1
  O  O826  1  0.383000  0.922100  0.331200  1
  O  O827  1  0.117000  0.422100  0.831200  1
  O  O828  1  0.617000  0.077900  0.668800  1
  O  O829  1  0.876200  0.176200  0.227400  1
  O  O830  1  0.376200  0.323800  0.272600  1
  O  O831  1  0.123800  0.823800  0.772600  1
  O  O832  1  0.623800  0.676200  0.727400  1
  O  O833  1  0.827000  0.040800  0.714400  1
  O  O834  1  0.327000  0.459200  0.785600  1
  O  O835  1  0.173000  0.959200  0.285600  1
  O  O836  1  0.673000  0.540800  0.214400  1
  O  O837  1  0.949000  0.456000  0.464000  1
  O  O838  1  0.449000  0.044000  0.036000  1
  O  O839  1  0.051000  0.544000  0.536000  1
  O  O840  1  0.551000  0.956000  0.964000  1
