# generated using pymatgen
data_MnH22C27N2(O2F9)2
_symmetry_space_group_name_H-M   'P 1'
_cell_length_a   10.14020000
_cell_length_b   13.08370000
_cell_length_c   13.36850000
_cell_angle_alpha   60.73250000
_cell_angle_beta   86.71210000
_cell_angle_gamma   80.43790000
_symmetry_Int_Tables_number   1
_chemical_formula_structural   MnH22C27N2(O2F9)2
_chemical_formula_sum   'Mn2 H44 C54 N4 O8 F36'
_cell_volume   1525.12508412
_cell_formula_units_Z   2
loop_
 _symmetry_equiv_pos_site_id
 _symmetry_equiv_pos_as_xyz
  1  'x, y, z'
loop_
 _atom_site_type_symbol
 _atom_site_label
 _atom_site_symmetry_multiplicity
 _atom_site_fract_x
 _atom_site_fract_y
 _atom_site_fract_z
 _atom_site_occupancy
  Mn  Mn1  1  0.516700  0.237380  0.755690  1.0
  Mn  Mn2  1  0.483300  0.762620  0.244310  1.0
  H  H3  1  0.834400  0.131800  0.409800  1
  H  H4  1  0.165600  0.868200  0.590200  1
  H  H5  1  0.777300  0.056900  0.342700  1.0
  H  H6  1  0.222700  0.943100  0.657300  1.0
  H  H7  1  0.785000  0.192000  0.305500  1.0
  H  H8  1  0.215000  0.808000  0.694500  1.0
  H  H9  1  0.702700  0.115400  0.415500  1.0
  H  H10  1  0.297300  0.884600  0.584500  1.0
  H  H11  1  0.951900  0.173100  0.506400  1.0
  H  H12  1  0.048100  0.826900  0.493600  1.0
  H  H13  1  0.860600  0.973100  0.369300  1.0
  H  H14  1  0.139400  0.026900  0.630700  1.0
  H  H15  1  0.386100  0.112100  0.648600  1.0
  H  H16  1  0.613900  0.887900  0.351400  1.0
  H  H17  1  0.334200  0.122700  0.477800  1.0
  H  H18  1  0.665800  0.877300  0.522200  1.0
  H  H19  1  0.484400  0.427800  0.310300  1.0
  H  H20  1  0.515600  0.572200  0.689700  1.0
  H  H21  1  0.538700  0.406700  0.485100  1.0
  H  H22  1  0.461300  0.593300  0.514900  1.0
  H  H23  1  0.413500  0.215300  0.258700  1.0
  H  H24  1  0.586500  0.784700  0.741300  1.0
  H  H25  1  0.399600  0.356700  0.197700  1.0
  H  H26  1  0.600400  0.643300  0.802300  1.0
  H  H27  1  0.171000  0.374400  0.234400  1.0
  H  H28  1  0.829000  0.625600  0.765600  1.0
  H  H29  1  0.181200  0.233600  0.311400  1.0
  H  H30  1  0.818800  0.766400  0.688600  1.0
  H  H31  1  0.086000  0.300600  0.126500  1.0
  H  H32  1  0.914000  0.699400  0.873500  1.0
  H  H33  1  0.219200  0.352900  0.068100  1.0
  H  H34  1  0.780800  0.647100  0.931900  1.0
  H  H35  1  0.112600  0.073800  0.260600  1.0
  H  H36  1  0.887400  0.926200  0.739400  1.0
  H  H37  1  0.780500  0.108300  0.709900  1.0
  H  H38  1  0.219500  0.891700  0.290100  1.0
  H  H39  1  0.498300  0.962500  0.921200  1.0
  H  H40  1  0.501700  0.037500  0.078800  1.0
  H  H41  1  0.399300  0.223900  0.040700  1.0
  H  H42  1  0.600700  0.776100  0.959300  1.0
  H  H43  1  0.097700  0.327800  0.848700  1.0
  H  H44  1  0.902300  0.672200  0.151300  1.0
  H  H45  1  0.834000  0.402000  0.819900  1.0
  H  H46  1  0.166000  0.598000  0.180100  1.0
  C  C47  1  0.781900  0.112700  0.370800  1.0
  C  C48  1  0.218100  0.887300  0.629200  1.0
  C  C49  1  0.909100  0.071800  0.447400  1.0
  C  C50  1  0.090900  0.928200  0.552600  1.0
  C  C51  1  0.977000  0.098400  0.509300  1.0
  C  C52  1  0.023000  0.901600  0.490700  1.0
  C  C53  1  0.915000  0.979900  0.420700  1.0
  C  C54  1  0.085000  0.020100  0.579300  1.0
  C  C55  1  0.407100  0.177200  0.578800  1.0
  C  C56  1  0.592900  0.822800  0.421200  1.0
  C  C57  1  0.374900  0.183500  0.476900  1.0
  C  C58  1  0.625100  0.816500  0.523100  1.0
  C  C59  1  0.401700  0.278000  0.373500  1.0
  C  C60  1  0.598300  0.722000  0.626500  1.0
  C  C61  1  0.463400  0.361400  0.378900  1.0
  C  C62  1  0.536600  0.638600  0.621100  1.0
  C  C63  1  0.494800  0.348500  0.483900  1.0
  C  C64  1  0.505200  0.651500  0.516100  1.0
  C  C65  1  0.366800  0.286700  0.261300  1.0
  C  C66  1  0.633200  0.713300  0.738700  1.0
  C  C67  1  0.216600  0.297500  0.242900  1.0
  C  C68  1  0.783400  0.702500  0.757100  1.0
  C  C69  1  0.184300  0.289100  0.136900  1.0
  C  C70  1  0.815700  0.710900  0.863100  1.0
  C  C71  1  0.245000  0.170800  0.148680  1.0
  C  C72  1  0.755000  0.829200  0.851320  1.0
  C  C73  1  0.193100  0.068800  0.222200  1.0
  C  C74  1  0.806900  0.931200  0.777800  1.0
  C  C75  1  0.742100  0.039900  0.760200  1.0
  C  C76  1  0.257900  0.960100  0.239800  1.0
  C  C77  1  0.578600  0.955300  0.883270  1.0
  C  C78  1  0.421400  0.044700  0.116730  1.0
  C  C79  1  0.361200  0.156400  0.094000  1.0
  C  C80  1  0.638800  0.843600  0.906000  1.0
  C  C81  1  0.230000  0.195600  0.845960  1.0
  C  C82  1  0.770000  0.804400  0.154040  1.0
  C  C83  1  0.185500  0.309400  0.827000  1.0
  C  C84  1  0.814500  0.690600  0.173000  1.0
  C  C85  1  0.264800  0.397600  0.777440  1.0
  C  C86  1  0.735200  0.602400  0.222560  1.0
  C  C87  1  0.131800  0.106400  0.894100  1.0
  C  C88  1  0.868200  0.893600  0.105900  1.0
  C  C89  1  0.208500  0.518600  0.766000  1.0
  C  C90  1  0.791500  0.481400  0.234000  1.0
  C  C91  1  0.689900  0.299800  0.898560  1.0
  C  C92  1  0.310100  0.700200  0.101440  1.0
  C  C93  1  0.769700  0.363500  0.807940  1.0
  C  C94  1  0.230300  0.636500  0.192060  1.0
  C  C95  1  0.758300  0.372640  0.701050  1.0
  C  C96  1  0.241700  0.627360  0.298950  1.0
  C  C97  1  0.708600  0.301100  0.010600  1.0
  C  C98  1  0.291400  0.698900  0.989400  1.0
  C  C99  1  0.855600  0.438200  0.609200  1.0
  C  C100  1  0.144400  0.561800  0.390800  1.0
  N  N101  1  0.466600  0.258360  0.584350  1.0
  N  N102  1  0.533400  0.741640  0.415650  1.0
  N  N103  1  0.627000  0.054260  0.810510  1.0
  N  N104  1  0.373000  0.945740  0.189490  1.0
  O  O105  1  0.342670  0.153630  0.827720  1.0
  O  O106  1  0.657330  0.846370  0.172280  1.0
  O  O107  1  0.379830  0.392160  0.740270  1.0
  O  O108  1  0.620170  0.607840  0.259730  1.0
  O  O109  1  0.601440  0.243470  0.900230  1.0
  O  O110  1  0.398560  0.756530  0.099770  1.0
  O  O111  1  0.678510  0.330770  0.668560  1.0
  O  O112  1  0.321490  0.669230  0.331440  1.0
  F  F113  1  0.112100  0.075600  0.806400  1
  F  F114  1  0.887900  0.924400  0.193600  1
  F  F115  1  0.184200  0.006000  0.980800  1
  F  F116  1  0.815800  0.994000  0.019200  1
  F  F117  1  0.015700  0.143000  0.911600  1
  F  F118  1  0.984300  0.857000  0.088400  1
  F  F119  1  0.628100  0.394200  0.003700  1
  F  F120  1  0.371900  0.605800  0.996300  1
  F  F121  1  0.833200  0.299700  0.032100  1
  F  F122  1  0.166800  0.700300  0.967900  1
  F  F123  1  0.673100  0.211000  0.099500  1
  F  F124  1  0.326900  0.789000  0.900500  1
  F  F125  1  0.088430  0.523760  0.809500  1.0
  F  F126  1  0.911570  0.476240  0.190500  1.0
  F  F127  1  0.287400  0.549060  0.818410  1.0
  F  F128  1  0.712600  0.450940  0.181590  1.0
  F  F129  1  0.200500  0.601990  0.657770  1.0
  F  F130  1  0.799500  0.398010  0.342230  1.0
  F  F131  1  0.919800  0.504100  0.633380  1.0
  F  F132  1  0.080200  0.495900  0.366620  1.0
  F  F133  1  0.948430  0.362140  0.597120  1.0
  F  F134  1  0.051570  0.637860  0.402880  1.0
  F  F135  1  0.795450  0.507600  0.508140  1.0
  F  F136  1  0.204550  0.492400  0.491860  1.0
  F  F137  1  0.060600  0.109100  0.824500  1.0
  F  F138  1  0.939400  0.890900  0.175500  1.0
  F  F139  1  0.188200  0.000700  0.959300  1.0
  F  F140  1  0.811800  0.999300  0.040700  1.0
  F  F141  1  0.044700  0.131400  0.966600  1.0
  F  F142  1  0.955300  0.868600  0.033400  1.0
  F  F143  1  0.718100  0.196000  0.098600  1.0
  F  F144  1  0.281900  0.804000  0.901400  1.0
  F  F145  1  0.606700  0.361100  0.032100  1.0
  F  F146  1  0.393300  0.638900  0.967900  1.0
  F  F147  1  0.806600  0.352600  0.011800  1.0
  F  F148  1  0.193400  0.647400  0.988200  1.0
