# generated using pymatgen
data_MnH16C39N2(OF3)4
_symmetry_space_group_name_H-M   'P 1'
_cell_length_a   10.19850000
_cell_length_b   13.39710000
_cell_length_c   23.86600000
_cell_angle_alpha   90.00000000
_cell_angle_beta   90.00000000
_cell_angle_gamma   95.70200000
_symmetry_Int_Tables_number   1
_chemical_formula_structural   MnH16C39N2(OF3)4
_chemical_formula_sum   'Mn4 H64 C156 N8 O16 F48'
_cell_volume   3244.68512098
_cell_formula_units_Z   4
loop_
 _symmetry_equiv_pos_site_id
 _symmetry_equiv_pos_as_xyz
  1  'x, y, z'
loop_
 _atom_site_type_symbol
 _atom_site_label
 _atom_site_symmetry_multiplicity
 _atom_site_fract_x
 _atom_site_fract_y
 _atom_site_fract_z
 _atom_site_occupancy
  Mn  Mn1  1  1.000000  1.000000  0.748110  1.0
  Mn  Mn2  1  1.000000  0.500000  0.248110  1.0
  Mn  Mn3  1  0.000000  0.000000  0.251890  1.0
  Mn  Mn4  1  1.000000  0.500000  0.751890  1.0
  H  H5  1  0.883800  0.765300  0.000000  1.0
  H  H6  1  0.883800  0.265300  0.500000  1.0
  H  H7  1  0.116200  0.234700  0.000000  1.0
  H  H8  1  0.116200  0.734700  0.500000  1.0
  H  H9  1  0.754100  0.823100  0.000000  1.0
  H  H10  1  0.754100  0.323100  0.500000  1.0
  H  H11  1  0.245900  0.176900  0.000000  1.0
  H  H12  1  0.245900  0.676900  0.500000  1.0
  H  H13  1  0.624900  0.028500  0.652900  1.0
  H  H14  1  0.624900  0.528500  0.152900  1.0
  H  H15  1  0.624900  0.028500  0.347100  1.0
  H  H16  1  0.624900  0.528500  0.847100  1.0
  H  H17  1  0.375100  0.971500  0.347100  1.0
  H  H18  1  0.375100  0.471500  0.847100  1.0
  H  H19  1  0.375100  0.971500  0.652900  1.0
  H  H20  1  0.375100  0.471500  0.152900  1.0
  H  H21  1  0.748000  0.957800  0.822800  1.0
  H  H22  1  0.748000  0.457800  0.322800  1.0
  H  H23  1  0.748000  0.957800  0.177200  1.0
  H  H24  1  0.748000  0.457800  0.677200  1.0
  H  H25  1  0.252000  0.042200  0.177200  1.0
  H  H26  1  0.252000  0.542200  0.677200  1.0
  H  H27  1  0.252000  0.042200  0.822800  1.0
  H  H28  1  0.252000  0.542200  0.322800  1.0
  H  H29  1  0.652300  0.858000  0.892800  1.0
  H  H30  1  0.652300  0.358000  0.392800  1.0
  H  H31  1  0.652300  0.858000  0.107200  1.0
  H  H32  1  0.652300  0.358000  0.607200  1.0
  H  H33  1  0.347700  0.142000  0.107200  1.0
  H  H34  1  0.347700  0.642000  0.607200  1.0
  H  H35  1  0.347700  0.142000  0.892800  1.0
  H  H36  1  0.347700  0.642000  0.392800  1.0
  H  H37  1  0.953500  0.689300  0.881400  1.0
  H  H38  1  0.953500  0.189300  0.381400  1.0
  H  H39  1  0.953500  0.689300  0.118600  1.0
  H  H40  1  0.953500  0.189300  0.618600  1.0
  H  H41  1  0.046500  0.310700  0.118600  1.0
  H  H42  1  0.046500  0.810700  0.618600  1.0
  H  H43  1  0.046500  0.310700  0.881400  1.0
  H  H44  1  0.046500  0.810700  0.381400  1.0
  H  H45  1  0.042900  0.794000  0.811600  1.0
  H  H46  1  0.042900  0.294000  0.311600  1.0
  H  H47  1  0.042900  0.794000  0.188400  1.0
  H  H48  1  0.042900  0.294000  0.688400  1.0
  H  H49  1  0.957100  0.206000  0.188400  1.0
  H  H50  1  0.957100  0.706000  0.688400  1.0
  H  H51  1  0.957100  0.206000  0.811600  1.0
  H  H52  1  0.957100  0.706000  0.311600  1.0
  H  H53  1  0.771900  0.634400  0.945700  1.0
  H  H54  1  0.771900  0.134400  0.445700  1.0
  H  H55  1  0.771900  0.634400  0.054300  1.0
  H  H56  1  0.771900  0.134400  0.554300  1.0
  H  H57  1  0.228100  0.365600  0.054300  1.0
  H  H58  1  0.228100  0.865600  0.554300  1.0
  H  H59  1  0.228100  0.365600  0.945700  1.0
  H  H60  1  0.228100  0.865600  0.445700  1.0
  H  H61  1  0.643000  0.694100  0.945100  1.0
  H  H62  1  0.643000  0.194100  0.445100  1.0
  H  H63  1  0.643000  0.694100  0.054900  1.0
  H  H64  1  0.643000  0.194100  0.554900  1.0
  H  H65  1  0.357000  0.305900  0.054900  1.0
  H  H66  1  0.357000  0.805900  0.554900  1.0
  H  H67  1  0.357000  0.305900  0.945100  1.0
  H  H68  1  0.357000  0.805900  0.445100  1.0
  C  C69  1  0.028100  0.481800  0.449200  1
  C  C70  1  0.028100  0.981800  0.949200  1
  C  C71  1  0.028100  0.481800  0.550800  1
  C  C72  1  0.028100  0.981800  0.050800  1
  C  C73  1  0.971900  0.518200  0.550800  1
  C  C74  1  0.971900  0.018200  0.050800  1
  C  C75  1  0.971900  0.518200  0.449200  1
  C  C76  1  0.971900  0.018200  0.949200  1
  C  C77  1  0.969000  0.505000  0.499900  1
  C  C78  1  0.969000  0.005000  0.999900  1
  C  C79  1  0.969000  0.505000  0.500100  1
  C  C80  1  0.969000  0.005000  0.000100  1
  C  C81  1  0.031000  0.495000  0.500100  1
  C  C82  1  0.031000  0.995000  0.000100  1
  C  C83  1  0.031000  0.495000  0.499900  1
  C  C84  1  0.031000  0.995000  0.999900  1
  C  C85  1  0.027000  0.482000  0.550000  1
  C  C86  1  0.027000  0.982000  0.050000  1
  C  C87  1  0.027000  0.482000  0.450000  1
  C  C88  1  0.027000  0.982000  0.950000  1
  C  C89  1  0.973000  0.518000  0.450000  1
  C  C90  1  0.973000  0.018000  0.950000  1
  C  C91  1  0.973000  0.518000  0.550000  1
  C  C92  1  0.973000  0.018000  0.050000  1
  C  C93  1  0.144000  0.436000  0.550300  1
  C  C94  1  0.144000  0.936000  0.050300  1
  C  C95  1  0.144000  0.436000  0.449700  1
  C  C96  1  0.144000  0.936000  0.949700  1
  C  C97  1  0.856000  0.564000  0.449700  1
  C  C98  1  0.856000  0.064000  0.949700  1
  C  C99  1  0.856000  0.564000  0.550300  1
  C  C100  1  0.856000  0.064000  0.050300  1
  C  C101  1  0.500000  0.500000  0.448800  1.0
  C  C102  1  0.500000  0.000000  0.948800  1.0
  C  C103  1  0.500000  0.500000  0.551200  1.0
  C  C104  1  0.500000  0.000000  0.051200  1.0
  C  C105  1  0.553000  0.546900  0.500000  1.0
  C  C106  1  0.553000  0.046900  0.000000  1.0
  C  C107  1  0.447000  0.453100  0.500000  1.0
  C  C108  1  0.447000  0.953100  0.000000  1.0
  C  C109  1  0.655700  0.628300  0.500000  1.0
  C  C110  1  0.655700  0.128300  0.000000  1.0
  C  C111  1  0.344300  0.371700  0.500000  1.0
  C  C112  1  0.344300  0.871700  0.000000  1.0
  C  C113  1  0.797600  0.586800  0.500000  1.0
  C  C114  1  0.797600  0.086800  0.000000  1.0
  C  C115  1  0.202400  0.413200  0.500000  1.0
  C  C116  1  0.202400  0.913200  0.000000  1.0
  C  C117  1  0.786200  0.755700  0.000000  1.0
  C  C118  1  0.786200  0.255700  0.500000  1.0
  C  C119  1  0.213800  0.244300  0.000000  1.0
  C  C120  1  0.213800  0.744300  0.500000  1.0
  C  C121  1  0.604000  0.581800  0.448100  1.0
  C  C122  1  0.604000  0.081800  0.948100  1.0
  C  C123  1  0.604000  0.581800  0.551900  1.0
  C  C124  1  0.604000  0.081800  0.051900  1.0
  C  C125  1  0.396000  0.418200  0.551900  1.0
  C  C126  1  0.396000  0.918200  0.051900  1.0
  C  C127  1  0.396000  0.418200  0.448100  1.0
  C  C128  1  0.396000  0.918200  0.948100  1.0
  C  C129  1  0.855400  0.563900  0.550600  1.0
  C  C130  1  0.855400  0.063900  0.050600  1.0
  C  C131  1  0.855400  0.563900  0.449400  1.0
  C  C132  1  0.855400  0.063900  0.949400  1.0
  C  C133  1  0.144600  0.436100  0.449400  1.0
  C  C134  1  0.144600  0.936100  0.949400  1.0
  C  C135  1  0.144600  0.436100  0.550600  1.0
  C  C136  1  0.144600  0.936100  0.050600  1.0
  C  C137  1  0.732200  0.080600  0.719800  1.0
  C  C138  1  0.732200  0.580600  0.219800  1.0
  C  C139  1  0.732200  0.080600  0.280200  1.0
  C  C140  1  0.732200  0.580600  0.780200  1.0
  C  C141  1  0.267800  0.919400  0.280200  1.0
  C  C142  1  0.267800  0.419400  0.780200  1.0
  C  C143  1  0.267800  0.919400  0.719800  1.0
  C  C144  1  0.267800  0.419400  0.219800  1.0
  C  C145  1  0.702000  0.019900  0.674000  1.0
  C  C146  1  0.702000  0.519900  0.174000  1.0
  C  C147  1  0.702000  0.019900  0.326000  1.0
  C  C148  1  0.702000  0.519900  0.826000  1.0
  C  C149  1  0.298000  0.980100  0.326000  1.0
  C  C150  1  0.298000  0.480100  0.826000  1.0
  C  C151  1  0.298000  0.980100  0.674000  1.0
  C  C152  1  0.298000  0.480100  0.174000  1.0
  C  C153  1  0.782000  0.946300  0.657700  1.0
  C  C154  1  0.782000  0.446300  0.157700  1.0
  C  C155  1  0.782000  0.946300  0.342300  1.0
  C  C156  1  0.782000  0.446300  0.842300  1.0
  C  C157  1  0.218000  0.053700  0.342300  1.0
  C  C158  1  0.218000  0.553700  0.842300  1.0
  C  C159  1  0.218000  0.053700  0.657700  1.0
  C  C160  1  0.218000  0.553700  0.157700  1.0
  C  C161  1  0.630300  0.149800  0.740200  1.0
  C  C162  1  0.630300  0.649800  0.240200  1.0
  C  C163  1  0.630300  0.149800  0.259800  1.0
  C  C164  1  0.630300  0.649800  0.759800  1.0
  C  C165  1  0.369700  0.850200  0.259800  1.0
  C  C166  1  0.369700  0.350200  0.759800  1.0
  C  C167  1  0.369700  0.850200  0.740200  1.0
  C  C168  1  0.369700  0.350200  0.240200  1.0
  C  C169  1  0.739500  0.884000  0.606500  1.0
  C  C170  1  0.739500  0.384000  0.106500  1.0
  C  C171  1  0.739500  0.884000  0.393500  1.0
  C  C172  1  0.739500  0.384000  0.893500  1.0
  C  C173  1  0.260500  0.116000  0.393500  1.0
  C  C174  1  0.260500  0.616000  0.893500  1.0
  C  C175  1  0.260500  0.116000  0.606500  1.0
  C  C176  1  0.260500  0.616000  0.106500  1.0
  C  C177  1  0.792300  0.902800  0.835200  1.0
  C  C178  1  0.792300  0.402800  0.335200  1.0
  C  C179  1  0.792300  0.902800  0.164800  1.0
  C  C180  1  0.792300  0.402800  0.664800  1.0
  C  C181  1  0.207700  0.097200  0.164800  1.0
  C  C182  1  0.207700  0.597200  0.664800  1.0
  C  C183  1  0.207700  0.097200  0.835200  1.0
  C  C184  1  0.207700  0.597200  0.335200  1.0
  C  C185  1  0.733900  0.843200  0.877200  1.0
  C  C186  1  0.733900  0.343200  0.377200  1.0
  C  C187  1  0.733900  0.843200  0.122800  1.0
  C  C188  1  0.733900  0.343200  0.622800  1.0
  C  C189  1  0.266100  0.156800  0.122800  1.0
  C  C190  1  0.266100  0.656800  0.622800  1.0
  C  C191  1  0.266100  0.156800  0.877200  1.0
  C  C192  1  0.266100  0.656800  0.377200  1.0
  C  C193  1  0.794500  0.762100  0.896600  1.0
  C  C194  1  0.794500  0.262100  0.396600  1.0
  C  C195  1  0.794500  0.762100  0.103400  1.0
  C  C196  1  0.794500  0.262100  0.603400  1.0
  C  C197  1  0.205500  0.237900  0.103400  1.0
  C  C198  1  0.205500  0.737900  0.603400  1.0
  C  C199  1  0.205500  0.237900  0.896600  1.0
  C  C200  1  0.205500  0.737900  0.396600  1.0
  C  C201  1  0.909200  0.745300  0.870600  1.0
  C  C202  1  0.909200  0.245300  0.370600  1.0
  C  C203  1  0.909200  0.745300  0.129400  1.0
  C  C204  1  0.909200  0.245300  0.629400  1.0
  C  C205  1  0.090800  0.254700  0.129400  1.0
  C  C206  1  0.090800  0.754700  0.629400  1.0
  C  C207  1  0.090800  0.254700  0.870600  1.0
  C  C208  1  0.090800  0.754700  0.370600  1.0
  C  C209  1  0.962600  0.808300  0.828600  1.0
  C  C210  1  0.962600  0.308300  0.328600  1.0
  C  C211  1  0.962600  0.808300  0.171400  1.0
  C  C212  1  0.962600  0.308300  0.671400  1.0
  C  C213  1  0.037400  0.191700  0.171400  1.0
  C  C214  1  0.037400  0.691700  0.671400  1.0
  C  C215  1  0.037400  0.191700  0.828600  1.0
  C  C216  1  0.037400  0.691700  0.328600  1.0
  C  C217  1  0.740500  0.702000  0.946500  1.0
  C  C218  1  0.740500  0.202000  0.446500  1.0
  C  C219  1  0.740500  0.702000  0.053500  1.0
  C  C220  1  0.740500  0.202000  0.553500  1.0
  C  C221  1  0.259500  0.298000  0.053500  1.0
  C  C222  1  0.259500  0.798000  0.553500  1.0
  C  C223  1  0.259500  0.298000  0.946500  1.0
  C  C224  1  0.259500  0.798000  0.446500  1.0
  N  N225  1  0.905300  0.888800  0.810980  1.0
  N  N226  1  0.905300  0.388800  0.310980  1.0
  N  N227  1  0.905300  0.888800  0.189020  1.0
  N  N228  1  0.905300  0.388800  0.689020  1.0
  N  N229  1  0.094700  0.111200  0.189020  1.0
  N  N230  1  0.094700  0.611200  0.689020  1.0
  N  N231  1  0.094700  0.111200  0.810980  1.0
  N  N232  1  0.094700  0.611200  0.310980  1.0
  O  O233  1  0.833100  0.084600  0.749850  1.0
  O  O234  1  0.833100  0.584600  0.249850  1.0
  O  O235  1  0.833100  0.084600  0.250150  1.0
  O  O236  1  0.833100  0.584600  0.750150  1.0
  O  O237  1  0.166900  0.915400  0.250150  1.0
  O  O238  1  0.166900  0.415400  0.750150  1.0
  O  O239  1  0.166900  0.915400  0.749850  1.0
  O  O240  1  0.166900  0.415400  0.249850  1.0
  O  O241  1  0.886400  0.925800  0.678790  1.0
  O  O242  1  0.886400  0.425800  0.178790  1.0
  O  O243  1  0.886400  0.925800  0.321210  1.0
  O  O244  1  0.886400  0.425800  0.821210  1.0
  O  O245  1  0.113600  0.074200  0.321210  1.0
  O  O246  1  0.113600  0.574200  0.821210  1.0
  O  O247  1  0.113600  0.074200  0.678790  1.0
  O  O248  1  0.113600  0.574200  0.178790  1.0
  F  F249  1  0.544500  0.166600  0.700500  1.0
  F  F250  1  0.544500  0.666600  0.200500  1.0
  F  F251  1  0.544500  0.166600  0.299500  1.0
  F  F252  1  0.544500  0.666600  0.799500  1.0
  F  F253  1  0.455500  0.833400  0.299500  1.0
  F  F254  1  0.455500  0.333400  0.799500  1.0
  F  F255  1  0.455500  0.833400  0.700500  1.0
  F  F256  1  0.455500  0.333400  0.200500  1.0
  F  F257  1  0.689500  0.237900  0.755280  1.0
  F  F258  1  0.689500  0.737900  0.255280  1.0
  F  F259  1  0.689500  0.237900  0.244720  1.0
  F  F260  1  0.689500  0.737900  0.744720  1.0
  F  F261  1  0.310500  0.762100  0.244720  1.0
  F  F262  1  0.310500  0.262100  0.744720  1.0
  F  F263  1  0.310500  0.762100  0.755280  1.0
  F  F264  1  0.310500  0.262100  0.255280  1.0
  F  F265  1  0.566600  0.110500  0.783800  1.0
  F  F266  1  0.566600  0.610500  0.283800  1.0
  F  F267  1  0.566600  0.110500  0.216200  1.0
  F  F268  1  0.566600  0.610500  0.716200  1.0
  F  F269  1  0.433400  0.889500  0.216200  1.0
  F  F270  1  0.433400  0.389500  0.716200  1.0
  F  F271  1  0.433400  0.889500  0.783800  1.0
  F  F272  1  0.433400  0.389500  0.283800  1.0
  F  F273  1  0.823100  0.900700  0.565730  1.0
  F  F274  1  0.823100  0.400700  0.065730  1.0
  F  F275  1  0.823100  0.900700  0.434270  1.0
  F  F276  1  0.823100  0.400700  0.934270  1.0
  F  F277  1  0.176900  0.099300  0.434270  1.0
  F  F278  1  0.176900  0.599300  0.934270  1.0
  F  F279  1  0.176900  0.099300  0.565730  1.0
  F  F280  1  0.176900  0.599300  0.065730  1.0
  F  F281  1  0.734500  0.790200  0.616200  1.0
  F  F282  1  0.734500  0.290200  0.116200  1.0
  F  F283  1  0.734500  0.790200  0.383800  1.0
  F  F284  1  0.734500  0.290200  0.883800  1.0
  F  F285  1  0.265500  0.209800  0.383800  1.0
  F  F286  1  0.265500  0.709800  0.883800  1.0
  F  F287  1  0.265500  0.209800  0.616200  1.0
  F  F288  1  0.265500  0.709800  0.116200  1.0
  F  F289  1  0.625400  0.898900  0.585900  1.0
  F  F290  1  0.625400  0.398900  0.085900  1.0
  F  F291  1  0.625400  0.898900  0.414100  1.0
  F  F292  1  0.625400  0.398900  0.914100  1.0
  F  F293  1  0.374600  0.101100  0.414100  1.0
  F  F294  1  0.374600  0.601100  0.914100  1.0
  F  F295  1  0.374600  0.101100  0.585900  1.0
  F  F296  1  0.374600  0.601100  0.085900  1.0
