# generated using pymatgen
data_MnH22C30N2O4F15
_symmetry_space_group_name_H-M   'P 1'
_cell_length_a   13.60220000
_cell_length_b   15.49290000
_cell_length_c   17.31020000
_cell_angle_alpha   69.19800000
_cell_angle_beta   72.19500000
_cell_angle_gamma   73.27000000
_symmetry_Int_Tables_number   1
_chemical_formula_structural   MnH22C30N2O4F15
_chemical_formula_sum   'Mn4 H88 C120 N8 O16 F60'
_cell_volume   3180.23812655
_cell_formula_units_Z   4
loop_
 _symmetry_equiv_pos_site_id
 _symmetry_equiv_pos_as_xyz
  1  'x, y, z'
loop_
 _atom_site_type_symbol
 _atom_site_label
 _atom_site_symmetry_multiplicity
 _atom_site_fract_x
 _atom_site_fract_y
 _atom_site_fract_z
 _atom_site_occupancy
  Mn  Mn1  1  0.760020  0.604280  0.125550  1.0
  Mn  Mn2  1  0.239980  0.395720  0.874450  1.0
  Mn  Mn3  1  0.758950  0.107580  0.619080  1.0
  Mn  Mn4  1  0.241050  0.892420  0.380920  1.0
  H  H5  1  0.250600  0.414000  0.298000  1
  H  H6  1  0.749400  0.586000  0.702000  1
  H  H7  1  0.189900  0.440400  0.178800  1
  H  H8  1  0.810100  0.559600  0.821200  1
  H  H9  1  0.308200  0.433900  0.051800  1
  H  H10  1  0.691800  0.566100  0.948200  1
  H  H11  1  0.489400  0.398300  0.043200  1
  H  H12  1  0.510600  0.601700  0.956800  1
  H  H13  1  0.550200  0.361500  0.165300  1
  H  H14  1  0.449800  0.638500  0.834700  1
  H  H15  1  0.409500  0.407200  0.352900  1
  H  H16  1  0.590500  0.592800  0.647100  1
  H  H17  1  0.534800  0.298800  0.400700  1
  H  H18  1  0.465200  0.701200  0.599300  1
  H  H19  1  0.707800  0.197600  0.369000  1
  H  H20  1  0.292200  0.802400  0.631000  1
  H  H21  1  0.810100  0.068500  0.323900  1
  H  H22  1  0.189900  0.931500  0.676100  1
  H  H23  1  0.744400  0.001800  0.254300  1
  H  H24  1  0.255600  0.998200  0.745700  1
  H  H25  1  0.573700  0.060500  0.234700  1
  H  H26  1  0.426300  0.939500  0.765300  1
  H  H27  1  0.471800  0.192000  0.276000  1
  H  H28  1  0.528200  0.808000  0.724000  1
  H  H29  1  0.877500  0.868000  0.960700  1.0
  H  H30  1  0.122500  0.132000  0.039300  1.0
  H  H31  1  0.805500  0.560800  0.380300  1.0
  H  H32  1  0.194500  0.439200  0.619700  1.0
  H  H33  1  0.611600  0.767100  0.014200  1.0
  H  H34  1  0.388400  0.232900  0.985800  1.0
  H  H35  1  0.443300  0.811500  0.990400  1.0
  H  H36  1  0.556700  0.188500  0.009600  1.0
  H  H37  1  0.372000  0.580500  0.176700  1.0
  H  H38  1  0.628000  0.419500  0.823300  1.0
  H  H39  1  0.540000  0.542600  0.197200  1.0
  H  H40  1  0.460000  0.457400  0.802800  1.0
  H  H41  1  0.227800  0.736200  0.116100  1.0
  H  H42  1  0.772200  0.263800  0.883900  1.0
  H  H43  1  0.265800  0.658000  0.067500  1.0
  H  H44  1  0.734200  0.342000  0.932500  1.0
  H  H45  1  0.311900  0.783200  0.937900  1.0
  H  H46  1  0.688100  0.216800  0.062100  1.0
  H  H47  1  0.248200  0.855500  0.991800  1.0
  H  H48  1  0.751800  0.144500  0.008200  1.0
  H  H49  1  0.093300  0.790400  0.022800  1.0
  H  H50  1  0.906700  0.209600  0.977200  1.0
  H  H51  1  0.130500  0.844600  0.924500  1.0
  H  H52  1  0.869500  0.155400  0.075500  1.0
  H  H53  1  0.063900  0.631400  0.054700  1.0
  H  H54  1  0.936100  0.368600  0.945300  1.0
  H  H55  1  0.904100  0.504700  0.981600  1.0
  H  H56  1  0.095900  0.495300  0.018400  1.0
  H  H57  1  0.722000  0.398400  0.201200  1.0
  H  H58  1  0.278000  0.601600  0.798800  1.0
  H  H59  1  0.254400  0.738700  0.831300  1.0
  H  H60  1  0.745600  0.261300  0.168700  1.0
  H  H61  1  0.886000  0.369000  0.476000  1.0
  H  H62  1  0.114000  0.631000  0.524000  1.0
  H  H63  1  0.787000  0.056500  0.880900  1.0
  H  H64  1  0.213000  0.943500  0.119100  1.0
  H  H65  1  0.717400  0.905300  0.684800  1.0
  H  H66  1  0.282600  0.094700  0.315200  1.0
  H  H67  1  0.745100  0.771300  0.646400  1.0
  H  H68  1  0.254900  0.228700  0.353600  1.0
  H  H69  1  0.946100  0.882600  0.430900  1.0
  H  H70  1  0.053900  0.117400  0.569100  1.0
  H  H71  1  0.909000  0.016300  0.472900  1.0
  H  H72  1  0.091000  0.983700  0.527100  1.0
  H  H73  1  0.877400  0.669100  0.549400  1.0
  H  H74  1  0.122600  0.330900  0.450600  1.0
  H  H75  1  0.918100  0.728300  0.453100  1.0
  H  H76  1  0.081900  0.271700  0.546900  1.0
  H  H77  1  0.763900  0.667700  0.472200  1.0
  H  H78  1  0.236100  0.332300  0.527800  1.0
  H  H79  1  0.697900  0.732400  0.532700  1.0
  H  H80  1  0.302100  0.267600  0.467300  1.0
  H  H81  1  0.746900  0.867400  0.408300  1.0
  H  H82  1  0.253100  0.132600  0.591700  1.0
  H  H83  1  0.778700  0.795200  0.353500  1.0
  H  H84  1  0.221300  0.204800  0.646500  1.0
  H  H85  1  0.639500  0.757900  0.316800  1.0
  H  H86  1  0.360500  0.242100  0.683200  1.0
  H  H87  1  0.535600  0.217800  0.682100  1.0
  H  H88  1  0.464400  0.782200  0.317900  1.0
  H  H89  1  0.615900  0.070700  0.520500  1.0
  H  H90  1  0.384100  0.929300  0.479500  1.0
  H  H91  1  0.557800  0.904300  0.484500  1.0
  H  H92  1  0.442200  0.095700  0.515500  1.0
  C  C93  1  0.299700  0.407800  0.246700  1
  C  C94  1  0.700300  0.592200  0.753300  1
  C  C95  1  0.263500  0.425400  0.175800  1
  C  C96  1  0.736500  0.574600  0.824200  1
  C  C97  1  0.333500  0.421300  0.101000  1
  C  C98  1  0.666500  0.578700  0.899000  1
  C  C99  1  0.440800  0.399100  0.095800  1
  C  C100  1  0.559200  0.600900  0.904200  1
  C  C101  1  0.476500  0.378200  0.168200  1
  C  C102  1  0.523500  0.621800  0.831800  1
  C  C103  1  0.406800  0.381100  0.245000  1
  C  C104  1  0.593200  0.618900  0.755000  1
  C  C105  1  0.443600  0.363400  0.321300  1
  C  C106  1  0.556400  0.636600  0.678700  1
  C  C107  1  0.518700  0.293800  0.352900  1
  C  C108  1  0.481300  0.706200  0.647100  1
  C  C109  1  0.580100  0.210900  0.324820  1
  C  C110  1  0.419900  0.789100  0.675180  1
  C  C111  1  0.680500  0.171200  0.340090  1
  C  C112  1  0.319500  0.828800  0.659910  1
  C  C113  1  0.741100  0.094000  0.313900  1
  C  C114  1  0.258900  0.906000  0.686100  1
  C  C115  1  0.702100  0.054000  0.273500  1
  C  C116  1  0.297900  0.946000  0.726500  1
  C  C117  1  0.601700  0.089700  0.260800  1
  C  C118  1  0.398300  0.910300  0.739200  1
  C  C119  1  0.541000  0.167600  0.285600  1
  C  C120  1  0.459000  0.832400  0.714400  1
  C  C121  1  0.857800  0.744300  0.959040  1.0
  C  C122  1  0.142200  0.255700  0.040960  1.0
  C  C123  1  0.847500  0.814500  0.994580  1.0
  C  C124  1  0.152500  0.185500  0.005420  1.0
  C  C125  1  0.794700  0.809200  0.078230  1.0
  C  C126  1  0.205300  0.190800  0.921770  1.0
  C  C127  1  0.905100  0.762200  0.863910  1.0
  C  C128  1  0.094900  0.237800  0.136090  1.0
  C  C129  1  0.788400  0.890400  0.111200  1.0
  C  C130  1  0.211600  0.109600  0.888800  1.0
  C  C131  1  0.886000  0.576500  0.257440  1.0
  C  C132  1  0.114000  0.423500  0.742560  1.0
  C  C133  1  0.801200  0.559400  0.327000  1.0
  C  C134  1  0.198800  0.440600  0.673000  1.0
  C  C135  1  0.710800  0.540400  0.320740  1.0
  C  C136  1  0.289200  0.459600  0.679260  1.0
  C  C137  1  0.981400  0.593300  0.275300  1.0
  C  C138  1  0.018600  0.406700  0.724700  1.0
  C  C139  1  0.625200  0.516300  0.401180  1.0
  C  C140  1  0.374800  0.483700  0.598820  1.0
  C  C141  1  0.562500  0.727800  0.047800  1.0
  C  C142  1  0.437500  0.272200  0.952200  1.0
  C  C143  1  0.461600  0.754900  0.033000  1.0
  C  C144  1  0.538400  0.245100  0.967000  1.0
  C  C145  1  0.388100  0.699500  0.080380  1.0
  C  C146  1  0.611900  0.300500  0.919620  1.0
  C  C147  1  0.420200  0.620400  0.141700  1.0
  C  C148  1  0.579800  0.379600  0.858300  1.0
  C  C149  1  0.521100  0.597800  0.153480  1.0
  C  C150  1  0.478900  0.402200  0.846520  1.0
  C  C151  1  0.278600  0.718000  0.066920  1.0
  C  C152  1  0.721400  0.282000  0.933080  1.0
  C  C153  1  0.253600  0.792400  0.987000  1.0
  C  C154  1  0.746400  0.207600  0.013000  1.0
  C  C155  1  0.150100  0.788500  0.971200  1.0
  C  C156  1  0.849900  0.211500  0.028800  1.0
  C  C157  1  0.159100  0.700800  0.948540  1.0
  C  C158  1  0.840900  0.299200  0.051460  1.0
  C  C159  1  0.110400  0.626300  0.002210  1.0
  C  C160  1  0.889600  0.373700  0.997790  1.0
  C  C161  1  0.870800  0.454700  0.020220  1.0
  C  C162  1  0.129200  0.545300  0.979780  1.0
  C  C163  1  0.764600  0.393200  0.147500  1.0
  C  C164  1  0.235400  0.606800  0.852500  1.0
  C  C165  1  0.221200  0.689200  0.871460  1.0
  C  C166  1  0.778800  0.310800  0.128540  1.0
  C  C167  1  0.864800  0.251800  0.461880  1.0
  C  C168  1  0.135200  0.748200  0.538120  1.0
  C  C169  1  0.851300  0.317300  0.503790  1.0
  C  C170  1  0.148700  0.682700  0.496210  1.0
  C  C171  1  0.788200  0.309600  0.585370  1.0
  C  C172  1  0.211800  0.690400  0.414630  1.0
  C  C173  1  0.921600  0.273500  0.368140  1.0
  C  C174  1  0.078400  0.726500  0.631860  1.0
  C  C175  1  0.775200  0.386800  0.625500  1.0
  C  C176  1  0.224800  0.613200  0.374500  1.0
  C  C177  1  0.874400  0.073800  0.759900  1.0
  C  C178  1  0.125600  0.926200  0.240100  1.0
  C  C179  1  0.786500  0.056700  0.826050  1.0
  C  C180  1  0.213500  0.943300  0.173950  1.0
  C  C181  1  0.698100  0.039800  0.814030  1.0
  C  C182  1  0.301900  0.960200  0.185970  1.0
  C  C183  1  0.968200  0.086600  0.783100  1.0
  C  C184  1  0.031800  0.913400  0.216900  1.0
  C  C185  1  0.607300  0.015700  0.890100  1.0
  C  C186  1  0.392700  0.984300  0.109900  1.0
  C  C187  1  0.763000  0.901500  0.631670  1.0
  C  C188  1  0.237000  0.098500  0.368330  1.0
  C  C189  1  0.779800  0.821100  0.609270  1.0
  C  C190  1  0.220200  0.178900  0.390730  1.0
  C  C191  1  0.847100  0.811700  0.532720  1.0
  C  C192  1  0.152900  0.188300  0.467280  1.0
  C  C193  1  0.897000  0.886300  0.482790  1.0
  C  C194  1  0.103000  0.113700  0.517210  1.0
  C  C195  1  0.874900  0.965700  0.508770  1.0
  C  C196  1  0.125100  0.034300  0.491230  1.0
  C  C197  1  0.859500  0.727500  0.504070  1.0
  C  C198  1  0.140500  0.272500  0.495930  1.0
  C  C199  1  0.757200  0.728000  0.483080  1.0
  C  C200  1  0.242800  0.272000  0.516920  1.0
  C  C201  1  0.732200  0.809600  0.405780  1.0
  C  C202  1  0.267800  0.190400  0.594220  1.0
  C  C203  1  0.619500  0.827100  0.401770  1.0
  C  C204  1  0.380500  0.172900  0.598230  1.0
  C  C205  1  0.588200  0.792700  0.351900  1.0
  C  C206  1  0.411800  0.207300  0.648100  1.0
  C  C207  1  0.516700  0.191900  0.647800  1.0
  C  C208  1  0.483300  0.808100  0.352200  1.0
  C  C209  1  0.563500  0.107000  0.553700  1.0
  C  C210  1  0.436500  0.893000  0.446300  1.0
  C  C211  1  0.540600  0.878500  0.449300  1.0
  C  C212  1  0.459400  0.121500  0.550700  1.0
  N  N213  1  0.594160  0.649660  0.106380  1.0
  N  N214  1  0.405840  0.350340  0.893620  1.0
  N  N215  1  0.807770  0.466690  0.094020  1.0
  N  N216  1  0.192230  0.533310  0.905980  1.0
  N  N217  1  0.808150  0.975510  0.581730  1.0
  N  N218  1  0.191850  0.024490  0.418270  1.0
  N  N219  1  0.593700  0.141970  0.601470  1.0
  N  N220  1  0.406300  0.858030  0.398530  1.0
  O  O221  1  0.828680  0.666960  0.994500  1.0
  O  O222  1  0.171320  0.333040  0.005500  1.0
  O  O223  1  0.748790  0.746130  0.132020  1.0
  O  O224  1  0.251210  0.253870  0.867980  1.0
  O  O225  1  0.895110  0.579050  0.182950  1.0
  O  O226  1  0.104890  0.420950  0.817050  1.0
  O  O227  1  0.688640  0.540600  0.255720  1.0
  O  O228  1  0.311360  0.459400  0.744280  1.0
  O  O229  1  0.832280  0.176300  0.490550  1.0
  O  O230  1  0.167720  0.823700  0.509450  1.0
  O  O231  1  0.739010  0.246240  0.632180  1.0
  O  O232  1  0.260990  0.753760  0.367820  1.0
  O  O233  1  0.887420  0.078890  0.684160  1.0
  O  O234  1  0.112580  0.921110  0.315840  1.0
  O  O235  1  0.682040  0.040810  0.746590  1.0
  O  O236  1  0.317960  0.959190  0.253410  1.0
  F  F237  1  0.986100  0.676500  0.240500  1
  F  F238  1  0.013900  0.323500  0.759500  1
  F  F239  1  0.978700  0.571600  0.351500  1
  F  F240  1  0.021300  0.428400  0.648500  1
  F  F241  1  0.062200  0.547400  0.245600  1
  F  F242  1  0.937800  0.452600  0.754400  1
  F  F243  1  0.970900  0.043400  0.859100  1
  F  F244  1  0.029100  0.956600  0.140900  1
  F  F245  1  0.964900  0.170100  0.765700  1
  F  F246  1  0.035100  0.829900  0.234300  1
  F  F247  1  0.050400  0.051100  0.744200  1
  F  F248  1  0.949600  0.948900  0.255800  1
  F  F249  1  0.967990  0.823850  0.832640  1.0
  F  F250  1  0.032010  0.176150  0.167360  1.0
  F  F251  1  0.830530  0.794550  0.821450  1.0
  F  F252  1  0.169470  0.205450  0.178550  1.0
  F  F253  1  0.962720  0.684290  0.845500  1.0
  F  F254  1  0.037280  0.315710  0.154500  1.0
  F  F255  1  0.839400  0.956270  0.056190  1.0
  F  F256  1  0.160600  0.043730  0.943810  1.0
  F  F257  1  0.828510  0.858830  0.179150  1.0
  F  F258  1  0.171490  0.141170  0.820850  1.0
  F  F259  1  0.690340  0.933000  0.135040  1.0
  F  F260  1  0.309660  0.067000  0.864960  1.0
  F  F261  1  0.955500  0.647600  0.324800  1.0
  F  F262  1  0.044500  0.352400  0.675200  1.0
  F  F263  1  0.036900  0.514100  0.315200  1.0
  F  F264  1  0.963100  0.485900  0.684800  1.0
  F  F265  1  0.045800  0.632700  0.207240  1.0
  F  F266  1  0.954200  0.367300  0.792760  1.0
  F  F267  1  0.639620  0.531710  0.467180  1.0
  F  F268  1  0.360380  0.468290  0.532820  1.0
  F  F269  1  0.622320  0.425620  0.425130  1.0
  F  F270  1  0.377680  0.574380  0.574870  1.0
  F  F271  1  0.531280  0.564100  0.390060  1.0
  F  F272  1  0.468720  0.435900  0.609940  1.0
  F  F273  1  0.975960  0.196280  0.347370  1.0
  F  F274  1  0.024040  0.803720  0.652630  1.0
  F  F275  1  0.851970  0.315550  0.320060  1.0
  F  F276  1  0.148030  0.684450  0.679940  1.0
  F  F277  1  0.988340  0.331060  0.346060  1.0
  F  F278  1  0.011660  0.668940  0.653940  1.0
  F  F279  1  0.822600  0.457380  0.575020  1.0
  F  F280  1  0.177400  0.542620  0.424980  1.0
  F  F281  1  0.813140  0.351830  0.694790  1.0
  F  F282  1  0.186860  0.648170  0.305210  1.0
  F  F283  1  0.673900  0.424210  0.649280  1.0
  F  F284  1  0.326100  0.575790  0.350720  1.0
  F  F285  1  0.028800  0.005900  0.810600  1.0
  F  F286  1  0.971200  0.994100  0.189400  1.0
  F  F287  1  0.943200  0.126700  0.842200  1.0
  F  F288  1  0.056800  0.873300  0.157800  1.0
  F  F289  1  0.029200  0.134900  0.719520  1.0
  F  F290  1  0.970800  0.865100  0.280480  1.0
  F  F291  1  0.625370  0.009900  0.963260  1.0
  F  F292  1  0.374630  0.990100  0.036740  1.0
  F  F293  1  0.586200  0.934310  0.899150  1.0
  F  F294  1  0.413800  0.065690  0.100850  1.0
  F  F295  1  0.521050  0.079870  0.881150  1.0
  F  F296  1  0.478950  0.920130  0.118850  1.0
