# generated using pymatgen
data_Mn2H52C70N8(O5F9)3
_symmetry_space_group_name_H-M   'P 1'
_cell_length_a   14.09840000
_cell_length_b   14.62540000
_cell_length_c   16.47620000
_cell_angle_alpha   80.72620000
_cell_angle_beta   78.73410000
_cell_angle_gamma   89.56330000
_symmetry_Int_Tables_number   1
_chemical_formula_structural   Mn2H52C70N8(O5F9)3
_chemical_formula_sum   'Mn4 H104 C140 N16 O30 F54'
_cell_volume   3287.29523973
_cell_formula_units_Z   2
loop_
 _symmetry_equiv_pos_site_id
 _symmetry_equiv_pos_as_xyz
  1  'x, y, z'
loop_
 _atom_site_type_symbol
 _atom_site_label
 _atom_site_symmetry_multiplicity
 _atom_site_fract_x
 _atom_site_fract_y
 _atom_site_fract_z
 _atom_site_occupancy
  Mn  Mn1  1  0.672240  0.101330  0.636390  1
  Mn  Mn2  1  0.327760  0.898670  0.363610  1
  Mn  Mn3  1  0.846880  0.384270  0.847670  1
  Mn  Mn4  1  0.153120  0.615730  0.152330  1
  H  H5  1  0.894600  0.248900  0.425800  1
  H  H6  1  0.105400  0.751100  0.574200  1
  H  H7  1  0.747600  0.860300  0.815400  1
  H  H8  1  0.252400  0.139700  0.184600  1
  H  H9  1  0.591100  0.237400  0.497300  1
  H  H10  1  0.408900  0.762600  0.502700  1
  H  H11  1  0.453900  0.270500  0.442800  1
  H  H12  1  0.546100  0.729500  0.557200  1
  H  H13  1  0.337100  0.026800  0.571500  1
  H  H14  1  0.662900  0.973200  0.428500  1
  H  H15  1  0.477200  0.000300  0.622700  1
  H  H16  1  0.522800  0.999700  0.377300  1
  H  H17  1  0.252800  0.119900  0.465100  1
  H  H18  1  0.747200  0.880100  0.534900  1
  H  H19  1  0.294700  0.221800  0.423100  1
  H  H20  1  0.705300  0.778200  0.576900  1
  H  H21  1  0.245200  0.273300  0.555500  1
  H  H22  1  0.754800  0.726700  0.444500  1
  H  H23  1  0.201900  0.171900  0.596300  1
  H  H24  1  0.798100  0.828100  0.403700  1
  H  H25  1  0.126800  0.294500  0.470200  1
  H  H26  1  0.873200  0.705500  0.529800  1
  H  H27  1  0.085700  0.190800  0.505200  1
  H  H28  1  0.914300  0.809200  0.494800  1
  H  H29  1  0.962600  0.163500  0.632400  1
  H  H30  1  0.037400  0.836500  0.367600  1
  H  H31  1  0.867400  0.217400  0.744700  1
  H  H32  1  0.132600  0.782600  0.255300  1
  H  H33  1  0.013900  0.454200  0.691300  1
  H  H34  1  0.986100  0.545800  0.308700  1
  H  H35  1  0.111000  0.407400  0.576900  1
  H  H36  1  0.889000  0.592600  0.423100  1
  H  H37  1  0.651100  0.273800  0.735200  1
  H  H38  1  0.348900  0.726200  0.264800  1
  H  H39  1  0.560400  0.325800  0.850200  1
  H  H40  1  0.439600  0.674200  0.149800  1
  H  H41  1  0.404100  0.086300  0.902000  1
  H  H42  1  0.595900  0.913700  0.098000  1
  H  H43  1  0.498400  0.040600  0.785400  1
  H  H44  1  0.501600  0.959400  0.214600  1
  H  H45  1  0.437700  0.296700  0.979700  1
  H  H46  1  0.562300  0.703300  0.020300  1
  H  H47  1  0.394600  0.193100  0.011700  1
  H  H48  1  0.605400  0.806900  0.988300  1
  H  H49  1  0.285400  0.224400  0.914400  1
  H  H50  1  0.714600  0.775600  0.085600  1
  H  H51  1  0.322800  0.329900  0.895200  1
  H  H52  1  0.677200  0.670100  0.104800  1
  H  H53  1  0.222200  0.242600  0.057800  1
  H  H54  1  0.777800  0.757400  0.942200  1
  H  H55  1  0.253800  0.350300  0.033500  1
  H  H56  1  0.746200  0.649700  0.966500  1
  H  H57  1  0.102700  0.184300  0.975600  1
  H  H58  1  0.897300  0.815700  0.024400  1
  H  H59  1  0.968000  0.219200  0.917800  1
  H  H60  1  0.032000  0.780800  0.082200  1
  H  H61  1  0.009100  0.485100  0.914000  1
  H  H62  1  0.990900  0.514900  0.086000  1
  H  H63  1  0.143500  0.457200  0.974400  1
  H  H64  1  0.856500  0.542800  0.025600  1
  H  H65  1  0.769500  0.641700  0.692100  1
  H  H66  1  0.230500  0.358300  0.307900  1
  H  H67  1  0.613900  0.251300  0.056400  1
  H  H68  1  0.386100  0.748700  0.943600  1
  H  H69  1  0.466800  0.394200  0.612200  1
  H  H70  1  0.533200  0.605800  0.387800  1
  H  H71  1  0.412000  0.241900  0.666800  1
  H  H72  1  0.588000  0.758100  0.333200  1
  H  H73  1  0.258200  0.213700  0.751700  1
  H  H74  1  0.741800  0.786300  0.248300  1
  H  H75  1  0.159000  0.337800  0.782000  1
  H  H76  1  0.841000  0.662200  0.218000  1
  H  H77  1  0.213800  0.490100  0.727300  1
  H  H78  1  0.786200  0.509900  0.272700  1
  H  H79  1  0.339800  0.909800  0.726600  1
  H  H80  1  0.660200  0.090200  0.273400  1
  H  H81  1  0.331000  0.750500  0.724600  1
  H  H82  1  0.669000  0.249500  0.275400  1
  H  H83  1  0.198600  0.661400  0.806100  1
  H  H84  1  0.801400  0.338600  0.193900  1
  H  H85  1  0.075100  0.731700  0.889700  1
  H  H86  1  0.924900  0.268300  0.110300  1
  H  H87  1  0.084000  0.891000  0.891700  1
  H  H88  1  0.916000  0.109000  0.108300  1
  H  H89  1  0.430100  0.487600  0.620700  1
  H  H90  1  0.569900  0.512400  0.379300  1
  H  H91  1  0.476800  0.333400  0.623500  1
  H  H92  1  0.523200  0.666600  0.376500  1
  H  H93  1  0.370800  0.213100  0.698600  1
  H  H94  1  0.629200  0.786900  0.301400  1
  H  H95  1  0.218000  0.247000  0.770900  1
  H  H96  1  0.782000  0.753000  0.229100  1
  H  H97  1  0.171300  0.401200  0.768100  1
  H  H98  1  0.828700  0.598800  0.231900  1
  H  H99  1  0.304800  0.984000  0.758000  1
  H  H100  1  0.695200  0.016000  0.242000  1
  H  H101  1  0.365800  0.851000  0.706100  1
  H  H102  1  0.634200  0.149000  0.293900  1
  H  H103  1  0.279100  0.710100  0.749400  1
  H  H104  1  0.720900  0.289900  0.250600  1
  H  H105  1  0.131400  0.702200  0.844600  1
  H  H106  1  0.868600  0.297800  0.155400  1
  H  H107  1  0.070400  0.835100  0.896400  1
  H  H108  1  0.929600  0.164900  0.103600  1
  C  C109  1  0.794200  0.268600  0.527100  1
  C  C110  1  0.205800  0.731400  0.472900  1
  C  C111  1  0.846600  0.217600  0.470000  1
  C  C112  1  0.153400  0.782400  0.530000  1
  C  C113  1  0.832000  0.123100  0.475000  1
  C  C114  1  0.168000  0.876900  0.525000  1
  C  C115  1  0.814500  0.373300  0.513200  1
  C  C116  1  0.185500  0.626700  0.486800  1
  C  C117  1  0.897500  0.075600  0.409400  1
  C  C118  1  0.102500  0.924400  0.590600  1
  C  C119  1  0.794400  0.989500  0.757500  1
  C  C120  1  0.205600  0.010500  0.242500  1
  C  C121  1  0.733600  0.911000  0.776000  1
  C  C122  1  0.266400  0.089000  0.224000  1
  C  C123  1  0.654400  0.903400  0.739890  1
  C  C124  1  0.345600  0.096600  0.260110  1
  C  C125  1  0.880700  0.987800  0.801700  1
  C  C126  1  0.119300  0.012200  0.198300  1
  C  C127  1  0.588600  0.817100  0.771900  1
  C  C128  1  0.411400  0.182900  0.228100  1
  C  C129  1  0.538200  0.194300  0.513700  1
  C  C130  1  0.461800  0.805700  0.486300  1
  C  C131  1  0.456200  0.214700  0.480800  1
  C  C132  1  0.543800  0.785300  0.519200  1
  C  C133  1  0.377000  0.153400  0.503360  1
  C  C134  1  0.623000  0.846600  0.496640  1
  C  C135  1  0.387900  0.072300  0.556000  1
  C  C136  1  0.612100  0.927700  0.444000  1
  C  C137  1  0.472200  0.056800  0.586300  1
  C  C138  1  0.527800  0.943200  0.413700  1
  C  C139  1  0.282700  0.176600  0.475920  1
  C  C140  1  0.717300  0.823400  0.524080  1
  C  C141  1  0.213700  0.217800  0.544010  1
  C  C142  1  0.786300  0.782200  0.455990  1
  C  C143  1  0.116100  0.245100  0.520000  1
  C  C144  1  0.883900  0.754900  0.480000  1
  C  C145  1  0.049100  0.279100  0.591570  1
  C  C146  1  0.950900  0.720900  0.408430  1
  C  C147  1  0.974900  0.223700  0.643300  1
  C  C148  1  0.025100  0.776300  0.356700  1
  C  C149  1  0.918500  0.256300  0.710700  1
  C  C150  1  0.081500  0.743700  0.289300  1
  C  C151  1  0.003400  0.394000  0.679600  1
  C  C152  1  0.996600  0.606000  0.320400  1
  C  C153  1  0.061800  0.366400  0.611000  1
  C  C154  1  0.938200  0.633600  0.389000  1
  C  C155  1  0.599900  0.235100  0.769300  1
  C  C156  1  0.400100  0.764900  0.230700  1
  C  C157  1  0.546100  0.266600  0.838090  1
  C  C158  1  0.453900  0.733400  0.161910  1
  C  C159  1  0.471300  0.212100  0.889590  1
  C  C160  1  0.528700  0.787900  0.110410  1
  C  C161  1  0.454500  0.126400  0.868400  1
  C  C162  1  0.545500  0.873600  0.131600  1
  C  C163  1  0.511100  0.099600  0.798600  1
  C  C164  1  0.488900  0.900400  0.201400  1
  C  C165  1  0.406300  0.244200  0.963200  1
  C  C166  1  0.593700  0.755800  0.036800  1
  C  C167  1  0.310600  0.274200  0.939120  1
  C  C168  1  0.689400  0.725800  0.060880  1
  C  C169  1  0.232700  0.296200  0.011700  1
  C  C170  1  0.767300  0.703800  0.988300  1
  C  C171  1  0.140100  0.317300  0.980460  1
  C  C172  1  0.859900  0.682700  0.019540  1
  C  C173  1  0.085000  0.247100  0.963400  1
  C  C174  1  0.915000  0.752900  0.036600  1
  C  C175  1  0.004500  0.268600  0.928800  1
  C  C176  1  0.995500  0.731400  0.071200  1
  C  C177  1  0.028200  0.422900  0.926900  1
  C  C178  1  0.971800  0.577100  0.073100  1
  C  C179  1  0.109300  0.406900  0.962500  1
  C  C180  1  0.890700  0.593100  0.037500  1
  C  C181  1  0.863300  0.589700  0.764140  1
  C  C182  1  0.136700  0.410300  0.235860  1
  C  C183  1  0.783800  0.587400  0.727300  1
  C  C184  1  0.216200  0.412600  0.272700  1
  C  C185  1  0.723300  0.509200  0.739300  1
  C  C186  1  0.276700  0.490800  0.260700  1
  C  C187  1  0.923700  0.678900  0.746200  1
  C  C188  1  0.076300  0.321100  0.253800  1
  C  C189  1  0.635100  0.519000  0.697600  1
  C  C190  1  0.364900  0.481000  0.302400  1
  C  C191  1  0.690300  0.371500  0.010800  1
  C  C192  1  0.309700  0.628500  0.989200  1
  C  C193  1  0.666400  0.278800  0.014400  1
  C  C194  1  0.333600  0.721200  0.985600  1
  C  C195  1  0.716300  0.224800  0.958890  1
  C  C196  1  0.283700  0.775200  0.041110  1
  C  C197  1  0.629000  0.423300  0.075600  1
  C  C198  1  0.371000  0.576700  0.924400  1
  C  C199  1  0.689600  0.121200  0.974000  1
  C  C200  1  0.310400  0.878800  0.026000  1
  C  C201  1  0.345500  0.456500  0.664600  1
  C  C202  1  0.654500  0.543500  0.335400  1
  C  C203  1  0.404300  0.382800  0.646600  1
  C  C204  1  0.595700  0.617200  0.353400  1
  C  C205  1  0.371800  0.292300  0.679100  1
  C  C206  1  0.628200  0.707700  0.320900  1
  C  C207  1  0.280400  0.275600  0.729500  1
  C  C208  1  0.719600  0.724400  0.270500  1
  C  C209  1  0.221500  0.349300  0.747500  1
  C  C210  1  0.778500  0.650700  0.252500  1
  C  C211  1  0.254100  0.439700  0.715000  1
  C  C212  1  0.745900  0.560300  0.285000  1
  C  C213  1  0.212700  0.915300  0.809400  1
  C  C214  1  0.787300  0.084700  0.190600  1
  C  C215  1  0.286100  0.873600  0.759700  1
  C  C216  1  0.713900  0.126400  0.240300  1
  C  C217  1  0.280800  0.779000  0.758500  1
  C  C218  1  0.719200  0.221000  0.241500  1
  C  C219  1  0.202200  0.726100  0.806900  1
  C  C220  1  0.797800  0.273900  0.193100  1
  C  C221  1  0.128900  0.767800  0.856600  1
  C  C222  1  0.871100  0.232200  0.143400  1
  C  C223  1  0.134100  0.862400  0.857800  1
  C  C224  1  0.865900  0.137600  0.142200  1
  C  C225  1  0.296300  0.458900  0.694100  1
  C  C226  1  0.703700  0.541100  0.305900  1
  C  C227  1  0.387100  0.438700  0.651200  1
  C  C228  1  0.612900  0.561300  0.348800  1
  C  C229  1  0.414800  0.347000  0.652900  1
  C  C230  1  0.585200  0.653000  0.347100  1
  C  C231  1  0.352000  0.275700  0.697500  1
  C  C232  1  0.648000  0.724300  0.302500  1
  C  C233  1  0.261100  0.295800  0.740400  1
  C  C234  1  0.738900  0.704200  0.259600  1
  C  C235  1  0.233300  0.387400  0.738700  1
  C  C236  1  0.766700  0.612600  0.261300  1
  C  C237  1  0.181900  0.922100  0.832100  1
  C  C238  1  0.818100  0.077900  0.167900  1
  C  C239  1  0.269600  0.926800  0.775500  1
  C  C240  1  0.730400  0.073200  0.224500  1
  C  C241  1  0.305800  0.847800  0.744700  1
  C  C242  1  0.694200  0.152200  0.255300  1
  C  C243  1  0.254300  0.764100  0.770500  1
  C  C244  1  0.745700  0.235900  0.229500  1
  C  C245  1  0.166600  0.759400  0.827000  1
  C  C246  1  0.833400  0.240600  0.173000  1
  C  C247  1  0.130400  0.838400  0.857800  1
  C  C248  1  0.869600  0.161600  0.142200  1
  N  N249  1  0.547420  0.117080  0.567390  1
  N  N250  1  0.452580  0.882920  0.432610  1
  N  N251  1  0.932350  0.340020  0.730620  1
  N  N252  1  0.067650  0.659980  0.269380  1
  N  N253  1  0.583520  0.152590  0.747980  1
  N  N254  1  0.416480  0.847410  0.252020  1
  N  N255  1  0.975080  0.355340  0.909780  1
  N  N256  1  0.024920  0.644660  0.090220  1
  N  N257  1  0.398800  0.549000  0.619300  1
  N  N258  1  0.601200  0.451000  0.380700  1
  N  N259  1  0.207600  0.002400  0.817800  1
  N  N260  1  0.792400  0.997600  0.182200  1
  N  N261  1  0.296000  0.572100  0.680400  1
  N  N262  1  0.704000  0.427900  0.319600  1
  N  N263  1  0.147900  0.016700  0.856700  1
  N  N264  1  0.852100  0.983300  0.143300  1
  O  O265  1  0.729400  0.240350  0.589210  1
  O  O266  1  0.270600  0.759650  0.410790  1
  O  O267  1  0.772180  0.070040  0.526780  1
  O  O268  1  0.227820  0.929960  0.473220  1
  O  O269  1  0.788470  0.062040  0.708100  1
  O  O270  1  0.211530  0.937960  0.291900  1
  O  O271  1  0.624990  0.960020  0.684910  1
  O  O272  1  0.375010  0.039980  0.315090  1
  O  O273  1  0.895310  0.526020  0.811420  1
  O  O274  1  0.104690  0.473980  0.188580  1
  O  O275  1  0.730440  0.431970  0.781340  1
  O  O276  1  0.269560  0.568030  0.218660  1
  O  O277  1  0.755980  0.420160  0.961380  1
  O  O278  1  0.244020  0.579840  0.038620  1
  O  O279  1  0.783110  0.248940  0.896760  1
  O  O280  1  0.216890  0.751060  0.103240  1
  O  O281  1  0.465800  0.550900  0.558900  1
  O  O282  1  0.534200  0.449100  0.441100  1
  O  O283  1  0.368200  0.615100  0.640900  1
  O  O284  1  0.631800  0.384900  0.359100  1
  O  O285  1  0.134400  0.054200  0.861000  1
  O  O286  1  0.865600  0.945800  0.139000  1
  O  O287  1  0.283100  0.046900  0.776600  1
  O  O288  1  0.716900  0.953100  0.223400  1
  O  O289  1  0.204900  0.567200  0.720600  1
  O  O290  1  0.795100  0.432800  0.279400  1
  O  O291  1  0.073900  0.999400  0.911900  1
  O  O292  1  0.926100  0.000600  0.088100  1
  O  O293  1  0.206200  0.076700  0.833400  1
  O  O294  1  0.793800  0.923300  0.166600  1
  F  F295  1  0.740300  0.419490  0.490700  1
  F  F296  1  0.259700  0.580510  0.509300  1
  F  F297  1  0.893300  0.400660  0.456300  1
  F  F298  1  0.106700  0.599340  0.543700  1
  F  F299  1  0.826370  0.402320  0.582250  1
  F  F300  1  0.173630  0.597680  0.417750  1
  F  F301  1  0.919000  0.133500  0.334020  1
  F  F302  1  0.081000  0.866500  0.665980  1
  F  F303  1  0.981000  0.060800  0.427000  1
  F  F304  1  0.019000  0.939200  0.573000  1
  F  F305  1  0.856800  0.005900  0.390600  1
  F  F306  1  0.143200  0.994100  0.609400  1
  F  F307  1  0.962440  0.990300  0.748600  1
  F  F308  1  0.037560  0.009700  0.251400  1
  F  F309  1  0.880100  0.918400  0.860000  1
  F  F310  1  0.119900  0.081600  0.140000  1
  F  F311  1  0.886730  0.061930  0.835690  1
  F  F312  1  0.113270  0.938070  0.164310  1
  F  F313  1  0.628700  0.748150  0.815320  1
  F  F314  1  0.371300  0.251850  0.184680  1
  F  F315  1  0.511310  0.837260  0.824270  1
  F  F316  1  0.488690  0.162740  0.175730  1
  F  F317  1  0.559200  0.784050  0.712070  1
  F  F318  1  0.440800  0.215950  0.287930  1
  F  F319  1  0.924700  0.713110  0.814910  1
  F  F320  1  0.075300  0.286890  0.185090  1
  F  F321  1  0.894300  0.746010  0.693000  1
  F  F322  1  0.105700  0.253990  0.307000  1
  F  F323  1  0.014590  0.664760  0.713910  1
  F  F324  1  0.985410  0.335240  0.286090  1
  F  F325  1  0.643800  0.587100  0.634800  1
  F  F326  1  0.356200  0.412900  0.365200  1
  F  F327  1  0.557500  0.529800  0.751000  1
  F  F328  1  0.442500  0.470200  0.249000  1
  F  F329  1  0.618330  0.445980  0.666750  1
  F  F330  1  0.381670  0.554020  0.333250  1
  F  F331  1  0.682500  0.459500  0.119700  1
  F  F332  1  0.317500  0.540500  0.880300  1
  F  F333  1  0.592800  0.496900  0.038700  1
  F  F334  1  0.407200  0.503100  0.961300  1
  F  F335  1  0.561500  0.375000  0.127300  1
  F  F336  1  0.438500  0.625000  0.872700  1
  F  F337  1  0.606600  0.099310  0.028320  1
  F  F338  1  0.393400  0.900690  0.971680  1
  F  F339  1  0.758160  0.071570  0.003900  1
  F  F340  1  0.241840  0.928430  0.996100  1
  F  F341  1  0.680950  0.091300  0.904090  1
  F  F342  1  0.319050  0.908700  0.095910  1
  F  F343  1  0.918800  0.984900  0.448100  1
  F  F344  1  0.081200  0.015100  0.551900  1
  F  F345  1  0.978600  0.109100  0.380100  1
  F  F346  1  0.021400  0.890900  0.619900  1
  F  F347  1  0.857600  0.055200  0.357800  1
  F  F348  1  0.142400  0.944800  0.642200  1
