# generated using pymatgen
data_MnH22C30N2O5F17
_symmetry_space_group_name_H-M   'P 1'
_cell_length_a   10.09660000
_cell_length_b   13.10010000
_cell_length_c   13.37250000
_cell_angle_alpha   61.10820000
_cell_angle_beta   86.59600000
_cell_angle_gamma   80.18800000
_symmetry_Int_Tables_number   1
_chemical_formula_structural   MnH22C30N2O5F17
_chemical_formula_sum   'Mn2 H44 C60 N4 O10 F34'
_cell_volume   1525.39272773
_cell_formula_units_Z   2
loop_
 _symmetry_equiv_pos_site_id
 _symmetry_equiv_pos_as_xyz
  1  'x, y, z'
loop_
 _atom_site_type_symbol
 _atom_site_label
 _atom_site_symmetry_multiplicity
 _atom_site_fract_x
 _atom_site_fract_y
 _atom_site_fract_z
 _atom_site_occupancy
  Mn  Mn1  1  0.017820  0.236930  0.256040  1.0
  Mn  Mn2  1  0.982180  0.763070  0.743960  1.0
  H  H3  1  0.279900  0.114000  0.895000  1
  H  H4  1  0.720100  0.886000  0.105000  1
  H  H5  1  0.747600  0.980300  0.160000  1.0
  H  H6  1  0.252400  0.019700  0.840000  1.0
  H  H7  1  0.708400  0.799600  0.184800  1.0
  H  H8  1  0.291600  0.200400  0.815200  1.0
  H  H9  1  0.786000  0.850700  0.068000  1.0
  H  H10  1  0.214000  0.149300  0.932000  1.0
  H  H11  1  0.571200  0.827100  0.992300  1.0
  H  H12  1  0.428800  0.172900  0.007700  1.0
  H  H13  1  0.629600  0.061000  0.108500  1.0
  H  H14  1  0.370400  0.939000  0.891500  1.0
  H  H15  1  0.332900  0.404400  0.318000  1.0
  H  H16  1  0.667100  0.595600  0.682000  1.0
  H  H17  1  0.597200  0.328300  0.351800  1.0
  H  H18  1  0.402800  0.671700  0.648200  1.0
  H  H19  1  0.892600  0.109700  0.148300  1.0
  H  H20  1  0.107400  0.890300  0.851700  1.0
  H  H21  1  0.839900  0.120900  0.977500  1.0
  H  H22  1  0.160100  0.879100  0.022500  1.0
  H  H23  1  0.984600  0.427900  0.812100  1.0
  H  H24  1  0.015400  0.572100  0.187900  1.0
  H  H25  1  0.037000  0.407500  0.986200  1.0
  H  H26  1  0.963000  0.592500  0.013800  1.0
  H  H27  1  0.915900  0.216800  0.757600  1.0
  H  H28  1  0.084100  0.783200  0.242400  1.0
  H  H29  1  0.900000  0.357600  0.698700  1.0
  H  H30  1  0.100000  0.642400  0.301300  1.0
  H  H31  1  0.671800  0.373400  0.737000  1.0
  H  H32  1  0.328200  0.626600  0.263000  1.0
  H  H33  1  0.683700  0.233200  0.813000  1.0
  H  H34  1  0.316300  0.766800  0.187000  1.0
  H  H35  1  0.584900  0.300000  0.628800  1.0
  H  H36  1  0.415100  0.700000  0.371200  1.0
  H  H37  1  0.718200  0.351900  0.569300  1.0
  H  H38  1  0.281800  0.648100  0.430700  1.0
  H  H39  1  0.610500  0.075900  0.759600  1.0
  H  H40  1  0.389500  0.924100  0.240400  1.0
  H  H41  1  0.283700  0.106300  0.211100  1.0
  H  H42  1  0.716300  0.893700  0.788900  1.0
  H  H43  1  0.998600  0.963300  0.421700  1.0
  H  H44  1  0.001400  0.036700  0.578300  1.0
  H  H45  1  0.899800  0.222600  0.542600  1.0
  H  H46  1  0.100200  0.777400  0.457400  1.0
  C  C47  1  0.361000  0.069000  0.936000  1
  C  C48  1  0.639000  0.931000  0.064000  1
  C  C49  1  0.427000  0.106000  0.998000  1
  C  C50  1  0.573000  0.894000  0.002000  1
  C  C51  1  0.546000  0.040000  0.058000  1
  C  C52  1  0.454000  0.960000  0.942000  1
  C  C53  1  0.727000  0.874000  0.118000  1.0
  C  C54  1  0.273000  0.126000  0.882000  1.0
  C  C55  1  0.600000  0.935600  0.055600  1.0
  C  C56  1  0.400000  0.064400  0.944400  1.0
  C  C57  1  0.534000  0.898200  0.993700  1.0
  C  C58  1  0.466000  0.101800  0.006300  1.0
  C  C59  1  0.585000  0.035000  0.066200  1.0
  C  C60  1  0.415000  0.965000  0.933800  1.0
  C  C61  1  0.259700  0.371800  0.200900  1.0
  C  C62  1  0.740300  0.628200  0.799100  1.0
  C  C63  1  0.269800  0.364500  0.306800  1.0
  C  C64  1  0.730200  0.635500  0.693200  1.0
  C  C65  1  0.191400  0.301000  0.397600  1.0
  C  C66  1  0.808600  0.699000  0.602400  1.0
  C  C67  1  0.357500  0.435800  0.109200  1.0
  C  C68  1  0.642500  0.564200  0.890800  1.0
  C  C69  1  0.209900  0.304400  0.508200  1.0
  C  C70  1  0.790100  0.695600  0.491800  1.0
  C  C71  1  0.764700  0.397200  0.278700  1.0
  C  C72  1  0.235300  0.602800  0.721300  1.0
  C  C73  1  0.684900  0.309900  0.328900  1.0
  C  C74  1  0.315100  0.690100  0.671100  1.0
  C  C75  1  0.729800  0.196000  0.346700  1.0
  C  C76  1  0.270200  0.804000  0.653300  1.0
  C  C77  1  0.707800  0.518800  0.267600  1.0
  C  C78  1  0.292200  0.481200  0.732400  1.0
  C  C79  1  0.631600  0.108100  0.392400  1.0
  C  C80  1  0.368400  0.891900  0.607600  1.0
  C  C81  1  0.911600  0.175500  0.079000  1.0
  C  C82  1  0.088400  0.824500  0.921000  1.0
  C  C83  1  0.879400  0.181800  0.977300  1.0
  C  C84  1  0.120600  0.818200  0.022700  1.0
  C  C85  1  0.904700  0.277600  0.874400  1.0
  C  C86  1  0.095300  0.722400  0.125600  1.0
  C  C87  1  0.964400  0.361400  0.880200  1.0
  C  C88  1  0.035600  0.638600  0.119800  1.0
  C  C89  1  0.994900  0.348700  0.984700  1.0
  C  C90  1  0.005100  0.651300  0.015300  1.0
  C  C91  1  0.868300  0.287200  0.761800  1.0
  C  C92  1  0.131700  0.712800  0.238200  1.0
  C  C93  1  0.718100  0.297000  0.744600  1.0
  C  C94  1  0.281900  0.703000  0.255400  1.0
  C  C95  1  0.683700  0.288500  0.638200  1.0
  C  C96  1  0.316300  0.711500  0.361800  1.0
  C  C97  1  0.744600  0.170600  0.649700  1.0
  C  C98  1  0.255400  0.829400  0.350300  1.0
  C  C99  1  0.691700  0.069900  0.721800  1.0
  C  C100  1  0.308300  0.930100  0.278200  1.0
  C  C101  1  0.244300  0.038700  0.260600  1.0
  C  C102  1  0.755700  0.961300  0.739400  1.0
  C  C103  1  0.078800  0.955600  0.383300  1.0
  C  C104  1  0.921200  0.044400  0.616700  1.0
  C  C105  1  0.861200  0.155800  0.595100  1.0
  C  C106  1  0.138800  0.844200  0.404900  1.0
  N  N107  1  0.968800  0.258200  0.084800  1.0
  N  N108  1  0.031200  0.741800  0.915200  1.0
  N  N109  1  0.127900  0.054100  0.310500  1.0
  N  N110  1  0.872100  0.945900  0.689500  1.0
  O  O111  1  0.798000  0.924000  0.156000  1.0
  O  O112  1  0.202000  0.076000  0.844000  1.0
  O  O113  1  0.181100  0.328200  0.169600  1.0
  O  O114  1  0.818900  0.671800  0.830400  1.0
  O  O115  1  0.103200  0.243600  0.400200  1.0
  O  O116  1  0.896800  0.756400  0.599800  1.0
  O  O117  1  0.880400  0.391700  0.240900  1.0
  O  O118  1  0.119600  0.608300  0.759100  1.0
  O  O119  1  0.843000  0.154300  0.327800  1.0
  O  O120  1  0.157000  0.845700  0.672200  1.0
  F  F121  1  0.134000  0.278000  0.576000  1
  F  F122  1  0.866000  0.722000  0.424000  1
  F  F123  1  0.323000  0.216000  0.565000  1
  F  F124  1  0.677000  0.784000  0.435000  1
  F  F125  1  0.225000  0.412000  0.484000  1
  F  F126  1  0.775000  0.588000  0.516000  1
  F  F127  1  0.514000  0.153000  0.369000  1
  F  F128  1  0.486000  0.847000  0.631000  1
  F  F129  1  0.657000  0.025000  0.355000  1
  F  F130  1  0.343000  0.975000  0.645000  1
  F  F131  1  0.296500  0.504800  0.008600  1.0
  F  F132  1  0.703500  0.495200  0.991400  1.0
  F  F133  1  0.449900  0.360800  0.096400  1.0
  F  F134  1  0.550100  0.639200  0.903600  1.0
  F  F135  1  0.421400  0.502700  0.132700  1.0
  F  F136  1  0.578600  0.497300  0.867300  1.0
  F  F137  1  0.196700  0.202100  0.599300  1.0
  F  F138  1  0.803300  0.797900  0.400700  1.0
  F  F139  1  0.319300  0.336500  0.518200  1.0
  F  F140  1  0.680700  0.663500  0.481800  1.0
  F  F141  1  0.108100  0.375400  0.520100  1.0
  F  F142  1  0.891900  0.624600  0.479900  1.0
  F  F143  1  0.698800  0.600400  0.160300  1.0
  F  F144  1  0.301200  0.399600  0.839700  1.0
  F  F145  1  0.788000  0.548900  0.319000  1.0
  F  F146  1  0.212000  0.451100  0.681000  1.0
  F  F147  1  0.588400  0.522700  0.313200  1.0
  F  F148  1  0.411600  0.477300  0.686800  1.0
  F  F149  1  0.534800  0.135800  0.455700  1.0
  F  F150  1  0.465200  0.864200  0.544300  1.0
  F  F151  1  0.574400  0.101000  0.315800  1.0
  F  F152  1  0.425600  0.899000  0.684200  1.0
  F  F153  1  0.687100  0.004900  0.471800  1.0
  F  F154  1  0.312900  0.995100  0.528200  1.0
