# generated using pymatgen
data_Mn2H57C81N9O8F39
_symmetry_space_group_name_H-M   'P 1'
_cell_length_a   14.00070000
_cell_length_b   14.78340000
_cell_length_c   16.46560000
_cell_angle_alpha   80.87550000
_cell_angle_beta   78.14710000
_cell_angle_gamma   89.40960000
_symmetry_Int_Tables_number   1
_chemical_formula_structural   Mn2H57C81N9O8F39
_chemical_formula_sum   'Mn4 H114 C162 N18 O16 F78'
_cell_volume   3292.27115461
_cell_formula_units_Z   2
loop_
 _symmetry_equiv_pos_site_id
 _symmetry_equiv_pos_as_xyz
  1  'x, y, z'
loop_
 _atom_site_type_symbol
 _atom_site_label
 _atom_site_symmetry_multiplicity
 _atom_site_fract_x
 _atom_site_fract_y
 _atom_site_fract_z
 _atom_site_occupancy
  Mn  Mn1  1  0.656320  0.608600  0.152210  1
  Mn  Mn2  1  0.343680  0.391400  0.847790  1
  Mn  Mn3  1  0.824350  0.901390  0.360280  1
  Mn  Mn4  1  0.175650  0.098610  0.639720  1
  H  H5  1  0.888800  0.742300  0.940400  1
  H  H6  1  0.111200  0.257700  0.059600  1
  H  H7  1  0.734400  0.357600  0.310900  1
  H  H8  1  0.265600  0.642400  0.689100  1
  H  H9  1  0.625200  0.779900  0.247400  1
  H  H10  1  0.374800  0.220100  0.752600  1
  H  H11  1  0.528600  0.833800  0.360200  1
  H  H12  1  0.471400  0.166200  0.639800  1
  H  H13  1  0.395800  0.584900  0.429600  1
  H  H14  1  0.604200  0.415100  0.570400  1
  H  H15  1  0.494400  0.538000  0.314700  1
  H  H16  1  0.505600  0.462000  0.685300  1
  H  H17  1  0.412300  0.802400  0.495100  1
  H  H18  1  0.587700  0.197600  0.504900  1
  H  H19  1  0.367000  0.700900  0.528000  1
  H  H20  1  0.633000  0.299100  0.472000  1
  H  H21  1  0.252400  0.728000  0.440300  1
  H  H22  1  0.747600  0.272000  0.559700  1
  H  H23  1  0.300100  0.827300  0.401700  1
  H  H24  1  0.699900  0.172700  0.598300  1
  H  H25  1  0.201500  0.778300  0.574400  1
  H  H26  1  0.798500  0.221700  0.425600  1
  H  H27  1  0.245000  0.878600  0.532400  1
  H  H28  1  0.755000  0.121400  0.467600  1
  H  H29  1  0.161100  0.972600  0.427400  1
  H  H30  1  0.838900  0.027400  0.572600  1
  H  H31  1  0.020400  0.000800  0.376700  1
  H  H32  1  0.979600  0.999200  0.623300  1
  H  H33  1  0.906100  0.763800  0.496400  1
  H  H34  1  0.093900  0.236200  0.503600  1
  H  H35  1  0.043000  0.730800  0.550900  1
  H  H36  1  0.957000  0.269200  0.449100  1
  H  H37  1  0.542400  0.771700  0.071200  1
  H  H38  1  0.457600  0.228300  0.928800  1
  H  H39  1  0.407500  0.806300  0.013400  1
  H  H40  1  0.592500  0.193700  0.986600  1
  H  H41  1  0.350700  0.536100  0.035600  1
  H  H42  1  0.649300  0.463900  0.964400  1
  H  H43  1  0.486400  0.507800  0.093900  1
  H  H44  1  0.513600  0.492200  0.906100  1
  H  H45  1  0.245400  0.642100  0.969100  1
  H  H46  1  0.754600  0.357900  0.030900  1
  H  H47  1  0.280400  0.747400  0.940300  1
  H  H48  1  0.719600  0.252600  0.059700  1
  H  H49  1  0.177200  0.670700  0.106200  1
  H  H50  1  0.822800  0.329300  0.893800  1
  H  H51  1  0.217600  0.774200  0.082000  1
  H  H52  1  0.782400  0.225800  0.918000  1
  H  H53  1  0.108600  0.802900  0.985600  1
  H  H54  1  0.891400  0.197100  0.014400  1
  H  H55  1  0.063900  0.701200  0.019000  1
  H  H56  1  0.936100  0.298800  0.981000  1
  H  H57  1  0.941000  0.673800  0.150500  1
  H  H58  1  0.059000  0.326200  0.849500  1
  H  H59  1  0.848200  0.727600  0.265500  1
  H  H60  1  0.151800  0.272400  0.734500  1
  H  H61  1  0.996700  0.961300  0.206900  1
  H  H62  1  0.003300  0.038700  0.793100  1
  H  H63  1  0.093200  0.913600  0.091200  1
  H  H64  1  0.906800  0.086400  0.908800  1
  H  H65  1  0.750800  0.138700  0.180300  1
  H  H66  1  0.249200  0.861300  0.819700  1
  H  H67  1  0.591400  0.764700  0.569200  1
  H  H68  1  0.408600  0.235300  0.430800  1
  H  H69  1  0.025400  0.654500  0.376300  1
  H  H70  1  0.974600  0.345500  0.623700  1
  H  H71  1  0.099800  0.792700  0.302500  1
  H  H72  1  0.900200  0.207300  0.697500  1
  H  H73  1  0.261400  0.795000  0.227800  1
  H  H74  1  0.738600  0.205000  0.772200  1
  H  H75  1  0.348500  0.659100  0.226900  1
  H  H76  1  0.651500  0.340900  0.773100  1
  H  H77  1  0.274100  0.520900  0.300800  1
  H  H78  1  0.725900  0.479100  0.699200  1
  H  H79  1  0.376600  0.156900  0.120100  1
  H  H80  1  0.623400  0.843100  0.879900  1
  H  H81  1  0.406200  0.312300  0.120600  1
  H  H82  1  0.593800  0.687700  0.879400  1
  H  H83  1  0.302600  0.390500  0.215200  1
  H  H84  1  0.697400  0.609500  0.784800  1
  H  H85  1  0.169400  0.313400  0.309200  1
  H  H86  1  0.830600  0.686600  0.690800  1
  H  H87  1  0.139800  0.158000  0.308700  1
  H  H88  1  0.860200  0.842000  0.691300  1
  H  H89  1  0.041800  0.609100  0.363900  1
  H  H90  1  0.958200  0.390900  0.636100  1
  H  H91  1  0.099500  0.760500  0.318500  1
  H  H92  1  0.900500  0.239500  0.681500  1
  H  H93  1  0.260100  0.790300  0.243900  1
  H  H94  1  0.739900  0.209700  0.756100  1
  H  H95  1  0.363100  0.668700  0.214700  1
  H  H96  1  0.636900  0.331300  0.785300  1
  H  H97  1  0.305500  0.517300  0.260200  1
  H  H98  1  0.694500  0.482700  0.739800  1
  H  H99  1  0.026900  0.605200  0.383100  1
  H  H100  1  0.973100  0.394800  0.616900  1
  H  H101  1  0.066400  0.761100  0.338800  1
  H  H102  1  0.933600  0.238900  0.661200  1
  H  H103  1  0.220700  0.806800  0.257400  1
  H  H104  1  0.779300  0.193200  0.742600  1
  H  H105  1  0.335600  0.696500  0.220200  1
  H  H106  1  0.664400  0.303500  0.779800  1
  H  H107  1  0.296200  0.540700  0.264600  1
  H  H108  1  0.703800  0.459300  0.735400  1
  H  H109  1  0.420100  0.165100  0.120900  1
  H  H110  1  0.579900  0.834900  0.879100  1
  H  H111  1  0.364100  0.299100  0.172200  1
  H  H112  1  0.635900  0.700900  0.827800  1
  H  H113  1  0.213800  0.297500  0.266200  1
  H  H114  1  0.786200  0.702500  0.733800  1
  H  H115  1  0.119500  0.162000  0.308800  1
  H  H116  1  0.880500  0.838000  0.691200  1
  H  H117  1  0.175500  0.028100  0.257500  1
  H  H118  1  0.824500  0.971900  0.742500  1
  C  C119  1  0.784690  0.767810  0.038610  1
  C  C120  1  0.215310  0.232190  0.961390  1
  C  C121  1  0.836950  0.714300  0.983460  1
  C  C122  1  0.163050  0.285700  0.016540  1
  C  C123  1  0.816630  0.621600  0.988590  1
  C  C124  1  0.183370  0.378400  0.011410  1
  C  C125  1  0.806400  0.870790  0.021750  1
  C  C126  1  0.193600  0.129210  0.978250  1
  C  C127  1  0.880400  0.570600  0.924100  1
  C  C128  1  0.119600  0.429400  0.075900  1
  C  C129  1  0.779400  0.489020  0.264040  1
  C  C130  1  0.220600  0.510980  0.735960  1
  C  C131  1  0.719800  0.410860  0.275470  1
  C  C132  1  0.280200  0.589140  0.724530  1
  C  C133  1  0.641100  0.406970  0.238130  1
  C  C134  1  0.358900  0.593030  0.761870  1
  C  C135  1  0.866000  0.481000  0.308500  1
  C  C136  1  0.134000  0.519000  0.691500  1
  C  C137  1  0.581100  0.317750  0.256550  1
  C  C138  1  0.418900  0.682250  0.743450  1
  C  C139  1  0.577300  0.739790  0.284610  1
  C  C140  1  0.422700  0.260210  0.715390  1
  C  C141  1  0.519600  0.772520  0.351960  1
  C  C142  1  0.480400  0.227480  0.648040  1
  C  C143  1  0.448830  0.716150  0.407460  1
  C  C144  1  0.551170  0.283850  0.592540  1
  C  C145  1  0.441900  0.626980  0.392400  1
  C  C146  1  0.558100  0.373020  0.607600  1
  C  C147  1  0.501400  0.599250  0.323820  1
  C  C148  1  0.498600  0.400750  0.676180  1
  C  C149  1  0.380750  0.750400  0.478770  1
  C  C150  1  0.619250  0.249600  0.521230  1
  C  C151  1  0.285170  0.781250  0.453480  1
  C  C152  1  0.714830  0.218750  0.546520  1
  C  C153  1  0.214710  0.822750  0.521470  1
  C  C154  1  0.785290  0.177250  0.478530  1
  C  C155  1  0.119960  0.846740  0.493860  1
  C  C156  1  0.880040  0.153260  0.506140  1
  C  C157  1  0.109800  0.927810  0.442170  1
  C  C158  1  0.890200  0.072190  0.557830  1
  C  C159  1  0.025300  0.944140  0.411830  1
  C  C160  1  0.974700  0.055860  0.588170  1
  C  C161  1  0.959000  0.807100  0.481230  1
  C  C162  1  0.041000  0.192900  0.518770  1
  C  C163  1  0.041000  0.786800  0.514020  1
  C  C164  1  0.959000  0.213200  0.485980  1
  C  C165  1  0.502700  0.722800  0.064330  1
  C  C166  1  0.497300  0.277200  0.935670  1
  C  C167  1  0.422000  0.744000  0.029860  1
  C  C168  1  0.578000  0.256000  0.970140  1
  C  C169  1  0.361920  0.675070  0.019050  1
  C  C170  1  0.638080  0.324930  0.980950  1
  C  C171  1  0.388600  0.586000  0.042940  1
  C  C172  1  0.611400  0.414000  0.957060  1
  C  C173  1  0.470200  0.569600  0.077360  1
  C  C174  1  0.529800  0.430400  0.922640  1
  C  C175  1  0.268500  0.696500  0.988340  1
  C  C176  1  0.731500  0.303500  0.011660  1
  C  C177  1  0.190860  0.723600  0.060030  1
  C  C178  1  0.809140  0.276400  0.939970  1
  C  C179  1  0.095570  0.753460  0.034840  1
  C  C180  1  0.904430  0.246540  0.965160  1
  C  C181  1  0.028470  0.787530  0.107640  1
  C  C182  1  0.971530  0.212470  0.892360  1
  C  C183  1  0.954100  0.733280  0.161010  1
  C  C184  1  0.045900  0.266720  0.838990  1
  C  C185  1  0.898890  0.765970  0.229670  1
  C  C186  1  0.101110  0.234030  0.770330  1
  C  C187  1  0.985340  0.901800  0.195550  1
  C  C188  1  0.014660  0.098200  0.804450  1
  C  C189  1  0.043300  0.873880  0.126180  1
  C  C190  1  0.956700  0.126120  0.873820  1
  C  C191  1  0.842400  0.096870  0.257310  1
  C  C192  1  0.157600  0.903130  0.742690  1
  C  C193  1  0.764100  0.088730  0.219990  1
  C  C194  1  0.235900  0.911270  0.780010  1
  C  C195  1  0.703100  0.010490  0.237590  1
  C  C196  1  0.296900  0.989510  0.762410  1
  C  C197  1  0.906900  0.183100  0.227370  1
  C  C198  1  0.093100  0.816900  0.772630  1
  C  C199  1  0.618400  0.013000  0.190900  1
  C  C200  1  0.381600  0.987000  0.809100  1
  C  C201  1  0.660400  0.886700  0.520600  1
  C  C202  1  0.339600  0.113300  0.479400  1
  C  C203  1  0.642800  0.793400  0.526140  1
  C  C204  1  0.357200  0.206600  0.473860  1
  C  C205  1  0.696500  0.740240  0.471980  1
  C  C206  1  0.303500  0.259760  0.528020  1
  C  C207  1  0.597000  0.935900  0.586720  1
  C  C208  1  0.403000  0.064100  0.413280  1
  C  C209  1  0.675300  0.636800  0.489600  1
  C  C210  1  0.324700  0.363200  0.510400  1
  C  C211  1  0.099500  0.488500  0.391600  1
  C  C212  1  0.900500  0.511500  0.608400  1
  C  C213  1  0.142700  0.574700  0.345500  1
  C  C214  1  0.857300  0.425300  0.654500  1
  C  C215  1  0.091000  0.655400  0.346000  1
  C  C216  1  0.909000  0.344600  0.654000  1
  C  C217  1  0.135200  0.737500  0.302100  1
  C  C218  1  0.864800  0.262500  0.697900  1
  C  C219  1  0.231200  0.738900  0.257700  1
  C  C220  1  0.768800  0.261100  0.742300  1
  C  C221  1  0.282900  0.658200  0.257200  1
  C  C222  1  0.717100  0.341800  0.742800  1
  C  C223  1  0.238700  0.576100  0.301100  1
  C  C224  1  0.761300  0.423900  0.698900  1
  C  C225  1  0.235800  0.050800  0.214300  1
  C  C226  1  0.764200  0.949200  0.785700  1
  C  C227  1  0.255400  0.142900  0.214300  1
  C  C228  1  0.744600  0.857100  0.785700  1
  C  C229  1  0.334500  0.188700  0.158500  1
  C  C230  1  0.665500  0.811300  0.841500  1
  C  C231  1  0.352100  0.281000  0.158800  1
  C  C232  1  0.647900  0.719000  0.841200  1
  C  C233  1  0.290600  0.327400  0.215000  1
  C  C234  1  0.709400  0.672600  0.785000  1
  C  C235  1  0.211400  0.281600  0.270800  1
  C  C236  1  0.788600  0.718400  0.729200  1
  C  C237  1  0.193800  0.189300  0.270500  1
  C  C238  1  0.806200  0.810700  0.729500  1
  C  C239  1  0.133000  0.455700  0.347000  1
  C  C240  1  0.867000  0.544300  0.653000  1
  C  C241  1  0.168200  0.549000  0.316300  1
  C  C242  1  0.831800  0.451000  0.683700  1
  C  C243  1  0.107100  0.621200  0.333700  1
  C  C244  1  0.892900  0.378800  0.666300  1
  C  C245  1  0.141000  0.711100  0.307000  1
  C  C246  1  0.859000  0.288900  0.693000  1
  C  C247  1  0.237000  0.728800  0.262000  1
  C  C248  1  0.763000  0.271200  0.738000  1
  C  C249  1  0.297900  0.657000  0.245000  1
  C  C250  1  0.702100  0.343000  0.755000  1
  C  C251  1  0.263700  0.566700  0.272000  1
  C  C252  1  0.736300  0.433300  0.728000  1
  C  C253  1  0.128000  0.463200  0.350000  1
  C  C254  1  0.872000  0.536800  0.650000  1
  C  C255  1  0.158000  0.558300  0.328000  1
  C  C256  1  0.842000  0.441700  0.672000  1
  C  C257  1  0.090000  0.624000  0.350000  1
  C  C258  1  0.910000  0.376000  0.650000  1
  C  C259  1  0.113000  0.716000  0.323700  1
  C  C260  1  0.887000  0.284000  0.676300  1
  C  C261  1  0.205000  0.743500  0.275000  1
  C  C262  1  0.795000  0.256500  0.725000  1
  C  C263  1  0.273000  0.678000  0.253000  1
  C  C264  1  0.727000  0.322000  0.747000  1
  C  C265  1  0.250000  0.585400  0.280000  1
  C  C266  1  0.750000  0.414600  0.720000  1
  C  C267  1  0.327800  0.003200  0.161600  1
  C  C268  1  0.672200  0.996800  0.838400  1
  C  C269  1  0.303100  0.084000  0.184400  1
  C  C270  1  0.696900  0.916000  0.815600  1
  C  C271  1  0.359100  0.164500  0.159100  1
  C  C272  1  0.640900  0.835500  0.840900  1
  C  C273  1  0.325800  0.244100  0.189500  1
  C  C274  1  0.674200  0.755900  0.810500  1
  C  C275  1  0.236500  0.243100  0.245300  1
  C  C276  1  0.763500  0.756900  0.754700  1
  C  C277  1  0.180500  0.162600  0.270700  1
  C  C278  1  0.819500  0.837400  0.729300  1
  C  C279  1  0.213800  0.083100  0.240200  1
  C  C280  1  0.786200  0.916900  0.759800  1
  N  N281  1  0.568830  0.654210  0.269230  1
  N  N282  1  0.431170  0.345790  0.730770  1
  N  N283  1  0.949700  0.884050  0.429340  1
  N  N284  1  0.050300  0.115950  0.570660  1
  N  N285  1  0.528010  0.636710  0.088670  1
  N  N286  1  0.471990  0.363290  0.911330  1
  N  N287  1  0.913540  0.849300  0.248050  1
  N  N288  1  0.086460  0.150700  0.751950  1
  N  N289  1  0.065800  0.419800  0.426300  1
  N  N290  1  0.934200  0.580200  0.573700  1
  N  N291  1  0.221800  0.973800  0.212500  1
  N  N292  1  0.778200  0.026200  0.787500  1
  N  N293  1  0.115000  0.379400  0.360000  1
  N  N294  1  0.885000  0.620600  0.640000  1
  N  N295  1  0.098000  0.391800  0.378000  1
  N  N296  1  0.902000  0.608200  0.622000  1
  N  N297  1  0.356700  0.936800  0.138800  1
  N  N298  1  0.643300  0.063200  0.861200  1
  O  O299  1  0.718180  0.742670  0.101820  1
  O  O300  1  0.281820  0.257330  0.898180  1
  O  O301  1  0.751480  0.572860  0.039160  1
  O  O302  1  0.248520  0.427140  0.960840  1
  O  O303  1  0.772150  0.564900  0.220650  1
  O  O304  1  0.227850  0.435100  0.779350  1
  O  O305  1  0.608580  0.468400  0.189810  1
  O  O306  1  0.391420  0.531600  0.810190  1
  O  O307  1  0.871640  0.040690  0.312150  1
  O  O308  1  0.128360  0.959310  0.687850  1
  O  O309  1  0.708250  0.939010  0.287210  1
  O  O310  1  0.291750  0.060990  0.712790  1
  O  O311  1  0.723390  0.936850  0.469060  1
  O  O312  1  0.276610  0.063150  0.530940  1
  O  O313  1  0.763820  0.765400  0.409920  1
  O  O314  1  0.236180  0.234600  0.590080  1
  F  F315  1  0.889000  0.894810  0.965920  1
  F  F316  1  0.111000  0.105190  0.034080  1
  F  F317  1  0.814070  0.903050  0.090940  1
  F  F318  1  0.185930  0.096950  0.909060  1
  F  F319  1  0.734150  0.915060  0.992850  1
  F  F320  1  0.265850  0.084940  0.007150  1
  F  F321  1  0.954300  0.616400  0.877600  1
  F  F322  1  0.045700  0.383600  0.122400  1
  F  F323  1  0.912200  0.493100  0.961900  1
  F  F324  1  0.087800  0.506900  0.038100  1
  F  F325  1  0.826500  0.538600  0.875800  1
  F  F326  1  0.173500  0.461400  0.124200  1
  F  F327  1  0.888200  0.556400  0.329900  1
  F  F328  1  0.111800  0.443600  0.670100  1
  F  F329  1  0.936800  0.444600  0.268600  1
  F  F330  1  0.063200  0.555400  0.731400  1
  F  F331  1  0.840300  0.425900  0.387000  1
  F  F332  1  0.159700  0.574100  0.613000  1
  F  F333  1  0.613610  0.251310  0.308060  1
  F  F334  1  0.386390  0.748690  0.691940  1
  F  F335  1  0.578110  0.284840  0.187560  1
  F  F336  1  0.421890  0.715160  0.812440  1
  F  F337  1  0.490010  0.331100  0.292380  1
  F  F338  1  0.509990  0.668900  0.707620  1
  F  F339  1  0.985000  0.169800  0.171000  1
  F  F340  1  0.015000  0.830200  0.829000  1
  F  F341  1  0.860300  0.252800  0.191100  1
  F  F342  1  0.139700  0.747200  0.808900  1
  F  F343  1  0.926600  0.216500  0.278300  1
  F  F344  1  0.073400  0.783500  0.721700  1
  F  F345  1  0.653000  0.059200  0.107300  1
  F  F346  1  0.347000  0.940800  0.892700  1
  F  F347  1  0.551000  0.060900  0.219700  1
  F  F348  1  0.449000  0.939100  0.780300  1
  F  F349  1  0.597900  0.936500  0.173900  1
  F  F350  1  0.402100  0.063500  0.826100  1
  F  F351  1  0.575100  0.023700  0.550500  1
  F  F352  1  0.424900  0.976300  0.449500  1
  F  F353  1  0.511800  0.902200  0.619000  1
  F  F354  1  0.488200  0.097800  0.381000  1
  F  F355  1  0.644300  0.956900  0.639900  1
  F  F356  1  0.355700  0.043100  0.360100  1
  F  F357  1  0.676060  0.601980  0.420630  1
  F  F358  1  0.323940  0.398020  0.579370  1
  F  F359  1  0.585710  0.614780  0.537630  1
  F  F360  1  0.414290  0.385220  0.462370  1
  F  F361  1  0.738700  0.594060  0.526700  1
  F  F362  1  0.261300  0.405940  0.473300  1
  F  F363  1  0.958600  0.548000  0.948400  1
  F  F364  1  0.041400  0.452000  0.051600  1
  F  F365  1  0.847900  0.510800  0.911400  1
  F  F366  1  0.152100  0.489200  0.088600  1
  F  F367  1  0.907700  0.632600  0.850600  1
  F  F368  1  0.092300  0.367400  0.149400  1
  F  F369  1  0.871700  0.543900  0.349800  1
  F  F370  1  0.128300  0.456100  0.650200  1
  F  F371  1  0.952700  0.505900  0.242200  1
  F  F372  1  0.047300  0.494100  0.757800  1
  F  F373  1  0.885900  0.404200  0.339000  1
  F  F374  1  0.114100  0.595800  0.661000  1
  F  F375  1  0.991500  0.159600  0.184400  1
  F  F376  1  0.008500  0.840400  0.815600  1
  F  F377  1  0.874000  0.248300  0.176600  1
  F  F378  1  0.126000  0.751700  0.823400  1
  F  F379  1  0.935500  0.216800  0.297100  1
  F  F380  1  0.064500  0.783200  0.702900  1
  F  F381  1  0.598600  0.086600  0.152000  1
  F  F382  1  0.401400  0.913400  0.848000  1
  F  F383  1  0.529000  0.987500  0.253900  1
  F  F384  1  0.471000  0.012500  0.746100  1
  F  F385  1  0.615900  0.943500  0.154000  1
  F  F386  1  0.384100  0.056500  0.846000  1
  F  F387  1  0.516500  0.943800  0.576100  1
  F  F388  1  0.483500  0.056200  0.423900  1
  F  F389  1  0.581600  0.873100  0.664600  1
  F  F390  1  0.418400  0.126900  0.335400  1
  F  F391  1  0.637300  0.997800  0.606300  1
  F  F392  1  0.362700  0.002200  0.393700  1
