# generated using pymatgen
data_Re4H147C137Br8N25O44
_symmetry_space_group_name_H-M   'P 1'
_cell_length_a   16.11220000
_cell_length_b   23.44300000
_cell_length_c   23.65400000
_cell_angle_alpha   113.54600000
_cell_angle_beta   90.25800000
_cell_angle_gamma   99.92800000
_symmetry_Int_Tables_number   1
_chemical_formula_structural   Re4H147C137Br8N25O44
_chemical_formula_sum   'Re8 H294 C274 Br16 N50 O88'
_cell_volume   8041.32040650
_cell_formula_units_Z   2
loop_
 _symmetry_equiv_pos_site_id
 _symmetry_equiv_pos_as_xyz
  1  'x, y, z'
loop_
 _atom_site_type_symbol
 _atom_site_label
 _atom_site_symmetry_multiplicity
 _atom_site_fract_x
 _atom_site_fract_y
 _atom_site_fract_z
 _atom_site_occupancy
  Re  Re1  1  0.241990  0.424570  0.723760  1
  Re  Re2  1  0.758010  0.575430  0.276240  1
  Re  Re3  1  0.561320  0.396390  0.877720  1
  Re  Re4  1  0.438680  0.603610  0.122280  1
  Re  Re5  1  0.568690  0.881290  0.855440  1
  Re  Re6  1  0.431310  0.118710  0.144560  1
  Re  Re7  1  0.263870  0.924300  0.734090  1
  Re  Re8  1  0.736130  0.075700  0.265910  1
  H  H9  1  0.098700  0.554500  0.941600  1
  H  H10  1  0.901300  0.445500  0.058400  1
  H  H11  1  0.153400  0.623500  0.038900  1
  H  H12  1  0.846600  0.376500  0.961100  1
  H  H13  1  0.911300  0.611400  0.088300  1
  H  H14  1  0.088700  0.388600  0.911700  1
  H  H15  1  0.248800  0.827600  0.914500  1
  H  H16  1  0.751200  0.172400  0.085500  1
  H  H17  1  0.875900  0.913900  0.983100  1
  H  H18  1  0.124100  0.086100  0.016900  1
  H  H19  1  0.136700  0.491600  0.839100  1
  H  H20  1  0.863300  0.508400  0.160900  1
  H  H21  1  0.055000  0.366200  0.672600  1
  H  H22  1  0.945000  0.633800  0.327400  1
  H  H23  1  0.918200  0.366200  0.696300  1
  H  H24  1  0.081800  0.633800  0.303700  1
  H  H25  1  0.734000  0.643900  0.016800  1
  H  H26  1  0.266000  0.356100  0.983200  1
  H  H27  1  0.792300  0.355300  0.724400  1
  H  H28  1  0.207700  0.644700  0.275600  1
  H  H29  1  0.663800  0.344600  0.759100  1
  H  H30  1  0.336200  0.655400  0.240900  1
  H  H31  1  0.749800  0.470700  0.928100  1
  H  H32  1  0.250200  0.529300  0.071900  1
  H  H33  1  0.268200  0.692000  0.117100  1
  H  H34  1  0.731800  0.308000  0.882900  1
  H  H35  1  0.246700  0.748800  0.177500  1
  H  H36  1  0.753300  0.251200  0.822500  1
  H  H37  1  0.241200  0.870100  0.012700  1
  H  H38  1  0.758800  0.129900  0.987300  1
  H  H39  1  0.238100  0.697900  0.015300  1
  H  H40  1  0.761900  0.302100  0.984700  1
  H  H41  1  0.251800  0.852300  0.822900  1
  H  H42  1  0.748200  0.147700  0.177100  1
  H  H43  1  0.299800  0.790900  0.645700  1
  H  H44  1  0.700200  0.209100  0.354300  1
  H  H45  1  0.288000  0.688000  0.640000  1
  H  H46  1  0.712000  0.312000  0.360000  1
  H  H47  1  0.282100  0.595000  0.637500  1
  H  H48  1  0.717900  0.405000  0.362500  1
  H  H49  1  0.268500  0.496400  0.641600  1
  H  H50  1  0.731500  0.503600  0.358400  1
  H  H51  1  0.244000  0.565800  0.817300  1
  H  H52  1  0.756000  0.434200  0.182700  1
  H  H53  1  0.272800  0.967900  0.114200  1
  H  H54  1  0.727200  0.032100  0.885800  1
  H  H55  1  0.250500  0.956900  0.175700  1
  H  H56  1  0.749500  0.043100  0.824300  1
  H  H57  1  0.915200  0.939000  0.081900  1
  H  H58  1  0.084800  0.061000  0.918100  1
  H  H59  1  0.158500  0.947000  0.035700  1
  H  H60  1  0.841500  0.053000  0.964300  1
  H  H61  1  0.751600  0.897100  0.911500  1
  H  H62  1  0.248400  0.102900  0.088500  1
  H  H63  1  0.676400  0.852100  0.736300  1
  H  H64  1  0.323600  0.147900  0.263700  1
  H  H65  1  0.811000  0.851100  0.708400  1
  H  H66  1  0.189000  0.148900  0.291600  1
  H  H67  1  0.942000  0.863300  0.687100  1
  H  H68  1  0.058000  0.136700  0.312900  1
  H  H69  1  0.078400  0.880100  0.667800  1
  H  H70  1  0.921600  0.119900  0.332200  1
  H  H71  1  0.152400  0.923400  0.842400  1
  H  H72  1  0.847600  0.076600  0.157600  1
  H  H73  1  0.956800  0.946100  0.231600  1
  H  H74  1  0.043200  0.053900  0.768400  1
  H  H75  1  0.885900  0.954100  0.188900  1
  H  H76  1  0.114100  0.045900  0.811100  1
  H  H77  1  0.820300  0.684600  0.098700  1
  H  H78  1  0.179700  0.315400  0.901300  1
  H  H79  1  0.824600  0.857500  0.094100  1
  H  H80  1  0.175400  0.142500  0.905900  1
  H  H81  1  0.643400  0.541700  0.948400  1
  H  H82  1  0.356600  0.458300  0.051600  1
  H  H83  1  0.468700  0.459900  0.809200  1
  H  H84  1  0.531300  0.540100  0.190800  1
  H  H85  1  0.465500  0.554100  0.801800  1
  H  H86  1  0.534500  0.445900  0.198200  1
  H  H87  1  0.458700  0.645300  0.805300  1
  H  H88  1  0.541300  0.354700  0.194700  1
  H  H89  1  0.472100  0.741700  0.796800  1
  H  H90  1  0.527900  0.258300  0.203200  1
  H  H91  1  0.655800  0.819600  0.929100  1
  H  H92  1  0.344200  0.180400  0.070900  1
  H  H93  1  0.883300  0.682400  0.195400  1
  H  H94  1  0.116700  0.317600  0.804600  1
  H  H95  1  0.955800  0.741300  0.236500  1
  H  H96  1  0.044200  0.258700  0.763500  1
  H  H97  1  0.181600  0.752200  0.264500  1
  H  H98  1  0.818400  0.247800  0.735500  1
  H  H99  1  0.084800  0.743900  0.280300  1
  H  H100  1  0.915200  0.256100  0.719700  1
  H  H101  1  0.188500  0.860300  0.302400  1
  H  H102  1  0.811500  0.139700  0.697600  1
  H  H103  1  0.093600  0.850700  0.320400  1
  H  H104  1  0.906400  0.149300  0.679600  1
  H  H105  1  0.225900  0.823800  0.372400  1
  H  H106  1  0.774100  0.176200  0.627600  1
  H  H107  1  0.131200  0.822400  0.393000  1
  H  H108  1  0.868800  0.177600  0.607000  1
  H  H109  1  0.241000  0.941200  0.399700  1
  H  H110  1  0.759000  0.058800  0.600300  1
  H  H111  1  0.148300  0.938800  0.423200  1
  H  H112  1  0.851700  0.061200  0.576800  1
  H  H113  1  0.285900  0.915000  0.482200  1
  H  H114  1  0.714100  0.085000  0.517800  1
  H  H115  1  0.194400  0.919400  0.507100  1
  H  H116  1  0.805600  0.080600  0.492900  1
  H  H117  1  0.307500  0.027000  0.504400  1
  H  H118  1  0.692500  0.973000  0.495600  1
  H  H119  1  0.219500  0.029400  0.535500  1
  H  H120  1  0.780500  0.970600  0.464500  1
  H  H121  1  0.285200  0.990100  0.607500  1
  H  H122  1  0.714800  0.009900  0.392500  1
  H  H123  1  0.374400  0.014700  0.585100  1
  H  H124  1  0.625600  0.985300  0.414900  1
  H  H125  1  0.333900  0.107200  0.661700  1
  H  H126  1  0.666100  0.892800  0.338300  1
  H  H127  1  0.241100  0.087400  0.627200  1
  H  H128  1  0.758900  0.912600  0.372800  1
  H  H129  1  0.320500  0.110400  0.596000  1
  H  H130  1  0.679500  0.889600  0.404000  1
  H  H131  1  0.385800  0.848900  0.187200  1
  H  H132  1  0.614200  0.151100  0.812800  1
  H  H133  1  0.374800  0.920000  0.203500  1
  H  H134  1  0.625200  0.080000  0.796500  1
  H  H135  1  0.342900  0.925900  0.302900  1
  H  H136  1  0.657100  0.074100  0.697100  1
  H  H137  1  0.439200  0.922600  0.286300  1
  H  H138  1  0.560800  0.077400  0.713700  1
  H  H139  1  0.311400  0.806100  0.271100  1
  H  H140  1  0.688600  0.193900  0.728900  1
  H  H141  1  0.407600  0.803200  0.255300  1
  H  H142  1  0.592400  0.196800  0.744700  1
  H  H143  1  0.358500  0.867500  0.378500  1
  H  H144  1  0.641500  0.132500  0.621500  1
  H  H145  1  0.454100  0.862700  0.362200  1
  H  H146  1  0.545900  0.137300  0.637800  1
  H  H147  1  0.325800  0.751800  0.343500  1
  H  H148  1  0.674200  0.248200  0.656500  1
  H  H149  1  0.349500  0.814000  0.450400  1
  H  H150  1  0.650500  0.186000  0.549600  1
  H  H151  1  0.447400  0.840800  0.444700  1
  H  H152  1  0.552600  0.159200  0.555300  1
  H  H153  1  0.486500  0.750400  0.443100  1
  H  H154  1  0.513500  0.249600  0.556900  1
  H  H155  1  0.391100  0.728100  0.457700  1
  H  H156  1  0.608900  0.271900  0.542300  1
  H  H157  1  0.426100  0.662100  0.351100  1
  H  H158  1  0.573900  0.337900  0.648900  1
  H  H159  1  0.341800  0.690100  0.352800  1
  H  H160  1  0.658200  0.309900  0.647200  1
  H  H161  1  0.178700  0.018000  0.249000  1
  H  H162  1  0.821300  0.982000  0.751000  1
  H  H163  1  0.089100  0.015900  0.275600  1
  H  H164  1  0.910900  0.984100  0.724400  1
  H  H165  1  0.219400  0.980000  0.308200  1
  H  H166  1  0.780600  0.020000  0.691800  1
  H  H167  1  0.130000  0.979500  0.335300  1
  H  H168  1  0.870000  0.020500  0.664700  1
  H  H169  1  0.153900  0.076600  0.388000  1
  H  H170  1  0.846100  0.923400  0.612000  1
  H  H171  1  0.229200  0.090000  0.349500  1
  H  H172  1  0.770800  0.910000  0.650500  1
  H  H173  1  0.325400  0.066000  0.407100  1
  H  H174  1  0.674600  0.934000  0.592900  1
  H  H175  1  0.249700  0.041200  0.441500  1
  H  H176  1  0.750300  0.958800  0.558500  1
  H  H177  1  0.298100  0.165800  0.444300  1
  H  H178  1  0.701900  0.834200  0.555700  1
  H  H179  1  0.202700  0.143100  0.454000  1
  H  H180  1  0.797300  0.856900  0.546000  1
  H  H181  1  0.308700  0.138800  0.538900  1
  H  H182  1  0.691300  0.861200  0.461100  1
  H  H183  1  0.225200  0.165800  0.546800  1
  H  H184  1  0.774800  0.834200  0.453200  1
  H  H185  1  0.296200  0.266300  0.590300  1
  H  H186  1  0.703800  0.733700  0.409700  1
  H  H187  1  0.384800  0.244300  0.574300  1
  H  H188  1  0.615200  0.755700  0.425700  1
  H  H189  1  0.350800  0.270500  0.681500  1
  H  H190  1  0.649200  0.729500  0.318500  1
  H  H191  1  0.380100  0.203800  0.648500  1
  H  H192  1  0.619900  0.796200  0.351500  1
  H  H193  1  0.282000  0.206100  0.656000  1
  H  H194  1  0.718000  0.793900  0.344000  1
  H  H195  1  0.882600  0.816300  0.306100  1
  H  H196  1  0.117400  0.183700  0.693900  1
  H  H197  1  0.840900  0.864700  0.288300  1
  H  H198  1  0.159100  0.135300  0.711700  1
  H  H199  1  0.885300  0.903000  0.391400  1
  H  H200  1  0.114700  0.097000  0.608600  1
  H  H201  1  0.979500  0.898100  0.373700  1
  H  H202  1  0.020500  0.101900  0.626300  1
  H  H203  1  0.888800  0.979000  0.358000  1
  H  H204  1  0.111200  0.021000  0.642000  1
  H  H205  1  0.983700  0.974500  0.341800  1
  H  H206  1  0.016300  0.025500  0.658200  1
  H  H207  1  0.026700  0.012500  0.442800  1
  H  H208  1  0.973300  0.987500  0.557200  1
  H  H209  1  0.931800  0.013700  0.460700  1
  H  H210  1  0.068200  0.986300  0.539300  1
  H  H211  1  0.029500  0.095100  0.416100  1
  H  H212  1  0.970500  0.904900  0.583900  1
  H  H213  1  0.930900  0.093600  0.424600  1
  H  H214  1  0.069100  0.906400  0.575400  1
  H  H215  1  0.959200  0.118800  0.529200  1
  H  H216  1  0.040800  0.881200  0.470800  1
  H  H217  1  0.057500  0.125300  0.519000  1
  H  H218  1  0.942500  0.874700  0.481000  1
  H  H219  1  0.053400  0.204000  0.493200  1
  H  H220  1  0.946600  0.796000  0.506800  1
  H  H221  1  0.954800  0.196500  0.498900  1
  H  H222  1  0.045200  0.803500  0.501100  1
  H  H223  1  0.005300  0.281200  0.571000  1
  H  H224  1  0.994700  0.718800  0.429000  1
  H  H225  1  0.081700  0.254500  0.589000  1
  H  H226  1  0.918300  0.745500  0.411000  1
  H  H227  1  0.987700  0.233300  0.604300  1
  H  H228  1  0.012300  0.766700  0.395700  1
  H  H229  1  0.165900  0.901600  0.921900  1
  H  H230  1  0.834100  0.098400  0.078100  1
  H  H231  1  0.245800  0.930700  0.912800  1
  H  H232  1  0.754200  0.069300  0.087200  1
  H  H233  1  0.755700  0.851000  0.010500  1
  H  H234  1  0.244300  0.149000  0.989500  1
  H  H235  1  0.735200  0.910900  0.009200  1
  H  H236  1  0.264800  0.089100  0.990800  1
  H  H237  1  0.825700  0.573500  0.021000  1
  H  H238  1  0.174300  0.426500  0.979000  1
  H  H239  1  0.731700  0.542500  0.023500  1
  H  H240  1  0.268300  0.457500  0.976500  1
  H  H241  1  0.219100  0.627300  0.932900  1
  H  H242  1  0.780900  0.372700  0.067100  1
  H  H243  1  0.242400  0.554600  0.908900  1
  H  H244  1  0.757600  0.445400  0.091100  1
  H  H245  1  0.998400  0.747700  0.066700  1
  H  H246  1  0.001600  0.252300  0.933300  1
  H  H247  1  0.012700  0.815500  0.063400  1
  H  H248  1  0.987300  0.184500  0.936600  1
  H  H249  1  0.087300  0.775900  0.049100  1
  H  H250  1  0.912700  0.224100  0.950900  1
  H  H251  1  0.053900  0.660000  0.678000  1
  H  H252  1  0.946100  0.340000  0.322000  1
  H  H253  1  0.980300  0.637500  0.714000  1
  H  H254  1  0.019700  0.362500  0.286000  1
  H  H255  1  0.076200  0.634900  0.728900  1
  H  H256  1  0.923800  0.365100  0.271100  1
  H  H257  1  0.300400  0.410600  0.248300  1
  H  H258  1  0.699600  0.589400  0.751700  1
  H  H259  1  0.316600  0.370600  0.177900  1
  H  H260  1  0.683400  0.629400  0.822100  1
  H  H261  1  0.240700  0.343500  0.209200  1
  H  H262  1  0.759300  0.656500  0.790800  1
  H  H263  1  0.901900  0.541600  0.675500  1
  H  H264  1  0.098100  0.458400  0.324500  1
  H  H265  1  0.869000  0.556800  0.742800  1
  H  H266  1  0.131000  0.443200  0.257200  1
  H  H267  1  0.884300  0.487100  0.700900  1
  H  H268  1  0.115700  0.512900  0.299100  1
  H  H269  1  0.656900  0.697700  0.763500  1
  H  H270  1  0.343100  0.302300  0.236500  1
  H  H271  1  0.674600  0.654900  0.694200  1
  H  H272  1  0.325400  0.345100  0.305800  1
  H  H273  1  0.690300  0.730400  0.717900  1
  H  H274  1  0.309700  0.269600  0.282100  1
  H  H275  1  0.714200  0.791900  0.656900  1
  H  H276  1  0.285800  0.208100  0.343100  1
  H  H277  1  0.638000  0.733000  0.624800  1
  H  H278  1  0.362000  0.267000  0.375200  1
  H  H279  1  0.673300  0.776700  0.589400  1
  H  H280  1  0.326700  0.223300  0.410600  1
  H  H281  1  0.378300  0.219700  0.771100  1
  H  H282  1  0.621700  0.780300  0.228900  1
  H  H283  1  0.341100  0.248600  0.837100  1
  H  H284  1  0.658900  0.751400  0.162900  1
  H  H285  1  0.287200  0.187900  0.782100  1
  H  H286  1  0.712800  0.812100  0.217900  1
  H  H287  1  0.173900  0.596600  0.350400  1
  H  H288  1  0.826100  0.403400  0.649600  1
  H  H289  1  0.193600  0.584800  0.410800  1
  H  H290  1  0.806400  0.415200  0.589200  1
  H  H291  1  0.258800  0.634300  0.394100  1
  H  H292  1  0.741200  0.365700  0.605900  1
  H  H293  1  0.436800  0.813400  0.942600  1
  H  H294  1  0.563200  0.186600  0.057400  1
  H  H295  1  0.389500  0.777400  0.981800  1
  H  H296  1  0.610500  0.222600  0.018200  1
  H  H297  1  0.468700  0.753500  0.945300  1
  H  H298  1  0.531300  0.246500  0.054700  1
  H  H299  1  0.425500  0.751500  0.335800  1
  H  H300  1  0.574500  0.248500  0.664200  1
  H  H301  1  0.428200  0.723300  0.336500  1
  H  H302  1  0.571800  0.276700  0.663500  1
  C  C303  1  0.200000  0.400000  0.639100  1
  C  C304  1  0.800000  0.600000  0.360900  1
  C  C305  1  0.082100  0.715900  0.161200  1
  C  C306  1  0.917900  0.284100  0.838800  1
  C  C307  1  0.350300  0.423200  0.697700  1
  C  C308  1  0.649700  0.576800  0.302300  1
  C  C309  1  0.562900  0.314200  0.875200  1
  C  C310  1  0.437100  0.685800  0.124800  1
  C  C311  1  0.458700  0.885800  0.885700  1
  C  C312  1  0.541300  0.114200  0.114300  1
  C  C313  1  0.255600  0.005000  0.731200  1
  C  C314  1  0.744400  0.995000  0.268800  1
  C  C315  1  0.524000  0.354000  0.790800  1
  C  C316  1  0.476000  0.646000  0.209200  1
  C  C317  1  0.139400  0.691900  0.121000  1
  C  C318  1  0.860600  0.308100  0.879000  1
  C  C319  1  0.238000  0.340700  0.717700  1
  C  C320  1  0.762000  0.659300  0.282300  1
  C  C321  1  0.451900  0.391000  0.905100  1
  C  C322  1  0.548100  0.609000  0.094900  1
  C  C323  1  0.565500  0.957300  0.843200  1
  C  C324  1  0.434500  0.042700  0.156800  1
  C  C325  1  0.377100  0.939100  0.716800  1
  C  C326  1  0.622900  0.060900  0.283200  1
  C  C327  1  0.521400  0.836300  0.770800  1
  C  C328  1  0.478600  0.163700  0.229200  1
  C  C329  1  0.112600  0.640400  0.066500  1
  C  C330  1  0.887400  0.359600  0.933500  1
  C  C331  1  0.295000  0.970900  0.821600  1
  C  C332  1  0.705000  0.029100  0.178400  1
  C  C333  1  0.025200  0.611100  0.049500  1
  C  C334  1  0.974800  0.388900  0.950500  1
  C  C335  1  0.968400  0.633200  0.095400  1
  C  C336  1  0.031600  0.366800  0.904600  1
  C  C337  1  0.994400  0.686100  0.150700  1
  C  C338  1  0.005600  0.313900  0.849300  1
  C  C339  1  0.993400  0.563600  0.989500  1
  C  C340  1  0.006600  0.436400  0.010500  1
  C  C341  1  0.992300  0.501000  0.890200  1
  C  C342  1  0.007700  0.499000  0.109800  1
  C  C343  1  0.010800  0.465100  0.828800  1
  C  C344  1  0.989200  0.534900  0.171200  1
  C  C345  1  0.091200  0.464800  0.809700  1
  C  C346  1  0.908800  0.535200  0.190300  1
  C  C347  1  0.043800  0.392800  0.713000  1
  C  C348  1  0.956200  0.607200  0.287000  1
  C  C349  1  0.962400  0.391700  0.727400  1
  C  C350  1  0.037600  0.608300  0.272600  1
  C  C351  1  0.943000  0.426200  0.785300  1
  C  C352  1  0.057000  0.573800  0.214700  1
  C  C353  1  0.856100  0.420800  0.805600  1
  C  C354  1  0.143900  0.579200  0.194400  1
  C  C355  1  0.785300  0.379600  0.766600  1
  C  C356  1  0.214700  0.620400  0.233400  1
  C  C357  1  0.708900  0.373900  0.787300  1
  C  C358  1  0.291100  0.626100  0.212700  1
  C  C359  1  0.758900  0.447400  0.886100  1
  C  C360  1  0.241100  0.552600  0.113900  1
  C  C361  1  0.840900  0.456000  0.868500  1
  C  C362  1  0.159100  0.544000  0.131500  1
  C  C363  1  0.911500  0.498100  0.911100  1
  C  C364  1  0.088500  0.501900  0.088900  1
  C  C365  1  0.231900  0.724200  0.132600  1
  C  C366  1  0.768100  0.275800  0.867400  1
  C  C367  1  0.251800  0.833500  0.132000  1
  C  C368  1  0.748200  0.166500  0.868000  1
  C  C369  1  0.246100  0.872400  0.098400  1
  C  C370  1  0.753900  0.127600  0.901600  1
  C  C371  1  0.244300  0.844600  0.035000  1
  C  C372  1  0.755700  0.155400  0.965000  1
  C  C373  1  0.246900  0.780900  0.002100  1
  C  C374  1  0.753100  0.219100  0.997900  1
  C  C375  1  0.243000  0.742500  0.036600  1
  C  C376  1  0.757000  0.257500  0.963400  1
  C  C377  1  0.246300  0.768600  0.098800  1
  C  C378  1  0.753700  0.231400  0.901200  1
  C  C379  1  0.248800  0.752800  0.935600  1
  C  C380  1  0.751200  0.247200  0.064400  1
  C  C381  1  0.256100  0.748600  0.842900  1
  C  C382  1  0.743900  0.251400  0.157100  1
  C  C383  1  0.264200  0.760400  0.786200  1
  C  C384  1  0.735800  0.239600  0.213800  1
  C  C385  1  0.261600  0.819100  0.785700  1
  C  C386  1  0.738400  0.180900  0.214300  1
  C  C387  1  0.287200  0.782600  0.681200  1
  C  C388  1  0.712800  0.217400  0.318800  1
  C  C389  1  0.283700  0.721500  0.678700  1
  C  C390  1  0.716300  0.278500  0.321300  1
  C  C391  1  0.274300  0.708200  0.730200  1
  C  C392  1  0.725700  0.291800  0.269800  1
  C  C393  1  0.266100  0.645700  0.730900  1
  C  C394  1  0.733900  0.354300  0.269100  1
  C  C395  1  0.272500  0.591000  0.675500  1
  C  C396  1  0.727500  0.409000  0.324500  1
  C  C397  1  0.264300  0.532000  0.678600  1
  C  C398  1  0.735700  0.468000  0.321400  1
  C  C399  1  0.249800  0.572200  0.780200  1
  C  C400  1  0.750200  0.427800  0.219800  1
  C  C401  1  0.256300  0.634500  0.784500  1
  C  C402  1  0.743700  0.365500  0.215500  1
  C  C403  1  0.253800  0.687000  0.841200  1
  C  C404  1  0.746200  0.313000  0.158800  1
  C  C405  1  0.235400  0.941000  0.130700  1
  C  C406  1  0.764600  0.059000  0.869300  1
  C  C407  1  0.083100  0.941500  0.160500  1
  C  C408  1  0.916900  0.058500  0.839500  1
  C  C409  1  0.997800  0.939200  0.145800  1
  C  C410  1  0.002200  0.060800  0.854200  1
  C  C411  1  0.972700  0.938400  0.090300  1
  C  C412  1  0.027300  0.061600  0.909700  1
  C  C413  1  0.029100  0.936700  0.046300  1
  C  C414  1  0.970900  0.063300  0.953700  1
  C  C415  1  0.117100  0.943200  0.063100  1
  C  C416  1  0.882900  0.056800  0.936900  1
  C  C417  1  0.140500  0.943700  0.118700  1
  C  C418  1  0.859500  0.056300  0.881300  1
  C  C419  1  0.003700  0.927500  0.982300  1
  C  C420  1  0.996300  0.072500  0.017700  1
  C  C421  1  0.919300  0.903300  0.899800  1
  C  C422  1  0.080700  0.096700  0.100200  1
  C  C423  1  0.848700  0.887900  0.855300  1
  C  C424  1  0.151300  0.112100  0.144700  1
  C  C425  1  0.764900  0.887800  0.870100  1
  C  C426  1  0.235100  0.112200  0.129900  1
  C  C427  1  0.721000  0.861500  0.766900  1
  C  C428  1  0.279000  0.138500  0.233100  1
  C  C429  1  0.800800  0.861700  0.750600  1
  C  C430  1  0.199200  0.138300  0.249400  1
  C  C431  1  0.870100  0.877200  0.794600  1
  C  C432  1  0.129900  0.122800  0.205400  1
  C  C433  1  0.956100  0.882300  0.779500  1
  C  C434  1  0.043900  0.117700  0.220500  1
  C  C435  1  0.983900  0.875700  0.720300  1
  C  C436  1  0.016100  0.124300  0.279700  1
  C  C437  1  0.064600  0.885600  0.708500  1
  C  C438  1  0.935400  0.114400  0.291500  1
  C  C439  1  0.108300  0.911200  0.810700  1
  C  C440  1  0.891700  0.088800  0.189300  1
  C  C441  1  0.022600  0.900500  0.826400  1
  C  C442  1  0.977400  0.099500  0.173600  1
  C  C443  1  0.002700  0.909000  0.885100  1
  C  C444  1  0.997300  0.091000  0.114900  1
  C  C445  1  0.930500  0.929900  0.188800  1
  C  C446  1  0.069500  0.070100  0.811200  1
  C  C447  1  0.914200  0.824500  0.198900  1
  C  C448  1  0.085800  0.175500  0.801100  1
  C  C449  1  0.891400  0.758800  0.170200  1
  C  C450  1  0.108600  0.241200  0.829800  1
  C  C451  1  0.838000  0.729300  0.116200  1
  C  C452  1  0.162000  0.270700  0.883800  1
  C  C453  1  0.809900  0.765700  0.087000  1
  C  C454  1  0.190100  0.234300  0.913000  1
  C  C455  1  0.840400  0.832200  0.113700  1
  C  C456  1  0.159600  0.167800  0.886300  1
  C  C457  1  0.891700  0.860100  0.167000  1
  C  C458  1  0.108300  0.139900  0.833000  1
  C  C459  1  0.751900  0.734700  0.031600  1
  C  C460  1  0.248100  0.265300  0.968400  1
  C  C461  1  0.663600  0.661400  0.958400  1
  C  C462  1  0.336400  0.338600  0.041600  1
  C  C463  1  0.611700  0.605000  0.916400  1
  C  C464  1  0.388300  0.395000  0.083600  1
  C  C465  1  0.608800  0.544500  0.917400  1
  C  C466  1  0.391200  0.455500  0.082600  1
  C  C467  1  0.506500  0.496900  0.836200  1
  C  C468  1  0.493500  0.503100  0.163800  1
  C  C469  1  0.503600  0.552800  0.831900  1
  C  C470  1  0.496400  0.447200  0.168100  1
  C  C471  1  0.557500  0.608900  0.872400  1
  C  C472  1  0.442500  0.391100  0.127600  1
  C  C473  1  0.558000  0.670500  0.868700  1
  C  C474  1  0.442000  0.329500  0.131300  1
  C  C475  1  0.502200  0.679500  0.829900  1
  C  C476  1  0.497800  0.320500  0.170100  1
  C  C477  1  0.508500  0.737900  0.826300  1
  C  C478  1  0.491500  0.262100  0.173700  1
  C  C479  1  0.616000  0.783400  0.903000  1
  C  C480  1  0.384000  0.216600  0.097000  1
  C  C481  1  0.614800  0.726000  0.908500  1
  C  C482  1  0.385200  0.274000  0.091500  1
  C  C483  1  0.667000  0.720600  0.955200  1
  C  C484  1  0.333000  0.279400  0.044800  1
  C  C485  1  0.928800  0.716100  0.194000  1
  C  C486  1  0.071200  0.283900  0.806000  1
  C  C487  1  0.130000  0.770700  0.268700  1
  C  C488  1  0.870000  0.229300  0.731300  1
  C  C489  1  0.146600  0.833800  0.316700  1
  C  C490  1  0.853400  0.166200  0.683300  1
  C  C491  1  0.175000  0.843200  0.374900  1
  C  C492  1  0.825000  0.156800  0.625100  1
  C  C493  1  0.200000  0.920600  0.420000  1
  C  C494  1  0.800000  0.079400  0.580000  1
  C  C495  1  0.238000  0.936900  0.485700  1
  C  C496  1  0.762000  0.063100  0.514300  1
  C  C497  1  0.268500  0.007800  0.526900  1
  C  C498  1  0.731500  0.992200  0.473100  1
  C  C499  1  0.314000  0.018100  0.588500  1
  C  C500  1  0.686000  0.981900  0.411500  1
  C  C501  1  0.301000  0.087000  0.621400  1
  C  C502  1  0.699000  0.913000  0.378600  1
  C  C503  1  0.355500  0.882500  0.212900  1
  C  C504  1  0.644500  0.117500  0.787100  1
  C  C505  1  0.380000  0.899100  0.275600  1
  C  C506  1  0.620000  0.100900  0.724400  1
  C  C507  1  0.370000  0.829000  0.283300  1
  C  C508  1  0.630000  0.171000  0.716700  1
  C  C509  1  0.395000  0.840300  0.350400  1
  C  C510  1  0.605000  0.159700  0.649600  1
  C  C511  1  0.383600  0.777100  0.357700  1
  C  C512  1  0.616400  0.222900  0.642300  1
  C  C513  1  0.400700  0.803500  0.428500  1
  C  C514  1  0.599300  0.196500  0.571500  1
  C  C515  1  0.425700  0.743900  0.430600  1
  C  C516  1  0.574300  0.256100  0.569400  1
  C  C517  1  0.403000  0.701000  0.361500  1
  C  C518  1  0.597000  0.299000  0.638500  1
  C  C519  1  0.137000  0.993400  0.265600  1
  C  C520  1  0.863000  0.006600  0.734400  1
  C  C521  1  0.172000  0.003000  0.318000  1
  C  C522  1  0.828000  0.997000  0.682000  1
  C  C523  1  0.203800  0.060500  0.367900  1
  C  C524  1  0.796200  0.939500  0.632100  1
  C  C525  1  0.268000  0.070100  0.420900  1
  C  C526  1  0.732000  0.929900  0.579100  1
  C  C527  1  0.262000  0.139200  0.461500  1
  C  C528  1  0.738000  0.860800  0.538500  1
  C  C529  1  0.282300  0.170900  0.532100  1
  C  C530  1  0.717700  0.829100  0.467900  1
  C  C531  1  0.327400  0.232100  0.585700  1
  C  C532  1  0.672600  0.767900  0.414300  1
  C  C533  1  0.336000  0.228000  0.649000  1
  C  C534  1  0.664000  0.772000  0.351000  1
  C  C535  1  0.895000  0.857200  0.302000  1
  C  C536  1  0.105000  0.142800  0.698000  1
  C  C537  1  0.926000  0.907300  0.361600  1
  C  C538  1  0.074000  0.092700  0.638400  1
  C  C539  1  0.942000  0.969900  0.371000  1
  C  C540  1  0.058000  0.030100  0.629000  1
  C  C541  1  0.972000  0.019700  0.431000  1
  C  C542  1  0.028000  0.980300  0.569000  1
  C  C543  1  0.983000  0.086300  0.440600  1
  C  C544  1  0.017000  0.913700  0.559400  1
  C  C545  1  0.003000  0.130800  0.504500  1
  C  C546  1  0.997000  0.869200  0.495500  1
  C  C547  1  0.008000  0.194000  0.518000  1
  C  C548  1  0.992000  0.806000  0.482000  1
  C  C549  1  0.022000  0.244400  0.574600  1
  C  C550  1  0.978000  0.755600  0.425400  1
  C  C551  1  0.026000  0.772900  0.045100  1
  C  C552  1  0.974000  0.227100  0.954900  1
  C  C553  1  0.039000  0.658500  0.718000  1
  C  C554  1  0.961000  0.341500  0.282000  1
  C  C555  1  0.273000  0.382000  0.207000  1
  C  C556  1  0.727000  0.618000  0.793000  1
  C  C557  1  0.904600  0.532500  0.712400  1
  C  C558  1  0.095400  0.467500  0.287600  1
  C  C559  1  0.693000  0.695000  0.730000  1
  C  C560  1  0.307000  0.305000  0.270000  1
  C  C561  1  0.689000  0.758000  0.617500  1
  C  C562  1  0.311000  0.242000  0.382500  1
  C  C563  1  0.344000  0.209500  0.801200  1
  C  C564  1  0.656000  0.790500  0.198800  1
  C  C565  1  0.199000  0.616500  0.393200  1
  C  C566  1  0.801000  0.383500  0.606800  1
  C  C567  1  0.444000  0.790800  0.968700  1
  C  C568  1  0.556000  0.209200  0.031300  1
  C  C569  1  0.275600  0.442000  0.808400  1
  C  C570  1  0.724400  0.558000  0.191600  1
  C  C571  1  0.593200  0.428700  0.965230  1
  C  C572  1  0.406800  0.571300  0.034770  1
  C  C573  1  0.598900  0.934500  0.942000  1
  C  C574  1  0.401100  0.065500  0.058000  1
  C  C575  1  0.249000  0.893000  0.645100  1
  C  C576  1  0.751000  0.107000  0.354900  1
  Br  Br577  1  0.293600  0.464120  0.840600  1
  Br  Br578  1  0.706400  0.535880  0.159400  1
  Br  Br579  1  0.618500  0.446290  0.993900  1
  Br  Br580  1  0.381500  0.553710  0.006100  1
  Br  Br581  1  0.623300  0.946770  0.970400  1
  Br  Br582  1  0.376700  0.053230  0.029600  1
  Br  Br583  1  0.219300  0.865900  0.614900  1
  Br  Br584  1  0.780700  0.134100  0.385100  1
  Br  Br585  1  0.191300  0.377200  0.608500  1
  Br  Br586  1  0.808700  0.622800  0.391500  1
  Br  Br587  1  0.495500  0.339200  0.760700  1
  Br  Br588  1  0.504500  0.660800  0.239300  1
  Br  Br589  1  0.508400  0.819000  0.742000  1
  Br  Br590  1  0.491600  0.181000  0.258000  1
  Br  Br591  1  0.312600  0.990200  0.854600  1
  Br  Br592  1  0.687400  0.009800  0.145400  1
  N  N593  1  0.043600  0.542700  0.940300  1
  N  N594  1  0.956400  0.457300  0.059700  1
  N  N595  1  0.109800  0.430500  0.754200  1
  N  N596  1  0.890200  0.569500  0.245800  1
  N  N597  1  0.690700  0.408100  0.847600  1
  N  N598  1  0.309300  0.591900  0.152400  1
  N  N599  1  0.912900  0.536000  0.972000  1
  N  N600  1  0.087100  0.464000  0.028000  1
  N  N601  1  0.250800  0.787100  0.900800  1
  N  N602  1  0.749200  0.212900  0.099200  1
  N  N603  1  0.272400  0.831000  0.735300  1
  N  N604  1  0.727600  0.169000  0.264700  1
  N  N605  1  0.251400  0.522400  0.728500  1
  N  N606  1  0.748600  0.477600  0.271500  1
  N  N607  1  0.250600  0.692800  0.899500  1
  N  N608  1  0.749400  0.307200  0.100500  1
  N  N609  1  0.920000  0.914700  0.961400  1
  N  N610  1  0.080000  0.085300  0.038600  1
  N  N611  1  0.703000  0.874500  0.825800  1
  N  N612  1  0.297000  0.125500  0.174200  1
  N  N613  1  0.129400  0.904200  0.755800  1
  N  N614  1  0.870600  0.095800  0.244200  1
  N  N615  1  0.055300  0.925400  0.937800  1
  N  N616  1  0.944700  0.074600  0.062200  1
  N  N617  1  0.720200  0.672600  0.005300  1
  N  N618  1  0.279800  0.327400  0.994700  1
  N  N619  1  0.560100  0.491300  0.876900  1
  N  N620  1  0.439900  0.508700  0.123100  1
  N  N621  1  0.564900  0.789400  0.863700  1
  N  N622  1  0.435100  0.210600  0.136300  1
  N  N623  1  0.721600  0.766400  0.001800  1
  N  N624  1  0.278400  0.233600  0.998200  1
  N  N625  1  0.999000  0.745800  0.986700  1
  N  N626  1  0.001000  0.254200  0.013300  1
  N  N627  1  0.051000  0.724600  0.766700  1
  N  N628  1  0.949000  0.275400  0.233300  1
  N  N629  1  0.215000  0.415000  0.186000  1
  N  N630  1  0.785000  0.585000  0.814000  1
  N  N631  1  0.993700  0.550600  0.739800  1
  N  N632  1  0.006300  0.449400  0.260200  1
  N  N633  1  0.783000  0.700000  0.751400  1
  N  N634  1  0.217000  0.300000  0.248600  1
  N  N635  1  0.751000  0.716200  0.589000  1
  N  N636  1  0.249000  0.283800  0.411000  1
  N  N637  1  0.384000  0.168000  0.821300  1
  N  N638  1  0.616000  0.832000  0.178700  1
  N  N639  1  0.168000  0.676000  0.432000  1
  N  N640  1  0.832000  0.324000  0.568000  1
  N  N641  1  0.503000  0.834300  0.025300  1
  N  N642  1  0.497000  0.165700  0.974700  1
  O  O643  1  0.169000  0.392000  0.594400  1
  O  O644  1  0.831000  0.608000  0.405600  1
  O  O645  1  0.104800  0.771000  0.211400  1
  O  O646  1  0.895200  0.229000  0.788600  1
  O  O647  1  0.419900  0.421400  0.683500  1
  O  O648  1  0.580100  0.578600  0.316500  1
  O  O649  1  0.562600  0.264500  0.874600  1
  O  O650  1  0.437400  0.735500  0.125400  1
  O  O651  1  0.250600  0.051600  0.731200  1
  O  O652  1  0.749400  0.948400  0.268800  1
  O  O653  1  0.392100  0.890600  0.901500  1
  O  O654  1  0.607900  0.109400  0.098500  1
  O  O655  1  0.465300  0.319000  0.772000  1
  O  O656  1  0.534700  0.681000  0.228000  1
  O  O657  1  0.265600  0.860400  0.194100  1
  O  O658  1  0.734400  0.139600  0.805900  1
  O  O659  1  0.380200  0.382100  0.918500  1
  O  O660  1  0.619800  0.617900  0.081500  1
  O  O661  1  0.562400  0.004500  0.839800  1
  O  O662  1  0.437600  0.995500  0.160200  1
  O  O663  1  0.450700  0.951200  0.708300  1
  O  O664  1  0.549300  0.048800  0.291700  1
  O  O665  1  0.229300  0.287800  0.714000  1
  O  O666  1  0.770700  0.712200  0.286000  1
  O  O667  1  0.487800  0.803900  0.725700  1
  O  O668  1  0.512200  0.196100  0.274300  1
  O  O669  1  0.105700  0.936500  0.213900  1
  O  O670  1  0.894300  0.063500  0.786100  1
  O  O671  1  0.319000  0.005000  0.868700  1
  O  O672  1  0.681000  0.995000  0.131300  1
  O  O673  1  0.955400  0.853500  0.254900  1
  O  O674  1  0.044600  0.146500  0.745100  1
  O  O675  1  0.223200  0.910800  0.931900  1
  O  O676  1  0.776800  0.089200  0.068100  1
  O  O677  1  0.770000  0.892400  0.016100  1
  O  O678  1  0.230000  0.107600  0.983900  1
  O  O679  1  0.768700  0.573400  0.026900  1
  O  O680  1  0.231300  0.426600  0.973100  1
  O  O681  1  0.213700  0.587000  0.930500  1
  O  O682  1  0.786300  0.413000  0.069500  1
  O  O683  1  0.960000  0.688900  0.968000  1
  O  O684  1  0.040000  0.311100  0.032000  1
  O  O685  1  0.039000  0.783500  0.951000  1
  O  O686  1  0.961000  0.216500  0.049000  1
  O  O687  1  0.067000  0.759700  0.736000  1
  O  O688  1  0.933000  0.240300  0.264000  1
  O  O689  1  0.032000  0.741000  0.824000  1
  O  O690  1  0.968000  0.259000  0.176000  1
  O  O691  1  0.262000  0.470000  0.195000  1
  O  O692  1  0.738000  0.530000  0.805000  1
  O  O693  1  0.173000  0.377000  0.132000  1
  O  O694  1  0.827000  0.623000  0.868000  1
  O  O695  1  0.047000  0.530700  0.700000  1
  O  O696  1  0.953000  0.469300  0.300000  1
  O  O697  1  0.011500  0.591900  0.796700  1
  O  O698  1  0.988500  0.408100  0.203300  1
  O  O699  1  0.797000  0.739000  0.809400  1
  O  O700  1  0.203000  0.261000  0.190600  1
  O  O701  1  0.837300  0.706200  0.712300  1
  O  O702  1  0.162700  0.293800  0.287700  1
  O  O703  1  0.824000  0.754000  0.599000  1
  O  O704  1  0.176000  0.246000  0.401000  1
  O  O705  1  0.709300  0.674300  0.536100  1
  O  O706  1  0.290700  0.325700  0.463900  1
  O  O707  1  0.436000  0.139000  0.784200  1
  O  O708  1  0.564000  0.861000  0.215800  1
  O  O709  1  0.351700  0.143600  0.859400  1
  O  O710  1  0.648300  0.856400  0.140600  1
  O  O711  1  0.189000  0.707000  0.396700  1
  O  O712  1  0.811000  0.293000  0.603300  1
  O  O713  1  0.209000  0.705000  0.488300  1
  O  O714  1  0.791000  0.295000  0.511700  1
  O  O715  1  0.507800  0.888400  0.018500  1
  O  O716  1  0.492200  0.111600  0.981500  1
  O  O717  1  0.458000  0.836000  0.072000  1
  O  O718  1  0.542000  0.164000  0.928000  1
  O  O719  1  0.299000  0.443000  0.853000  1
  O  O720  1  0.701000  0.557000  0.147000  1
  O  O721  1  0.617000  0.448200  0.014100  1
  O  O722  1  0.383000  0.551800  0.985900  1
  O  O723  1  0.634300  0.968000  0.985900  1
  O  O724  1  0.365700  0.032000  0.014100  1
  O  O725  1  0.234000  0.866000  0.594900  1
  O  O726  1  0.766000  0.134000  0.405100  1
  O  O727  1  0.941000  0.778000  0.968900  1
  O  O728  1  0.059000  0.222000  0.031100  1
  O  O729  1  0.041000  0.691900  0.948000  1
  O  O730  1  0.959000  0.308100  0.052000  1
