# generated using pymatgen
data_Cu2H48C55N7O10
_symmetry_space_group_name_H-M   'P 1'
_cell_length_a   14.00200000
_cell_length_b   15.53900000
_cell_length_c   15.76400000
_cell_angle_alpha   96.61600000
_cell_angle_beta   110.78300000
_cell_angle_gamma   105.07200000
_symmetry_Int_Tables_number   1
_chemical_formula_structural   Cu2H48C55N7O10
_chemical_formula_sum   'Cu4 H96 C110 N14 O20'
_cell_volume   3013.50788182
_cell_formula_units_Z   2
loop_
 _symmetry_equiv_pos_site_id
 _symmetry_equiv_pos_as_xyz
  1  'x, y, z'
loop_
 _atom_site_type_symbol
 _atom_site_label
 _atom_site_symmetry_multiplicity
 _atom_site_fract_x
 _atom_site_fract_y
 _atom_site_fract_z
 _atom_site_occupancy
  Cu  Cu1  1  0.219454  0.332056  0.302232  1.0
  Cu  Cu2  1  0.780546  0.667944  0.697768  1.0
  Cu  Cu3  1  0.126859  0.401868  0.164333  1.0
  Cu  Cu4  1  0.873141  0.598132  0.835667  1.0
  H  H5  1  0.977900  0.291900  0.914600  1
  H  H6  1  0.022100  0.708100  0.085400  1
  H  H7  1  0.005800  0.339800  0.837900  1
  H  H8  1  0.994200  0.660200  0.162100  1
  H  H9  1  0.909000  0.352700  0.863900  1
  H  H10  1  0.091000  0.647300  0.136100  1
  H  H11  1  0.163400  0.618400  0.005200  1
  H  H12  1  0.836600  0.381600  0.994800  1
  H  H13  1  0.259700  0.599600  0.982400  1
  H  H14  1  0.740300  0.400400  0.017600  1
  H  H15  1  0.231700  0.561100  0.063500  1
  H  H16  1  0.768300  0.438900  0.936500  1
  H  H17  1  0.228200  0.087100  0.144000  1.0
  H  H18  1  0.771800  0.912900  0.856000  1.0
  H  H19  1  0.200400  0.959400  0.033300  1.0
  H  H20  1  0.799600  0.040600  0.966700  1.0
  H  H21  1  0.085300  0.936200  0.882400  1.0
  H  H22  1  0.914700  0.063800  0.117600  1.0
  H  H23  1  0.034400  0.175900  0.939200  1.0
  H  H24  1  0.965600  0.824100  0.060800  1.0
  H  H25  1  0.937400  0.898000  0.760400  1.0
  H  H26  1  0.062600  0.102000  0.239600  1.0
  H  H27  1  0.818000  0.876400  0.610900  1.0
  H  H28  1  0.182000  0.123600  0.389100  1.0
  H  H29  1  0.717200  0.949700  0.482000  1.0
  H  H30  1  0.282800  0.050300  0.518000  1.0
  H  H31  1  0.683400  0.080000  0.442700  1.0
  H  H32  1  0.316600  0.920000  0.557300  1.0
  H  H33  1  0.718600  0.205000  0.403500  1.0
  H  H34  1  0.281400  0.795000  0.596500  1.0
  H  H35  1  0.697300  0.339300  0.360200  1.0
  H  H36  1  0.302700  0.660700  0.639800  1.0
  H  H37  1  0.730300  0.465300  0.474400  1.0
  H  H38  1  0.269700  0.534700  0.525600  1.0
  H  H39  1  0.826800  0.329100  0.675900  1.0
  H  H40  1  0.173200  0.670900  0.324100  1.0
  H  H41  1  0.068100  0.856300  0.698800  1.0
  H  H42  1  0.931900  0.143700  0.301200  1.0
  H  H43  1  0.234200  0.936800  0.705100  1.0
  H  H44  1  0.765800  0.063200  0.294900  1.0
  H  H45  1  0.384200  0.893100  0.776300  1.0
  H  H46  1  0.615800  0.106900  0.223700  1.0
  H  H47  1  0.202500  0.691900  0.849100  1.0
  H  H48  1  0.797500  0.308100  0.150900  1.0
  H  H49  1  0.478700  0.800700  0.775300  1.0
  H  H50  1  0.521300  0.199300  0.224700  1.0
  H  H51  1  0.625000  0.751800  0.839200  1.0
  H  H52  1  0.375000  0.248200  0.160800  1.0
  H  H53  1  0.722100  0.676600  0.964900  1.0
  H  H54  1  0.277900  0.323400  0.035100  1.0
  H  H55  1  0.717000  0.601900  0.082300  1.0
  H  H56  1  0.283000  0.398100  0.917700  1.0
  H  H57  1  0.724300  0.575100  0.212100  1.0
  H  H58  1  0.275700  0.424900  0.787900  1.0
  H  H59  1  0.715300  0.503500  0.330000  1.0
  H  H60  1  0.284700  0.496500  0.670000  1.0
  H  H61  1  0.553000  0.444100  0.343200  1.0
  H  H62  1  0.447000  0.555900  0.656800  1.0
  H  H63  1  0.406600  0.539500  0.121500  1.0
  H  H64  1  0.593400  0.460500  0.878500  1.0
  H  H65  1  0.392400  0.250400  0.330600  1.0
  H  H66  1  0.607600  0.749600  0.669400  1.0
  H  H67  1  0.445900  0.190700  0.397400  1.0
  H  H68  1  0.554100  0.809300  0.602600  1.0
  H  H69  1  0.505100  0.298500  0.418300  1.0
  H  H70  1  0.494900  0.701500  0.581700  1.0
  H  H71  1  0.536200  0.216900  0.542900  1.0
  H  H72  1  0.463800  0.783100  0.457100  1.0
  H  H73  1  0.511000  0.207800  0.633500  1.0
  H  H74  1  0.489000  0.792200  0.366500  1.0
  H  H75  1  0.571600  0.306100  0.623100  1.0
  H  H76  1  0.428400  0.693900  0.376900  1.0
  H  H77  1  0.322300  0.317400  0.583400  1.0
  H  H78  1  0.677700  0.682600  0.416600  1.0
  H  H79  1  0.410800  0.294800  0.666667  1.0
  H  H80  1  0.589200  0.705200  0.333333  1.0
  H  H81  1  0.305400  0.214100  0.594500  1.0
  H  H82  1  0.694600  0.785900  0.405500  1.0
  H  H83  1  0.965500  0.345800  0.942300  1.0
  H  H84  1  0.034500  0.654200  0.057700  1.0
  H  H85  1  0.000000  0.292000  0.871400  1.0
  H  H86  1  0.000000  0.708000  0.128600  1.0
  H  H87  1  0.917000  0.346600  0.834000  1.0
  H  H88  1  0.083000  0.653400  0.166000  1.0
  H  H89  1  0.049300  0.504100  0.804500  1.0
  H  H90  1  0.950700  0.495900  0.195500  1.0
  H  H91  1  0.095200  0.423600  0.783600  1.0
  H  H92  1  0.904800  0.576400  0.216400  1.0
  H  H93  1  0.174200  0.516100  0.859700  1.0
  H  H94  1  0.825800  0.483900  0.140300  1.0
  H  H95  1  0.164500  0.612300  0.982600  1.0
  H  H96  1  0.835500  0.387700  0.017400  1.0
  H  H97  1  0.257100  0.565700  0.012600  1.0
  H  H98  1  0.742900  0.434300  0.987400  1.0
  H  H99  1  0.212000  0.598000  0.086500  1.0
  H  H100  1  0.788000  0.402000  0.913500  1.0
  C  C101  1  0.060400  0.432100  0.965360  1
  C  C102  1  0.939600  0.567900  0.034640  1
  C  C103  1  0.981000  0.346300  0.888400  1
  C  C104  1  0.019000  0.653700  0.111600  1
  C  C105  1  0.201300  0.574100  0.002000  1
  C  C106  1  0.798700  0.425900  0.998000  1
  C  C107  1  0.151110  0.226490  0.120880  1.0
  C  C108  1  0.848890  0.773510  0.879120  1.0
  C  C109  1  0.133700  0.144700  0.053320  1.0
  C  C110  1  0.866300  0.855300  0.946680  1.0
  C  C111  1  0.182620  0.079290  0.080500  1.0
  C  C112  1  0.817380  0.920710  0.919500  1.0
  C  C113  1  0.164880  0.002740  0.014980  1.0
  C  C114  1  0.835120  0.997260  0.985020  1.0
  C  C115  1  0.097710  0.989830  0.925900  1.0
  C  C116  1  0.902290  0.010170  0.074100  1.0
  C  C117  1  0.044960  0.052700  0.894560  1.0
  C  C118  1  0.955040  0.947300  0.105440  1.0
  C  C119  1  0.066170  0.130710  0.959060  1.0
  C  C120  1  0.933830  0.869290  0.040940  1.0
  C  C121  1  0.968100  0.036500  0.796480  1.0
  C  C122  1  0.031900  0.963500  0.203520  1.0
  C  C123  1  0.920150  0.948490  0.737870  1.0
  C  C124  1  0.079850  0.051510  0.262130  1.0
  C  C125  1  0.850420  0.936030  0.650600  1.0
  C  C126  1  0.149580  0.063970  0.349400  1.0
  C  C127  1  0.824260  0.010670  0.616580  1.0
  C  C128  1  0.175740  0.989330  0.383420  1.0
  C  C129  1  0.875480  0.097860  0.680030  1.0
  C  C130  1  0.124520  0.902140  0.319970  1.0
  C  C131  1  0.752500  0.006570  0.526670  1.0
  C  C132  1  0.247500  0.993430  0.473330  1.0
  C  C133  1  0.733370  0.083050  0.503280  1.0
  C  C134  1  0.266630  0.916950  0.496720  1.0
  C  C135  1  0.787550  0.167360  0.568940  1.0
  C  C136  1  0.212450  0.832640  0.431060  1.0
  C  C137  1  0.772330  0.252330  0.542760  1.0
  C  C138  1  0.227670  0.747670  0.457240  1.0
  C  C139  1  0.735070  0.257400  0.450270  1.0
  C  C140  1  0.264930  0.742600  0.549730  1.0
  C  C141  1  0.721170  0.336570  0.423920  1.0
  C  C142  1  0.278830  0.663430  0.576080  1.0
  C  C143  1  0.742650  0.411360  0.491840  1.0
  C  C144  1  0.257350  0.588640  0.508160  1.0
  C  C145  1  0.782210  0.409200  0.585540  1.0
  C  C146  1  0.217790  0.590800  0.414460  1.0
  C  C147  1  0.798370  0.330390  0.611840  1.0
  C  C148  1  0.201630  0.669610  0.388160  1.0
  C  C149  1  0.804820  0.491470  0.657290  1.0
  C  C150  1  0.195180  0.508530  0.342710  1.0
  C  C151  1  0.010390  0.714930  0.772010  1.0
  C  C152  1  0.989610  0.285070  0.227990  1.0
  C  C153  1  0.117390  0.765740  0.774200  1.0
  C  C154  1  0.882610  0.234260  0.225800  1.0
  C  C155  1  0.129310  0.838980  0.730540  1.0
  C  C156  1  0.870690  0.161020  0.269460  1.0
  C  C157  1  0.227180  0.885700  0.732910  1.0
  C  C158  1  0.772820  0.114300  0.267090  1.0
  C  C159  1  0.316270  0.859850  0.775120  1.0
  C  C160  1  0.683730  0.140150  0.224880  1.0
  C  C161  1  0.307310  0.785400  0.815990  1.0
  C  C162  1  0.692690  0.214600  0.184010  1.0
  C  C163  1  0.208300  0.740450  0.817790  1.0
  C  C164  1  0.791700  0.259550  0.182210  1.0
  C  C165  1  0.402090  0.754750  0.858530  1.0
  C  C166  1  0.597910  0.245250  0.141470  1.0
  C  C167  1  0.484010  0.770250  0.824920  1.0
  C  C168  1  0.515990  0.229750  0.175080  1.0
  C  C169  1  0.570040  0.742290  0.862500  1.0
  C  C170  1  0.429960  0.257710  0.137500  1.0
  C  C171  1  0.576980  0.698820  0.936900  1.0
  C  C172  1  0.423020  0.301180  0.063100  1.0
  C  C173  1  0.489770  0.682590  0.964990  1.0
  C  C174  1  0.510230  0.317410  0.035010  1.0
  C  C175  1  0.662520  0.667380  0.982380  1.0
  C  C176  1  0.337480  0.332620  0.017620  1.0
  C  C177  1  0.659520  0.623760  0.051360  1.0
  C  C178  1  0.340480  0.376240  0.948640  1.0
  C  C179  1  0.570500  0.610740  0.077470  1.0
  C  C180  1  0.429500  0.389260  0.922530  1.0
  C  C181  1  0.566570  0.564760  0.153290  1.0
  C  C182  1  0.433430  0.435240  0.846710  1.0
  C  C183  1  0.656920  0.552840  0.216920  1.0
  C  C184  1  0.343080  0.447160  0.783080  1.0
  C  C185  1  0.651430  0.509640  0.286670  1.0
  C  C186  1  0.348570  0.490360  0.713330  1.0
  C  C187  1  0.556220  0.475240  0.295280  1.0
  C  C188  1  0.443780  0.524760  0.704720  1.0
  C  C189  1  0.464050  0.486600  0.232700  1.0
  C  C190  1  0.535950  0.513400  0.767300  1.0
  C  C191  1  0.469990  0.531310  0.163380  1.0
  C  C192  1  0.530010  0.468690  0.836620  1.0
  C  C193  1  0.357080  0.445110  0.237110  1.0
  C  C194  1  0.642920  0.554890  0.762890  1.0
  C  C195  1  0.434880  0.250230  0.395080  1.0
  C  C196  1  0.565120  0.749770  0.604920  1.0
  C  C197  1  0.374330  0.267600  0.455890  1.0
  C  C198  1  0.625670  0.732400  0.544110  1.0
  C  C199  1  0.516400  0.246600  0.589400  1.0
  C  C200  1  0.483600  0.753400  0.410600  1.0
  C  C201  1  0.358850  0.272430  0.601480  1.0
  C  C202  1  0.641150  0.727570  0.398520  1.0
  C  C203  1  0.980960  0.346480  0.886410  1.0
  C  C204  1  0.019040  0.653520  0.113590  1.0
  C  C205  1  0.107000  0.477900  0.990400  1.0
  C  C206  1  0.893000  0.522100  0.009600  1.0
  C  C207  1  0.100630  0.472380  0.832110  1.0
  C  C208  1  0.899370  0.527620  0.167890  1.0
  C  C209  1  0.192800  0.571900  0.020800  1.0
  C  C210  1  0.807200  0.428100  0.979200  1.0
  N  N211  1  0.123160  0.486750  0.932470  1
  N  N212  1  0.876840  0.513250  0.067530  1
  N  N213  1  0.945350  0.109470  0.769380  1.0
  N  N214  1  0.054650  0.890530  0.230620  1.0
  N  N215  1  0.854750  0.173890  0.654160  1.0
  N  N216  1  0.145250  0.826110  0.345840  1.0
  N  N217  1  0.402850  0.710210  0.925600  1.0
  N  N218  1  0.597150  0.289790  0.074400  1.0
  N  N219  1  0.486990  0.637770  0.034210  1.0
  N  N220  1  0.513010  0.362230  0.965790  1.0
  N  N221  1  0.413950  0.259440  0.543440  1.0
  N  N222  1  0.586050  0.740560  0.456560  1.0
  N  N223  1  0.075600  0.432660  0.904320  1.0
  N  N224  1  0.924400  0.567340  0.095680  1.0
  O  O225  1  0.212760  0.235930  0.205640  1.0
  O  O226  1  0.787240  0.764070  0.794360  1.0
  O  O227  1  0.104700  0.282600  0.089610  1.0
  O  O228  1  0.895300  0.717400  0.910390  1.0
  O  O229  1  0.787610  0.559660  0.625480  1.0
  O  O230  1  0.212390  0.440340  0.374520  1.0
  O  O231  1  0.838300  0.488240  0.741630  1.0
  O  O232  1  0.161700  0.511760  0.258370  1.0
  O  O233  1  0.930330  0.735640  0.720940  1.0
  O  O234  1  0.069670  0.264360  0.279060  1.0
  O  O235  1  0.006820  0.655420  0.819370  1.0
  O  O236  1  0.993180  0.344580  0.180630  1.0
  O  O237  1  0.356060  0.406690  0.303640  1.0
  O  O238  1  0.643940  0.593310  0.696360  1.0
  O  O239  1  0.275010  0.447060  0.170890  1.0
  O  O240  1  0.724990  0.552940  0.829110  1.0
  O  O241  1  0.289590  0.281780  0.422170  1.0
  O  O242  1  0.710410  0.718220  0.577830  1.0
  O  O243  1  0.068920  0.450750  0.046260  1.0
  O  O244  1  0.931080  0.549250  0.953740  1.0
