# generated using pymatgen
data_MoH21C26N3O5
_symmetry_space_group_name_H-M   'P 1'
_cell_length_a   12.52200000
_cell_length_b   15.06200000
_cell_length_c   24.64700000
_cell_angle_alpha   85.35800000
_cell_angle_beta   83.04500000
_cell_angle_gamma   89.31300000
_symmetry_Int_Tables_number   1
_chemical_formula_structural   MoH21C26N3O5
_chemical_formula_sum   'Mo8 H168 C208 N24 O40'
_cell_volume   4599.22751288
_cell_formula_units_Z   8
loop_
 _symmetry_equiv_pos_site_id
 _symmetry_equiv_pos_as_xyz
  1  'x, y, z'
loop_
 _atom_site_type_symbol
 _atom_site_label
 _atom_site_symmetry_multiplicity
 _atom_site_fract_x
 _atom_site_fract_y
 _atom_site_fract_z
 _atom_site_occupancy
  Mo  Mo1  1  0.532900  0.120658  0.283423  1
  Mo  Mo2  1  0.467100  0.879342  0.716577  1
  Mo  Mo3  1  0.541200  0.985764  0.265871  1
  Mo  Mo4  1  0.458800  0.014236  0.734129  1
  Mo  Mo5  1  0.532460  0.511669  0.229236  1
  Mo  Mo6  1  0.467540  0.488331  0.770764  1
  Mo  Mo7  1  0.541650  0.377260  0.210241  1
  Mo  Mo8  1  0.458350  0.622740  0.789759  1
  H  H9  1  0.642400  0.109500  0.450500  1
  H  H10  1  0.357600  0.890500  0.549500  1
  H  H11  1  0.701300  0.074400  0.536400  1
  H  H12  1  0.298700  0.925600  0.463600  1
  H  H13  1  0.692600  0.928300  0.574300  1
  H  H14  1  0.307400  0.071700  0.425700  1
  H  H15  1  0.586000  0.848200  0.437800  1
  H  H16  1  0.414000  0.151800  0.562200  1
  H  H17  1  0.623700  0.810000  0.615800  1
  H  H18  1  0.376300  0.190000  0.384200  1
  H  H19  1  0.637600  0.664900  0.653400  1
  H  H20  1  0.362400  0.335100  0.346600  1
  H  H21  1  0.654600  0.498400  0.636700  1
  H  H22  1  0.345400  0.501600  0.363300  1
  H  H23  1  0.667600  0.391500  0.573600  1
  H  H24  1  0.332400  0.608500  0.426400  1
  H  H25  1  0.747700  0.318800  0.506000  1
  H  H26  1  0.252300  0.681200  0.494000  1
  H  H27  1  0.779700  0.222000  0.437000  1
  H  H28  1  0.220300  0.778000  0.563000  1
  H  H29  1  0.709300  0.249200  0.354800  1
  H  H30  1  0.290700  0.750800  0.645200  1
  H  H31  1  0.595400  0.488200  0.404700  1
  H  H32  1  0.404600  0.511800  0.595300  1
  H  H33  1  0.878000  0.359200  0.125100  1
  H  H34  1  0.122000  0.640800  0.874900  1
  H  H35  1  0.059400  0.371300  0.091600  1
  H  H36  1  0.940600  0.628700  0.908400  1
  H  H37  1  0.159400  0.489600  0.113300  1
  H  H38  1  0.840600  0.510400  0.886700  1
  H  H39  1  0.892900  0.591700  0.195100  1
  H  H40  1  0.107100  0.408300  0.804900  1
  H  H41  1  0.245900  0.564300  0.167000  1
  H  H42  1  0.754100  0.435700  0.833000  1
  H  H43  1  0.345100  0.688300  0.180100  1
  H  H44  1  0.654900  0.311700  0.819900  1
  H  H45  1  0.347400  0.858400  0.189900  1
  H  H46  1  0.652600  0.141600  0.810100  1
  H  H47  1  0.248800  0.989800  0.192700  1
  H  H48  1  0.751200  0.010200  0.807300  1
  H  H49  1  0.158100  0.106400  0.161500  1
  H  H50  1  0.841900  0.893600  0.838500  1
  H  H51  1  0.049000  0.231600  0.165400  1
  H  H52  1  0.951000  0.768400  0.834600  1
  H  H53  1  0.868300  0.223200  0.203400  1
  H  H54  1  0.131700  0.776800  0.796600  1
  H  H55  1  0.896800  0.952700  0.219100  1
  H  H56  1  0.103200  0.047300  0.780900  1
  H  H57  1  0.366000  0.249400  0.147300  1
  H  H58  1  0.634000  0.750600  0.852700  1
  H  H59  1  0.257000  0.275800  0.076900  1
  H  H60  1  0.743000  0.724200  0.923100  1
  H  H61  1  0.249000  0.173800  0.011000  1
  H  H62  1  0.751000  0.826200  0.989000  1
  H  H63  1  0.440000  0.005800  0.094000  1
  H  H64  1  0.560000  0.994200  0.906000  1
  H  H65  1  0.295700  0.097100  0.941600  1
  H  H66  1  0.704300  0.902900  0.058400  1
  H  H67  1  0.281000  0.989400  0.881100  1
  H  H68  1  0.719000  0.010600  0.118900  1
  H  H69  1  0.290400  0.823000  0.865000  1
  H  H70  1  0.709600  0.177000  0.135000  1
  H  H71  1  0.309100  0.678200  0.902100  1
  H  H72  1  0.690900  0.321800  0.097900  1
  H  H73  1  0.269700  0.557300  0.948300  1
  H  H74  1  0.730300  0.442700  0.051700  1
  H  H75  1  0.290700  0.412200  0.985000  1
  H  H76  1  0.709300  0.587800  0.015000  1
  H  H77  1  0.393800  0.385300  0.057400  1
  H  H78  1  0.606200  0.614700  0.942600  1
  H  H79  1  0.430800  0.650000  0.065200  1
  H  H80  1  0.569200  0.350000  0.934800  1
  H  H81  1  0.187800  0.289600  0.243700  1
  H  H82  1  0.812200  0.710400  0.756300  1
  H  H83  1  0.004000  0.283100  0.264800  1
  H  H84  1  0.996000  0.716900  0.735200  1
  H  H85  1  0.906300  0.401000  0.302000  1
  H  H86  1  0.093700  0.599000  0.698000  1
  H  H87  1  0.184400  0.539000  0.293200  1
  H  H88  1  0.815600  0.461000  0.706800  1
  H  H89  1  0.845800  0.488300  0.364500  1
  H  H90  1  0.154200  0.511700  0.635500  1
  H  H91  1  0.760100  0.606100  0.405900  1
  H  H92  1  0.239900  0.393900  0.594100  1
  H  H93  1  0.756900  0.772900  0.416500  1
  H  H94  1  0.243100  0.227100  0.583500  1
  H  H95  1  0.844100  0.908700  0.397900  1
  H  H96  1  0.155900  0.091300  0.602100  1
  H  H97  1  0.902100  0.027700  0.352200  1
  H  H98  1  0.097900  0.972300  0.647800  1
  H  H99  1  0.995200  0.162700  0.341100  1
  H  H100  1  0.004800  0.837300  0.658900  1
  H  H101  1  0.181900  0.166300  0.325900  1
  H  H102  1  0.818100  0.833700  0.674100  1
  H  H103  1  0.187900  0.896300  0.324400  1
  H  H104  1  0.812100  0.103700  0.675600  1
  H  H105  1  0.763200  0.822000  0.265300  1
  H  H106  1  0.236800  0.178000  0.734700  1
  H  H107  1  0.828400  0.804100  0.207300  1
  H  H108  1  0.171600  0.195900  0.792700  1
  H  H109  1  0.769700  0.723500  0.245200  1
  H  H110  1  0.230300  0.276500  0.754800  1
  H  H111  1  0.819100  0.743300  0.140300  1
  H  H112  1  0.180900  0.256700  0.859700  1
  H  H113  1  0.752600  0.742500  0.088800  1
  H  H114  1  0.247400  0.257500  0.911200  1
  H  H115  1  0.736100  0.664400  0.137100  1
  H  H116  1  0.263900  0.335600  0.862900  1
  H  H117  1  0.508500  0.747000  0.155200  1
  H  H118  1  0.491500  0.253000  0.844800  1
  H  H119  1  0.569100  0.779600  0.096200  1
  H  H120  1  0.430900  0.220400  0.903800  1
  H  H121  1  0.532900  0.850600  0.139800  1
  H  H122  1  0.467100  0.149400  0.860200  1
  H  H123  1  0.642300  0.651200  0.327800  1
  H  H124  1  0.357700  0.348800  0.672200  1
  H  H125  1  0.565200  0.669300  0.382500  1
  H  H126  1  0.434800  0.330700  0.617500  1
  H  H127  1  0.612000  0.751200  0.341400  1
  H  H128  1  0.388000  0.248800  0.658600  1
  H  H129  1  0.440700  0.747400  0.411900  1
  H  H130  1  0.559300  0.252600  0.588100  1
  H  H131  1  0.322400  0.779000  0.400600  1
  H  H132  1  0.677600  0.221000  0.599400  1
  H  H133  1  0.425100  0.834000  0.371500  1
  H  H134  1  0.574900  0.166000  0.628500  1
  H  H135  1  0.296700  0.776100  0.288500  1
  H  H136  1  0.703300  0.223900  0.711500  1
  H  H137  1  0.240100  0.710900  0.337800  1
  H  H138  1  0.759900  0.289100  0.662200  1
  H  H139  1  0.306400  0.670400  0.285900  1
  H  H140  1  0.693600  0.329600  0.714100  1
  H  H141  1  0.101100  0.667300  0.016500  1
  H  H142  1  0.898900  0.332700  0.983500  1
  H  H143  1  0.987700  0.617600  0.030500  1
  H  H144  1  0.012300  0.382400  0.969500  1
  H  H145  1  0.024700  0.685400  0.071400  1
  H  H146  1  0.975300  0.314600  0.928600  1
  H  H147  1  0.949000  0.882100  0.935000  1
  H  H148  1  0.051000  0.117900  0.065000  1
  H  H149  1  0.053500  0.934200  0.946600  1
  H  H150  1  0.946500  0.065800  0.053400  1
  H  H151  1  0.941800  0.945400  0.984400  1
  H  H152  1  0.058200  0.054600  0.015600  1
  H  H153  1  0.109500  0.802100  0.063300  1
  H  H154  1  0.890500  0.197900  0.936700  1
  H  H155  1  0.015600  0.873500  0.075100  1
  H  H156  1  0.984400  0.126500  0.924900  1
  H  H157  1  0.119600  0.900200  0.032800  1
  H  H158  1  0.880400  0.099800  0.967200  1
  H  H159  1  0.953600  0.077900  0.528600  1
  H  H160  1  0.046400  0.922100  0.471400  1
  H  H161  1  0.060300  0.123300  0.496400  1
  H  H162  1  0.939700  0.876700  0.503600  1
  H  H163  1  0.954600  0.117600  0.466300  1
  H  H164  1  0.045400  0.882400  0.533700  1
  H  H165  1  0.127500  0.233500  0.460400  1
  H  H166  1  0.872500  0.766500  0.539600  1
  H  H167  1  0.128500  0.340100  0.455400  1
  H  H168  1  0.871500  0.659900  0.544600  1
  H  H169  1  0.054400  0.287800  0.420100  1
  H  H170  1  0.945600  0.712200  0.579900  1
  H  H171  1  0.917800  0.364000  0.553000  1
  H  H172  1  0.082200  0.636000  0.447000  1
  H  H173  1  0.934600  0.409800  0.491600  1
  H  H174  1  0.065400  0.590200  0.508400  1
  H  H175  1  0.033300  0.402400  0.527400  1
  H  H176  1  0.966700  0.597600  0.472600  1
  C  C177  1  0.587700  0.006200  0.378630  1
  C  C178  1  0.412300  0.993800  0.621370  1
  C  C179  1  0.613300  0.983400  0.434430  1
  C  C180  1  0.386700  0.016600  0.565570  1
  C  C181  1  0.643700  0.049100  0.464930  1
  C  C182  1  0.356300  0.950900  0.535070  1
  C  C183  1  0.676500  0.028800  0.516640  1
  C  C184  1  0.323500  0.971200  0.483360  1
  C  C185  1  0.672300  0.942000  0.538650  1
  C  C186  1  0.327700  0.058000  0.461350  1
  C  C187  1  0.639000  0.873600  0.509910  1
  C  C188  1  0.361000  0.126400  0.490090  1
  C  C189  1  0.609200  0.894200  0.457840  1
  C  C190  1  0.390800  0.105800  0.542160  1
  C  C191  1  0.633500  0.779000  0.535030  1
  C  C192  1  0.366500  0.221000  0.464970  1
  C  C193  1  0.630300  0.762100  0.592840  1
  C  C194  1  0.369700  0.237900  0.407160  1
  C  C195  1  0.636600  0.676900  0.615020  1
  C  C196  1  0.363400  0.323100  0.384980  1
  C  C197  1  0.641800  0.606600  0.580600  1
  C  C198  1  0.358200  0.393400  0.419400  1
  C  C199  1  0.637400  0.627700  0.523750  1
  C  C200  1  0.362600  0.372300  0.476250  1
  C  C201  1  0.652600  0.515400  0.598850  1
  C  C202  1  0.347400  0.484600  0.401150  1
  C  C203  1  0.660100  0.452800  0.562040  1
  C  C204  1  0.339900  0.547200  0.437960  1
  C  C205  1  0.656700  0.480800  0.505080  1
  C  C206  1  0.343300  0.519200  0.494920  1
  C  C207  1  0.666100  0.413800  0.462960  1
  C  C208  1  0.333900  0.586200  0.537040  1
  C  C209  1  0.721600  0.333300  0.471700  1
  C  C210  1  0.278400  0.666700  0.528300  1
  C  C211  1  0.738800  0.274600  0.430760  1
  C  C212  1  0.261200  0.725400  0.569240  1
  C  C213  1  0.698500  0.290700  0.382000  1
  C  C214  1  0.301500  0.709300  0.618000  1
  C  C215  1  0.640100  0.370700  0.372700  1
  C  C216  1  0.359900  0.629300  0.627300  1
  C  C217  1  0.629000  0.432500  0.412420  1
  C  C218  1  0.371000  0.567500  0.587580  1
  C  C219  1  0.598700  0.394500  0.320020  1
  C  C220  1  0.401300  0.605500  0.679980  1
  C  C221  1  0.752600  0.463200  0.183840  1
  C  C222  1  0.247400  0.536800  0.816160  1
  C  C223  1  0.870400  0.474200  0.163550  1
  C  C224  1  0.129600  0.525800  0.836450  1
  C  C225  1  0.918700  0.408500  0.132790  1
  C  C226  1  0.081300  0.591500  0.867210  1
  C  C227  1  0.025700  0.415300  0.113470  1
  C  C228  1  0.974300  0.584700  0.886530  1
  C  C229  1  0.084600  0.486300  0.125940  1
  C  C230  1  0.915400  0.513700  0.874060  1
  C  C231  1  0.037300  0.552700  0.156350  1
  C  C232  1  0.962700  0.447300  0.843650  1
  C  C233  1  0.927800  0.546300  0.174820  1
  C  C234  1  0.072200  0.453700  0.825180  1
  C  C235  1  0.100500  0.631400  0.167540  1
  C  C236  1  0.899500  0.368600  0.832460  1
  C  C237  1  0.212300  0.620800  0.170130  1
  C  C238  1  0.787700  0.379200  0.829870  1
  C  C239  1  0.270300  0.693800  0.177260  1
  C  C240  1  0.729700  0.306200  0.822740  1
  C  C241  1  0.219300  0.778300  0.180470  1
  C  C242  1  0.780700  0.221700  0.819530  1
  C  C243  1  0.107400  0.781700  0.178590  1
  C  C244  1  0.892600  0.218300  0.821410  1
  C  C245  1  0.272400  0.858300  0.187060  1
  C  C246  1  0.727600  0.141700  0.812940  1
  C  C247  1  0.214500  0.935000  0.189270  1
  C  C248  1  0.785500  0.065000  0.810730  1
  C  C249  1  0.104000  0.932400  0.186360  1
  C  C250  1  0.896000  0.067600  0.813640  1
  C  C251  1  0.039000  0.014500  0.189470  1
  C  C252  1  0.961000  0.985500  0.810530  1
  C  C253  1  0.083600  0.100200  0.174250  1
  C  C254  1  0.916400  0.899800  0.825750  1
  C  C255  1  0.018500  0.175000  0.177990  1
  C  C256  1  0.981500  0.825000  0.822010  1
  C  C257  1  0.910900  0.171000  0.199270  1
  C  C258  1  0.089100  0.829000  0.800730  1
  C  C259  1  0.868000  0.085000  0.214560  1
  C  C260  1  0.132000  0.915000  0.785440  1
  C  C261  1  0.929200  0.009400  0.209260  1
  C  C262  1  0.070800  0.990600  0.790740  1
  C  C263  1  0.750500  0.075600  0.236280  1
  C  C264  1  0.249500  0.924400  0.763720  1
  C  C265  1  0.469200  0.102200  0.175840  1
  C  C266  1  0.530800  0.897800  0.824160  1
  C  C267  1  0.411800  0.122700  0.127520  1
  C  C268  1  0.588200  0.877300  0.872480  1
  C  C269  1  0.359000  0.205700  0.122320  1
  C  C270  1  0.641000  0.794300  0.877680  1
  C  C271  1  0.296400  0.221700  0.079610  1
  C  C272  1  0.703600  0.778300  0.920390  1
  C  C273  1  0.290100  0.160400  0.040610  1
  C  C274  1  0.709900  0.839600  0.959390  1
  C  C275  1  0.345400  0.078100  0.045470  1
  C  C276  1  0.654600  0.921900  0.954530  1
  C  C277  1  0.404100  0.061400  0.089750  1
  C  C278  1  0.595900  0.938600  0.910250  1
  C  C279  1  0.335600  0.010500  0.006020  1
  C  C280  1  0.664400  0.989500  0.993980  1
  C  C281  1  0.307600  0.036100  0.952450  1
  C  C282  1  0.692400  0.963900  0.047550  1
  C  C283  1  0.298000  0.972900  0.917130  1
  C  C284  1  0.702000  0.027100  0.082870  1
  C  C285  1  0.313400  0.882300  0.934220  1
  C  C286  1  0.686600  0.117700  0.065780  1
  C  C287  1  0.343300  0.862200  0.987750  1
  C  C288  1  0.656700  0.137800  0.012250  1
  C  C289  1  0.304800  0.811800  0.901890  1
  C  C290  1  0.695200  0.188200  0.098110  1
  C  C291  1  0.317000  0.727000  0.923350  1
  C  C292  1  0.683000  0.273000  0.076650  1
  C  C293  1  0.341600  0.712500  0.977630  1
  C  C294  1  0.658400  0.287500  0.022370  1
  C  C295  1  0.350800  0.619100  0.002080  1
  C  C296  1  0.649200  0.380900  0.997920  1
  C  C297  1  0.308300  0.546500  0.979110  1
  C  C298  1  0.691700  0.453500  0.020890  1
  C  C299  1  0.321300  0.460400  0.000310  1
  C  C300  1  0.678700  0.539600  0.999690  1
  C  C301  1  0.379700  0.444900  0.044430  1
  C  C302  1  0.620300  0.555100  0.955570  1
  C  C303  1  0.417700  0.513900  0.069720  1
  C  C304  1  0.582300  0.486100  0.930280  1
  C  C305  1  0.403800  0.601900  0.048170  1
  C  C306  1  0.596200  0.398100  0.951830  1
  C  C307  1  0.473400  0.493100  0.120060  1
  C  C308  1  0.526600  0.506900  0.879940  1
  C  C309  1  0.322000  0.422000  0.251630  1
  C  C310  1  0.678000  0.578000  0.748370  1
  C  C311  1  0.207500  0.414900  0.265980  1
  C  C312  1  0.792500  0.585100  0.734020  1
  C  C313  1  0.150300  0.339300  0.258180  1
  C  C314  1  0.849700  0.660700  0.741820  1
  C  C315  1  0.040800  0.335300  0.271060  1
  C  C316  1  0.959200  0.664700  0.728940  1
  C  C317  1  0.982100  0.405400  0.293020  1
  C  C318  1  0.017900  0.594600  0.706980  1
  C  C319  1  0.037300  0.483500  0.301890  1
  C  C320  1  0.962700  0.516500  0.698110  1
  C  C321  1  0.147300  0.486400  0.287850  1
  C  C322  1  0.852700  0.513600  0.712150  1
  C  C323  1  0.978300  0.559600  0.325110  1
  C  C324  1  0.021700  0.440400  0.674890  1
  C  C325  1  0.876900  0.546000  0.358810  1
  C  C326  1  0.123100  0.454000  0.641190  1
  C  C327  1  0.825700  0.615200  0.382450  1
  C  C328  1  0.174300  0.384800  0.617550  1
  C  C329  1  0.870500  0.700400  0.372000  1
  C  C330  1  0.129500  0.299600  0.628000  1
  C  C331  1  0.972300  0.710500  0.338730  1
  C  C332  1  0.027700  0.289500  0.661270  1
  C  C333  1  0.824200  0.776800  0.394040  1
  C  C334  1  0.175800  0.223200  0.605960  1
  C  C335  1  0.875500  0.856700  0.383270  1
  C  C336  1  0.124500  0.143300  0.616730  1
  C  C337  1  0.977300  0.861700  0.349660  1
  C  C338  1  0.022700  0.138300  0.650340  1
  C  C339  1  0.037300  0.947200  0.340060  1
  C  C340  1  0.962700  0.052800  0.659940  1
  C  C341  1  0.978300  0.028400  0.344800  1
  C  C342  1  0.021700  0.971600  0.655200  1
  C  C343  1  0.034200  0.108400  0.338490  1
  C  C344  1  0.965800  0.891600  0.661510  1
  C  C345  1  0.145400  0.110900  0.328490  1
  C  C346  1  0.854600  0.889100  0.671510  1
  C  C347  1  0.204700  0.031200  0.322130  1
  C  C348  1  0.795300  0.968800  0.677870  1
  C  C349  1  0.148800  0.950300  0.328340  1
  C  C350  1  0.851200  0.049700  0.671660  1
  C  C351  1  0.322000  0.033800  0.307850  1
  C  C352  1  0.678000  0.966200  0.692150  1
  C  C353  1  0.765300  0.787000  0.233400  1
  C  C354  1  0.234700  0.213000  0.766600  1
  C  C355  1  0.662000  0.805000  0.205500  1
  C  C356  1  0.338000  0.195000  0.794500  1
  C  C357  1  0.750000  0.728200  0.128500  1
  C  C358  1  0.250000  0.271800  0.871500  1
  C  C359  1  0.560000  0.790000  0.135200  1
  C  C360  1  0.440000  0.210000  0.864800  1
  C  C361  1  0.585500  0.689800  0.343940  1
  C  C362  1  0.414500  0.310200  0.656060  1
  C  C363  1  0.486500  0.686400  0.312530  1
  C  C364  1  0.513500  0.313600  0.687470  1
  C  C365  1  0.397500  0.774400  0.384290  1
  C  C366  1  0.602500  0.225600  0.615710  1
  C  C367  1  0.302900  0.719100  0.310100  1
  C  C368  1  0.697100  0.280900  0.689900  1
  C  C369  1  0.026300  0.673200  0.032800  1
  C  C370  1  0.973700  0.326800  0.967200  1
  C  C371  1  0.979000  0.740300  0.005700  1
  C  C372  1  0.021000  0.259700  0.994300  1
  C  C373  1  0.987600  0.903700  0.963600  1
  C  C374  1  0.012400  0.096300  0.036400  1
  C  C375  1  0.069700  0.851900  0.047000  1
  C  C376  1  0.930300  0.148100  0.953000  1
  C  C377  1  0.981500  0.125500  0.501300  1
  C  C378  1  0.018500  0.874500  0.498700  1
  C  C379  1  0.944200  0.215900  0.521010  1
  C  C380  1  0.055800  0.784100  0.478990  1
  C  C381  1  0.083700  0.287200  0.455300  1
  C  C382  1  0.916300  0.712800  0.544700  1
  C  C383  1  0.968400  0.372700  0.519400  1
  C  C384  1  0.031600  0.627300  0.480600  1
  N  N385  1  0.632400  0.714400  0.501300  1
  N  N386  1  0.367600  0.285600  0.498700  1
  N  N387  1  0.641100  0.563630  0.487190  1
  N  N388  1  0.358900  0.436370  0.512810  1
  N  N389  1  0.049700  0.857700  0.182240  1
  N  N390  1  0.950300  0.142300  0.817760  1
  N  N391  1  0.047400  0.708000  0.171710  1
  N  N392  1  0.952600  0.292000  0.828290  1
  N  N393  1  0.354300  0.927100  0.022980  1
  N  N394  1  0.645700  0.072900  0.977020  1
  N  N395  1  0.356200  0.776750  0.009330  1
  N  N396  1  0.643800  0.223250  0.990670  1
  N  N397  1  0.024200  0.790830  0.327900  1
  N  N398  1  0.975800  0.209170  0.672100  1
  N  N399  1  0.024900  0.639380  0.316080  1
  N  N400  1  0.975100  0.360620  0.683920  1
  N  N401  1  0.664600  0.779300  0.156880  1
  N  N402  1  0.335400  0.220700  0.843120  1
  N  N403  1  0.403500  0.719000  0.337900  1
  N  N404  1  0.596500  0.281000  0.662100  1
  N  N405  1  0.017700  0.822400  0.003300  1
  N  N406  1  0.982300  0.177600  0.996700  1
  N  N407  1  0.997000  0.287600  0.499000  1
  N  N408  1  0.003000  0.712400  0.501000  1
  O  O409  1  0.570700  0.088500  0.363460  1
  O  O410  1  0.429300  0.911500  0.636540  1
  O  O411  1  0.579500  0.944820  0.345750  1
  O  O412  1  0.420500  0.055180  0.654250  1
  O  O413  1  0.586800  0.332610  0.287680  1
  O  O414  1  0.413200  0.667390  0.712320  1
  O  O415  1  0.574700  0.475600  0.308200  1
  O  O416  1  0.425300  0.524400  0.691800  1
  O  O417  1  0.703690  0.388750  0.182570  1
  O  O418  1  0.296310  0.611250  0.817430  1
  O  O419  1  0.698130  0.530290  0.203480  1
  O  O420  1  0.301870  0.469710  0.796520  1
  O  O421  1  0.696290  0.142390  0.254740  1
  O  O422  1  0.303710  0.857610  0.745260  1
  O  O423  1  0.705130  0.999590  0.237160  1
  O  O424  1  0.294870  0.000410  0.762840  1
  O  O425  1  0.487900  0.163190  0.206220  1
  O  O426  1  0.512100  0.836810  0.793780  1
  O  O427  1  0.495200  0.020300  0.187290  1
  O  O428  1  0.504800  0.979700  0.812710  1
  O  O429  1  0.496700  0.410680  0.131920  1
  O  O430  1  0.503300  0.589320  0.868080  1
  O  O431  1  0.489350  0.554000  0.151110  1
  O  O432  1  0.510650  0.446000  0.848890  1
  O  O433  1  0.373590  0.354940  0.236310  1
  O  O434  1  0.626410  0.645060  0.763690  1
  O  O435  1  0.364030  0.496810  0.256660  1
  O  O436  1  0.635970  0.503190  0.743340  1
  O  O437  1  0.362790  0.109320  0.311460  1
  O  O438  1  0.637210  0.890680  0.688540  1
  O  O439  1  0.373500  0.965680  0.293910  1
  O  O440  1  0.626500  0.034320  0.706090  1
  O  O441  1  0.580300  0.842600  0.231680  1
  O  O442  1  0.419700  0.157400  0.768320  1
  O  O443  1  0.492800  0.651400  0.268330  1
  O  O444  1  0.507200  0.348600  0.731670  1
  O  O445  1  0.923100  0.732300  0.965700  1
  O  O446  1  0.076900  0.267700  0.034300  1
  O  O447  1  0.862800  0.217500  0.555070  1
  O  O448  1  0.137200  0.782500  0.444930  1
