# generated using pymatgen
data_Cu2H46C57N3O10
_symmetry_space_group_name_H-M   'P 1'
_cell_length_a   14.98235788
_cell_length_b   14.98235788
_cell_length_c   28.75411843
_cell_angle_alpha   76.81298645
_cell_angle_beta   76.81298645
_cell_angle_gamma   84.37152551
_symmetry_Int_Tables_number   1
_chemical_formula_structural   Cu2H46C57N3O10
_chemical_formula_sum   'Cu8 H184 C228 N12 O40'
_cell_volume   6111.33608632
_cell_formula_units_Z   4
loop_
 _symmetry_equiv_pos_site_id
 _symmetry_equiv_pos_as_xyz
  1  'x, y, z'
loop_
 _atom_site_type_symbol
 _atom_site_label
 _atom_site_symmetry_multiplicity
 _atom_site_fract_x
 _atom_site_fract_y
 _atom_site_fract_z
 _atom_site_occupancy
  C  C1  1  0.009700  0.177100  0.868300  1
  C  C2  1  0.322900  0.490300  0.631700  1
  C  C3  1  0.990300  0.822900  0.131700  1
  C  C4  1  0.677100  0.509700  0.368300  1
  C  C5  1  0.757650  0.222650  0.018550  1.0
  C  C6  1  0.277350  0.742350  0.481450  1.0
  C  C7  1  0.242350  0.777350  0.981450  1.0
  C  C8  1  0.722650  0.257650  0.518550  1.0
  C  C9  1  0.758830  0.173630  0.070070  1.0
  C  C10  1  0.326370  0.741170  0.429930  1.0
  C  C11  1  0.241170  0.826370  0.929930  1.0
  C  C12  1  0.673630  0.258830  0.570070  1.0
  C  C13  1  0.803720  0.088720  0.079880  1.0
  C  C14  1  0.411280  0.696280  0.420120  1.0
  C  C15  1  0.196280  0.911280  0.920120  1.0
  C  C16  1  0.588720  0.303720  0.579880  1.0
  C  C17  1  0.804420  0.044420  0.127080  1.0
  C  C18  1  0.455580  0.695580  0.372920  1.0
  C  C19  1  0.195580  0.955580  0.872920  1.0
  C  C20  1  0.544420  0.304420  0.627080  1.0
  C  C21  1  0.762050  0.084650  0.165550  1.0
  C  C22  1  0.415350  0.737950  0.334450  1.0
  C  C23  1  0.237950  0.915350  0.834450  1.0
  C  C24  1  0.584650  0.262050  0.665550  1.0
  C  C25  1  0.715190  0.170590  0.157410  1.0
  C  C26  1  0.329410  0.784810  0.342590  1.0
  C  C27  1  0.284810  0.829410  0.842590  1.0
  C  C28  1  0.670590  0.215190  0.657410  1.0
  C  C29  1  0.714270  0.213270  0.109430  1.0
  C  C30  1  0.286730  0.785730  0.390570  1.0
  C  C31  1  0.285730  0.786730  0.890570  1.0
  C  C32  1  0.713270  0.214270  0.609430  1.0
  C  C33  1  0.668030  0.213630  0.198570  1.0
  C  C34  1  0.286370  0.831970  0.301430  1.0
  C  C35  1  0.331970  0.786370  0.801430  1.0
  C  C36  1  0.713630  0.168030  0.698570  1.0
  C  C37  1  0.705410  0.201410  0.241290  1.0
  C  C38  1  0.298590  0.794590  0.258710  1.0
  C  C39  1  0.294590  0.798590  0.758710  1.0
  C  C40  1  0.701410  0.205410  0.741290  1.0
  C  C41  1  0.665790  0.245190  0.278510  1.0
  C  C42  1  0.254810  0.834210  0.221490  1.0
  C  C43  1  0.334210  0.754810  0.721490  1.0
  C  C44  1  0.745190  0.165790  0.778510  1.0
  C  C45  1  0.587720  0.304720  0.275680  1.0
  C  C46  1  0.195280  0.912280  0.224320  1.0
  C  C47  1  0.412280  0.695280  0.724320  1.0
  C  C48  1  0.804720  0.087720  0.775680  1.0
  C  C49  1  0.547050  0.355250  0.312550  1.0
  C  C50  1  0.144750  0.952950  0.187450  1.0
  C  C51  1  0.452950  0.644750  0.687450  1.0
  C  C52  1  0.855250  0.047050  0.812550  1.0
  C  C53  1  0.473400  0.414600  0.307400  1.0
  C  C54  1  0.085400  0.026600  0.192600  1.0
  C  C55  1  0.526600  0.585400  0.692600  1.0
  C  C56  1  0.914600  0.973400  0.807400  1.0
  C  C57  1  0.430540  0.423540  0.266060  1.0
  C  C58  1  0.076460  0.069460  0.233940  1.0
  C  C59  1  0.569460  0.576460  0.733940  1.0
  C  C60  1  0.923540  0.930540  0.766060  1.0
  C  C61  1  0.468540  0.375140  0.231260  1.0
  C  C62  1  0.124860  0.031460  0.268740  1.0
  C  C63  1  0.531460  0.624860  0.768740  1.0
  C  C64  1  0.875140  0.968540  0.731260  1.0
  C  C65  1  0.547890  0.315090  0.233810  1.0
  C  C66  1  0.184910  0.952110  0.266190  1.0
  C  C67  1  0.452110  0.684910  0.766190  1.0
  C  C68  1  0.815090  0.047890  0.733810  1.0
  C  C69  1  0.589300  0.268700  0.196500  1.0
  C  C70  1  0.231300  0.910700  0.303500  1.0
  C  C71  1  0.410700  0.731300  0.803500  1.0
  C  C72  1  0.768700  0.089300  0.696500  1.0
  C  C73  1  0.349560  0.487560  0.260740  1.0
  C  C74  1  0.012440  0.150440  0.239260  1.0
  C  C75  1  0.650440  0.512440  0.739260  1.0
  C  C76  1  0.987560  0.849560  0.760740  1.0
  C  C77  1  0.285000  0.507800  0.301900  1.0
  C  C78  1  0.992200  0.215000  0.198100  1.0
  C  C79  1  0.715000  0.492200  0.698100  1.0
  C  C80  1  0.007800  0.785000  0.801900  1.0
  C  C81  1  0.208500  0.567100  0.295600  1.0
  C  C82  1  0.932900  0.291500  0.204400  1.0
  C  C83  1  0.791500  0.432900  0.704400  1.0
  C  C84  1  0.067100  0.708500  0.795600  1.0
  C  C85  1  0.195600  0.608600  0.248700  1.0
  C  C86  1  0.891400  0.304400  0.251300  1.0
  C  C87  1  0.804400  0.391400  0.751300  1.0
  C  C88  1  0.108600  0.695600  0.748700  1.0
  C  C89  1  0.257620  0.587820  0.208880  1.0
  C  C90  1  0.912180  0.242380  0.291120  1.0
  C  C91  1  0.742380  0.412180  0.791120  1.0
  C  C92  1  0.087820  0.757620  0.708880  1.0
  C  C93  1  0.334130  0.529130  0.215470  1.0
  C  C94  1  0.970870  0.165870  0.284530  1.0
  C  C95  1  0.665870  0.470870  0.784530  1.0
  C  C96  1  0.029130  0.834130  0.715470  1.0
  C  C97  1  0.247180  0.631380  0.157320  1.0
  C  C98  1  0.868620  0.252820  0.342680  1.0
  C  C99  1  0.752820  0.368620  0.842680  1.0
  C  C100  1  0.131380  0.747180  0.657320  1.0
  C  C101  1  0.123080  0.597280  0.068420  1.0
  C  C102  1  0.902720  0.376920  0.431580  1.0
  C  C103  1  0.876920  0.402720  0.931580  1.0
  C  C104  1  0.097280  0.623080  0.568420  1.0
  C  C105  1  0.054950  0.532550  0.065950  1.0
  C  C106  1  0.967450  0.445050  0.434050  1.0
  C  C107  1  0.945050  0.467450  0.934050  1.0
  C  C108  1  0.032550  0.554950  0.565950  1.0
  C  C109  1  0.961000  0.557200  0.072900  1.0
  C  C110  1  0.942800  0.539000  0.427100  1.0
  C  C111  1  0.039000  0.442800  0.927100  1.0
  C  C112  1  0.057200  0.461000  0.572900  1.0
  C  C113  1  0.900280  0.496080  0.070320  1.0
  C  C114  1  0.003920  0.599720  0.429680  1.0
  C  C115  1  0.099720  0.503920  0.929680  1.0
  C  C116  1  0.996080  0.400280  0.570320  1.0
  C  C117  1  0.931790  0.409190  0.062010  1.0
  C  C118  1  0.090810  0.568210  0.437990  1.0
  C  C119  1  0.068210  0.590810  0.937990  1.0
  C  C120  1  0.909190  0.431790  0.562010  1.0
  C  C121  1  0.024980  0.383380  0.055220  1.0
  C  C122  1  0.116620  0.475020  0.444780  1.0
  C  C123  1  0.975020  0.616620  0.944780  1.0
  C  C124  1  0.883380  0.524980  0.555220  1.0
  C  C125  1  0.084920  0.446520  0.057680  1.0
  C  C126  1  0.053480  0.415080  0.442320  1.0
  C  C127  1  0.915080  0.553480  0.942320  1.0
  C  C128  1  0.946520  0.584920  0.557680  1.0
  C  C129  1  0.061290  0.291490  0.047310  1.0
  C  C130  1  0.208510  0.438710  0.452690  1.0
  C  C131  1  0.938710  0.708510  0.952690  1.0
  C  C132  1  0.791490  0.561290  0.547310  1.0
  C  C133  1  0.011270  0.211470  0.071130  1.0
  C  C134  1  0.288530  0.488730  0.428870  1.0
  C  C135  1  0.988730  0.788530  0.928870  1.0
  C  C136  1  0.711470  0.511270  0.571130  1.0
  C  C137  1  0.047440  0.127040  0.067860  1.0
  C  C138  1  0.372960  0.452560  0.432140  1.0
  C  C139  1  0.952560  0.872960  0.932140  1.0
  C  C140  1  0.627040  0.547440  0.567860  1.0
  C  C141  1  0.137470  0.113070  0.040830  1.0
  C  C142  1  0.386930  0.362530  0.459170  1.0
  C  C143  1  0.862530  0.886930  0.959170  1.0
  C  C144  1  0.613070  0.637470  0.540830  1.0
  C  C145  1  0.177520  0.026120  0.036980  1.0
  C  C146  1  0.473880  0.322480  0.463020  1.0
  C  C147  1  0.822480  0.973880  0.963020  1.0
  C  C148  1  0.526120  0.677520  0.536980  1.0
  C  C149  1  0.264520  0.016120  0.009680  1.0
  C  C150  1  0.483880  0.235480  0.490320  1.0
  C  C151  1  0.735480  0.983880  0.990320  1.0
  C  C152  1  0.516120  0.764520  0.509680  1.0
  C  C153  1  0.315760  0.092160  0.984940  1.0
  C  C154  1  0.407840  0.184240  0.515060  1.0
  C  C155  1  0.684240  0.907840  0.015060  1.0
  C  C156  1  0.592160  0.815760  0.484940  1.0
  C  C157  1  0.277720  0.178520  0.987780  1.0
  C  C158  1  0.321480  0.222280  0.512220  1.0
  C  C159  1  0.722280  0.821480  0.012220  1.0
  C  C160  1  0.678520  0.777720  0.487780  1.0
  C  C161  1  0.188240  0.192640  0.015460  1.0
  C  C162  1  0.307360  0.311760  0.484540  1.0
  C  C163  1  0.811760  0.807360  0.984540  1.0
  C  C164  1  0.692640  0.688240  0.515460  1.0
  C  C165  1  0.147810  0.278810  0.019290  1.0
  C  C166  1  0.221190  0.352190  0.480710  1.0
  C  C167  1  0.852190  0.721190  0.980710  1.0
  C  C168  1  0.778810  0.647810  0.519290  1.0
  C  C169  1  0.411770  0.077770  0.957230  1.0
  C  C170  1  0.422230  0.088230  0.542770  1.0
  C  C171  1  0.588230  0.922230  0.042770  1.0
  C  C172  1  0.577770  0.911770  0.457230  1.0
  C  C173  1  0.436600  0.004800  0.933600  1.0
  C  C174  1  0.495200  0.063400  0.566400  1.0
  C  C175  1  0.563400  0.995200  0.066400  1.0
  C  C176  1  0.504800  0.936600  0.433600  1.0
  C  C177  1  0.526900  0.989700  0.909400  1.0
  C  C178  1  0.510300  0.973100  0.590600  1.0
  C  C179  1  0.473100  0.010300  0.090600  1.0
  C  C180  1  0.489700  0.026900  0.409400  1.0
  C  C181  1  0.593500  0.048500  0.907800  1.0
  C  C182  1  0.451500  0.906500  0.592200  1.0
  C  C183  1  0.406500  0.951500  0.092200  1.0
  C  C184  1  0.548500  0.093500  0.407800  1.0
  C  C185  1  0.570580  0.122980  0.930420  1.0
  C  C186  1  0.377020  0.929420  0.569580  1.0
  C  C187  1  0.429420  0.877020  0.069580  1.0
  C  C188  1  0.622980  0.070580  0.430420  1.0
  C  C189  1  0.479860  0.137260  0.954640  1.0
  C  C190  1  0.362740  0.020140  0.545360  1.0
  C  C191  1  0.520140  0.862740  0.045360  1.0
  C  C192  1  0.637260  0.979860  0.454640  1.0
  C  C193  1  0.640800  0.188200  0.929600  1.0
  C  C194  1  0.311800  0.859200  0.570400  1.0
  C  C195  1  0.359200  0.811800  0.070400  1.0
  C  C196  1  0.688200  0.140800  0.429600  1.0
  C  C197  1  0.038000  0.142600  0.947600  1.0
  C  C198  1  0.357400  0.462000  0.552400  1.0
  C  C199  1  0.962000  0.857400  0.052400  1.0
  C  C200  1  0.642600  0.538000  0.447600  1.0
  C  C201  1  0.171700  0.215700  0.870600  1.0
  C  C202  1  0.284300  0.328300  0.629400  1.0
  C  C203  1  0.828300  0.784300  0.129400  1.0
  C  C204  1  0.715700  0.671700  0.370600  1.0
  C  C205  1  0.054500  0.213100  0.812900  1.0
  C  C206  1  0.286900  0.445500  0.687100  1.0
  C  C207  1  0.945500  0.786900  0.187100  1.0
  C  C208  1  0.713100  0.554500  0.312900  1.0
  C  C209  1  0.457200  0.357600  0.023000  1.0
  C  C210  1  0.142400  0.042800  0.477000  1.0
  C  C211  1  0.542800  0.642400  0.977000  1.0
  C  C212  1  0.857600  0.957200  0.523000  1.0
  C  C213  1  0.490100  0.422500  0.974600  1.0
  C  C214  1  0.077500  0.009900  0.525400  1.0
  C  C215  1  0.509900  0.577500  0.025400  1.0
  C  C216  1  0.922500  0.990100  0.474600  1.0
  C  C217  1  0.457900  0.538500  0.906100  1.0
  C  C218  1  0.961500  0.042100  0.593900  1.0
  C  C219  1  0.542100  0.461500  0.093900  1.0
  C  C220  1  0.038500  0.957900  0.406100  1.0
  C  C221  1  0.332700  0.465300  0.976900  1.0
  C  C222  1  0.034700  0.167300  0.523100  1.0
  C  C223  1  0.667300  0.534700  0.023100  1.0
  C  C224  1  0.965300  0.832700  0.476900  1.0
  C  C225  1  0.015800  0.162000  0.899600  1.0
  C  C226  1  0.338000  0.484200  0.600400  1.0
  C  C227  1  0.984200  0.838000  0.100400  1.0
  C  C228  1  0.662000  0.515800  0.399600  1.0
  Cu  Cu229  1  0.823213  0.240593  0.913767  1.0
  Cu  Cu230  1  0.259407  0.676787  0.586233  1.0
  Cu  Cu231  1  0.176787  0.759407  0.086233  1.0
  Cu  Cu232  1  0.740593  0.323213  0.413767  1.0
  Cu  Cu233  1  0.692215  0.353475  0.945935  1.0
  Cu  Cu234  1  0.146525  0.807785  0.554065  1.0
  Cu  Cu235  1  0.307785  0.646525  0.054065  1.0
  Cu  Cu236  1  0.853475  0.192215  0.445935  1.0
  H  H237  1  0.834300  0.060900  0.053700  1.0
  H  H238  1  0.439100  0.665700  0.446300  1.0
  H  H239  1  0.165700  0.939100  0.946300  1.0
  H  H240  1  0.560900  0.334300  0.553700  1.0
  H  H241  1  0.834600  0.985400  0.133300  1.0
  H  H242  1  0.514600  0.665400  0.366700  1.0
  H  H243  1  0.165400  0.014600  0.866700  1.0
  H  H244  1  0.485400  0.334600  0.633300  1.0
  H  H245  1  0.764600  0.053800  0.198000  1.0
  H  H246  1  0.446200  0.735400  0.302000  1.0
  H  H247  1  0.235400  0.946200  0.802000  1.0
  H  H248  1  0.553800  0.264600  0.698000  1.0
  H  H249  1  0.682400  0.271200  0.103000  1.0
  H  H250  1  0.228800  0.817600  0.397000  1.0
  H  H251  1  0.317600  0.728800  0.897000  1.0
  H  H252  1  0.771200  0.182400  0.603000  1.0
  H  H253  1  0.758800  0.162200  0.243900  1.0
  H  H254  1  0.337800  0.741200  0.256100  1.0
  H  H255  1  0.241200  0.837800  0.756100  1.0
  H  H256  1  0.662200  0.258800  0.743900  1.0
  H  H257  1  0.691600  0.235000  0.306700  1.0
  H  H258  1  0.265000  0.808400  0.193300  1.0
  H  H259  1  0.308400  0.765000  0.693300  1.0
  H  H260  1  0.735000  0.191600  0.806700  1.0
  H  H261  1  0.571700  0.347300  0.340900  1.0
  H  H262  1  0.152700  0.928300  0.159100  1.0
  H  H263  1  0.428300  0.652700  0.659100  1.0
  H  H264  1  0.847300  0.071700  0.840900  1.0
  H  H265  1  0.449800  0.450400  0.331200  1.0
  H  H266  1  0.049600  0.050200  0.168800  1.0
  H  H267  1  0.550200  0.549600  0.668800  1.0
  H  H268  1  0.950400  0.949800  0.831200  1.0
  H  H269  1  0.441000  0.381600  0.203900  1.0
  H  H270  1  0.118400  0.059000  0.296100  1.0
  H  H271  1  0.559000  0.618400  0.796100  1.0
  H  H272  1  0.881600  0.941000  0.703900  1.0
  H  H273  1  0.562100  0.275500  0.169000  1.0
  H  H274  1  0.224500  0.937900  0.331000  1.0
  H  H275  1  0.437900  0.724500  0.831000  1.0
  H  H276  1  0.775500  0.062100  0.669000  1.0
  H  H277  1  0.293800  0.481000  0.333900  1.0
  H  H278  1  0.019000  0.206200  0.166100  1.0
  H  H279  1  0.706200  0.519000  0.666100  1.0
  H  H280  1  0.981000  0.793800  0.833900  1.0
  H  H281  1  0.164900  0.579300  0.323400  1.0
  H  H282  1  0.920700  0.335100  0.176600  1.0
  H  H283  1  0.835100  0.420700  0.676600  1.0
  H  H284  1  0.079300  0.664900  0.823400  1.0
  H  H285  1  0.144800  0.650600  0.244300  1.0
  H  H286  1  0.849400  0.355200  0.255700  1.0
  H  H287  1  0.855200  0.349400  0.755700  1.0
  H  H288  1  0.150600  0.644800  0.744300  1.0
  H  H289  1  0.377200  0.517600  0.187400  1.0
  H  H290  1  0.982400  0.122800  0.312600  1.0
  H  H291  1  0.622800  0.482400  0.812600  1.0
  H  H292  1  0.017600  0.877200  0.687400  1.0
  H  H293  1  0.939200  0.615800  0.079400  1.0
  H  H294  1  0.884200  0.560800  0.420600  1.0
  H  H295  1  0.060800  0.384200  0.920600  1.0
  H  H296  1  0.115800  0.439200  0.579400  1.0
  H  H297  1  0.836600  0.513200  0.074200  1.0
  H  H298  1  0.986800  0.663400  0.425800  1.0
  H  H299  1  0.163400  0.486800  0.925800  1.0
  H  H300  1  0.013200  0.336600  0.574200  1.0
  H  H301  1  0.889200  0.367000  0.061000  1.0
  H  H302  1  0.133000  0.610800  0.439000  1.0
  H  H303  1  0.110800  0.633000  0.939000  1.0
  H  H304  1  0.867000  0.389200  0.561000  1.0
  H  H305  1  0.148700  0.429700  0.053500  1.0
  H  H306  1  0.070300  0.351300  0.446500  1.0
  H  H307  1  0.851300  0.570300  0.946500  1.0
  H  H308  1  0.929700  0.648700  0.553500  1.0
  H  H309  1  0.950700  0.218100  0.089800  1.0
  H  H310  1  0.281900  0.549300  0.410200  1.0
  H  H311  1  0.049300  0.781900  0.910200  1.0
  H  H312  1  0.718100  0.450700  0.589800  1.0
  H  H313  1  0.011900  0.075300  0.084100  1.0
  H  H314  1  0.424700  0.488100  0.415900  1.0
  H  H315  1  0.988100  0.924700  0.915900  1.0
  H  H316  1  0.575300  0.511900  0.584100  1.0
  H  H317  1  0.144100  0.973100  0.053500  1.0
  H  H318  1  0.526900  0.355900  0.446500  1.0
  H  H319  1  0.855900  0.026900  0.946500  1.0
  H  H320  1  0.473100  0.644100  0.553500  1.0
  H  H321  1  0.290300  0.956300  0.007600  1.0
  H  H322  1  0.543700  0.209700  0.492400  1.0
  H  H323  1  0.709700  0.043700  0.992400  1.0
  H  H324  1  0.456300  0.790300  0.507600  1.0
  H  H325  1  0.312300  0.230300  0.970600  1.0
  H  H326  1  0.269700  0.187700  0.529400  1.0
  H  H327  1  0.687700  0.769700  0.029400  1.0
  H  H328  1  0.730300  0.812300  0.470600  1.0
  H  H329  1  0.181100  0.331500  0.001900  1.0
  H  H330  1  0.168500  0.318900  0.498100  1.0
  H  H331  1  0.818900  0.668500  0.998100  1.0
  H  H332  1  0.831500  0.681100  0.501900  1.0
  H  H333  1  0.391100  0.964500  0.933900  1.0
  H  H334  1  0.535500  0.108900  0.566100  1.0
  H  H335  1  0.608900  0.035500  0.066100  1.0
  H  H336  1  0.464500  0.891100  0.433900  1.0
  H  H337  1  0.542600  0.938800  0.894100  1.0
  H  H338  1  0.561200  0.957400  0.605900  1.0
  H  H339  1  0.457400  0.061200  0.105900  1.0
  H  H340  1  0.438800  0.042600  0.394100  1.0
  H  H341  1  0.654900  0.038100  0.891200  1.0
  H  H342  1  0.461900  0.845100  0.608800  1.0
  H  H343  1  0.345100  0.961900  0.108800  1.0
  H  H344  1  0.538100  0.154900  0.391200  1.0
  H  H345  1  0.464200  0.188600  0.969700  1.0
  H  H346  1  0.311400  0.035800  0.530300  1.0
  H  H347  1  0.535800  0.811400  0.030300  1.0
  H  H348  1  0.688600  0.964200  0.469700  1.0
  H  H349  1  0.086000  0.144800  0.964400  1.0
  H  H350  1  0.355200  0.414000  0.535600  1.0
  H  H351  1  0.914000  0.855200  0.035600  1.0
  H  H352  1  0.644800  0.586000  0.464400  1.0
  H  H353  1  0.985800  0.179800  0.959600  1.0
  H  H354  1  0.320200  0.514200  0.540400  1.0
  H  H355  1  0.014200  0.820200  0.040400  1.0
  H  H356  1  0.679800  0.485800  0.459600  1.0
  H  H357  1  0.020800  0.080400  0.953300  1.0
  H  H358  1  0.419600  0.479200  0.546700  1.0
  H  H359  1  0.979200  0.919600  0.046700  1.0
  H  H360  1  0.580400  0.520800  0.453300  1.0
  H  H361  1  0.173700  0.192100  0.904400  1.0
  H  H362  1  0.307900  0.326300  0.595600  1.0
  H  H363  1  0.826300  0.807900  0.095600  1.0
  H  H364  1  0.692100  0.673700  0.404400  1.0
  H  H365  1  0.222800  0.189600  0.850300  1.0
  H  H366  1  0.310400  0.277200  0.649700  1.0
  H  H367  1  0.777200  0.810400  0.149700  1.0
  H  H368  1  0.689600  0.722800  0.350300  1.0
  H  H369  1  0.174600  0.281200  0.863200  1.0
  H  H370  1  0.218800  0.325400  0.636800  1.0
  H  H371  1  0.825400  0.718800  0.136800  1.0
  H  H372  1  0.781200  0.674600  0.363200  1.0
  H  H373  1  0.995600  0.188000  0.818100  1.0
  H  H374  1  0.312000  0.504400  0.681900  1.0
  H  H375  1  0.004400  0.812000  0.181900  1.0
  H  H376  1  0.688000  0.495600  0.318100  1.0
  H  H377  1  0.049400  0.278400  0.801700  1.0
  H  H378  1  0.221600  0.450600  0.698300  1.0
  H  H379  1  0.950600  0.721600  0.198300  1.0
  H  H380  1  0.778400  0.549400  0.301700  1.0
  H  H381  1  0.097600  0.186800  0.788800  1.0
  H  H382  1  0.313200  0.402400  0.711200  1.0
  H  H383  1  0.902400  0.813200  0.211200  1.0
  H  H384  1  0.686800  0.597600  0.288800  1.0
  H  H385  1  0.507300  0.313500  0.030800  1.0
  H  H386  1  0.186500  0.992700  0.469200  1.0
  H  H387  1  0.492700  0.686500  0.969200  1.0
  H  H388  1  0.813500  0.007300  0.530800  1.0
  H  H389  1  0.405500  0.324300  0.020900  1.0
  H  H390  1  0.175700  0.094500  0.479100  1.0
  H  H391  1  0.594500  0.675700  0.979100  1.0
  H  H392  1  0.824300  0.905500  0.520900  1.0
  H  H393  1  0.437300  0.392700  0.048800  1.0
  H  H394  1  0.107300  0.062700  0.451200  1.0
  H  H395  1  0.562700  0.607300  0.951200  1.0
  H  H396  1  0.892700  0.937300  0.548800  1.0
  H  H397  1  0.525000  0.539000  0.899800  1.0
  H  H398  1  0.961000  0.975000  0.600200  1.0
  H  H399  1  0.475000  0.461000  0.100200  1.0
  H  H400  1  0.039000  0.025000  0.399800  1.0
  H  H401  1  0.431400  0.600400  0.907800  1.0
  H  H402  1  0.899600  0.068600  0.592200  1.0
  H  H403  1  0.568600  0.399600  0.092200  1.0
  H  H404  1  0.100400  0.931400  0.407800  1.0
  H  H405  1  0.439800  0.518400  0.879600  1.0
  H  H406  1  0.981600  0.060200  0.620400  1.0
  H  H407  1  0.560200  0.481600  0.120400  1.0
  H  H408  1  0.018400  0.939800  0.379600  1.0
  H  H409  1  0.301000  0.433400  0.959700  1.0
  H  H410  1  0.066600  0.199000  0.540300  1.0
  H  H411  1  0.699000  0.566600  0.040300  1.0
  H  H412  1  0.933400  0.801000  0.459700  1.0
  H  H413  1  0.301400  0.525200  0.979100  1.0
  H  H414  1  0.974800  0.198600  0.520900  1.0
  H  H415  1  0.698600  0.474800  0.020900  1.0
  H  H416  1  0.025200  0.801400  0.479100  1.0
  H  H417  1  0.332300  0.428700  0.009900  1.0
  H  H418  1  0.071300  0.167700  0.490100  1.0
  H  H419  1  0.667700  0.571300  0.990100  1.0
  H  H420  1  0.928700  0.832300  0.509900  1.0
  N  N421  1  0.072200  0.180200  0.889500  1
  N  N422  1  0.319800  0.427800  0.610500  1
  N  N423  1  0.927800  0.819800  0.110500  1
  N  N424  1  0.680200  0.572200  0.389500  1
  N  N425  1  0.425800  0.478000  0.950600  1.0
  N  N426  1  0.022000  0.074200  0.549400  1.0
  N  N427  1  0.574200  0.522000  0.049400  1.0
  N  N428  1  0.978000  0.925800  0.450600  1.0
  N  N429  1  0.087500  0.191700  0.861600  1.0
  N  N430  1  0.308300  0.412500  0.638400  1.0
  N  N431  1  0.912500  0.808300  0.138400  1.0
  N  N432  1  0.691700  0.587500  0.361600  1.0
  O  O433  1  0.803420  0.185020  0.984490  1.0
  O  O434  1  0.314980  0.696580  0.515510  1.0
  O  O435  1  0.196580  0.814980  0.015510  1.0
  O  O436  1  0.685020  0.303420  0.484490  1.0
  O  O437  1  0.709640  0.296720  0.012380  1.0
  O  O438  1  0.203280  0.790360  0.487620  1.0
  O  O439  1  0.290360  0.703280  0.987620  1.0
  O  O440  1  0.796720  0.209640  0.512380  1.0
  O  O441  1  0.180090  0.686470  0.151990  1.0
  O  O442  1  0.813530  0.319910  0.348010  1.0
  O  O443  1  0.819910  0.313530  0.848010  1.0
  O  O444  1  0.186470  0.680090  0.651990  1.0
  O  O445  1  0.308590  0.607650  0.123480  1.0
  O  O446  1  0.892350  0.191410  0.376520  1.0
  O  O447  1  0.691410  0.392350  0.876520  1.0
  O  O448  1  0.107650  0.808590  0.623480  1.0
  O  O449  1  0.093820  0.675000  0.076850  1.0
  O  O450  1  0.825000  0.406180  0.423150  1.0
  O  O451  1  0.906180  0.325000  0.923150  1.0
  O  O452  1  0.175000  0.593820  0.576850  1.0
  O  O453  1  0.206470  0.568550  0.062260  1.0
  O  O454  1  0.931450  0.293530  0.437740  1.0
  O  O455  1  0.793530  0.431450  0.937740  1.0
  O  O456  1  0.068550  0.706470  0.562260  1.0
  O  O457  1  0.722290  0.171450  0.908420  1.0
  O  O458  1  0.328550  0.777710  0.591580  1.0
  O  O459  1  0.277710  0.828550  0.091580  1.0
  O  O460  1  0.671450  0.222290  0.408420  1.0
  O  O461  1  0.612670  0.253330  0.950450  1.0
  O  O462  1  0.246670  0.887330  0.549550  1.0
  O  O463  1  0.387330  0.746670  0.049550  1.0
  O  O464  1  0.753330  0.112670  0.450450  1.0
  O  O465  1  0.937060  0.150140  0.889420  1.0
  O  O466  1  0.349860  0.562940  0.610580  1.0
  O  O467  1  0.062940  0.849860  0.110580  1.0
  O  O468  1  0.650140  0.437060  0.389420  1.0
  O  O469  1  0.581700  0.448500  0.962500  1.0
  O  O470  1  0.051500  0.918300  0.537500  1.0
  O  O471  1  0.418300  0.551500  0.037500  1.0
  O  O472  1  0.948500  0.081700  0.462500  1.0
