# generated using pymatgen
data_H42PdC36N2(ClO2)2
_symmetry_space_group_name_H-M   'P 1'
_cell_length_a   10.39320000
_cell_length_b   15.74550000
_cell_length_c   21.31550000
_cell_angle_alpha   90.00000000
_cell_angle_beta   90.00000000
_cell_angle_gamma   102.57500000
_symmetry_Int_Tables_number   1
_chemical_formula_structural   H42PdC36N2(ClO2)2
_chemical_formula_sum   'H168 Pd4 C144 N8 Cl8 O16'
_cell_volume   3404.52366055
_cell_formula_units_Z   4
loop_
 _symmetry_equiv_pos_site_id
 _symmetry_equiv_pos_as_xyz
  1  'x, y, z'
loop_
 _atom_site_type_symbol
 _atom_site_label
 _atom_site_symmetry_multiplicity
 _atom_site_fract_x
 _atom_site_fract_y
 _atom_site_fract_z
 _atom_site_occupancy
  H  H1  1  0.878300  0.826300  0.069600  1
  H  H2  1  0.621700  0.173700  0.569600  1
  H  H3  1  0.121700  0.173700  0.930400  1
  H  H4  1  0.378300  0.826300  0.430400  1
  H  H5  1  0.759200  0.803500  0.119200  1
  H  H6  1  0.740800  0.196500  0.619200  1
  H  H7  1  0.240800  0.196500  0.880800  1
  H  H8  1  0.259200  0.803500  0.380800  1
  H  H9  1  0.648700  0.636300  0.019300  1
  H  H10  1  0.851300  0.363700  0.519300  1
  H  H11  1  0.351300  0.363700  0.980700  1
  H  H12  1  0.148700  0.636300  0.480700  1
  H  H13  1  0.711600  0.662900  0.087000  1
  H  H14  1  0.788400  0.337100  0.587000  1
  H  H15  1  0.288400  0.337100  0.913000  1
  H  H16  1  0.211600  0.662900  0.413000  1
  H  H17  1  0.185400  0.641500  0.967700  1
  H  H18  1  0.314600  0.358500  0.467700  1
  H  H19  1  0.814600  0.358500  0.032300  1
  H  H20  1  0.685400  0.641500  0.532300  1
  H  H21  1  0.069500  0.726100  0.907500  1
  H  H22  1  0.430500  0.273900  0.407500  1
  H  H23  1  0.930500  0.273900  0.092500  1
  H  H24  1  0.569500  0.726100  0.592500  1
  H  H25  1  0.863700  0.743200  0.942500  1
  H  H26  1  0.636300  0.256800  0.442500  1
  H  H27  1  0.136300  0.256800  0.057500  1
  H  H28  1  0.363700  0.743200  0.557500  1
  H  H29  1  0.274900  0.465800  0.204600  1
  H  H30  1  0.225100  0.534200  0.704600  1
  H  H31  1  0.725100  0.534200  0.795400  1
  H  H32  1  0.774900  0.465800  0.295400  1
  H  H33  1  0.369200  0.480000  0.104300  1
  H  H34  1  0.130800  0.520000  0.604300  1
  H  H35  1  0.630800  0.520000  0.895700  1
  H  H36  1  0.869200  0.480000  0.395700  1
  H  H37  1  0.272500  0.549900  0.025300  1
  H  H38  1  0.227500  0.450100  0.525300  1
  H  H39  1  0.727500  0.450100  0.974700  1
  H  H40  1  0.772500  0.549900  0.474700  1
  H  H41  1  0.998400  0.448700  0.254300  1
  H  H42  1  0.501600  0.551300  0.754300  1
  H  H43  1  0.001600  0.551300  0.745700  1
  H  H44  1  0.498400  0.448700  0.245700  1
  H  H45  1  0.126800  0.517400  0.277100  1
  H  H46  1  0.373200  0.482600  0.777100  1
  H  H47  1  0.873200  0.482600  0.722900  1
  H  H48  1  0.626800  0.517400  0.222900  1
  H  H49  1  0.099400  0.676400  0.221400  1
  H  H50  1  0.400600  0.323600  0.721400  1
  H  H51  1  0.900600  0.323600  0.778600  1
  H  H52  1  0.599400  0.676400  0.278600  1
  H  H53  1  0.125400  0.657800  0.293800  1
  H  H54  1  0.374600  0.342200  0.793800  1
  H  H55  1  0.874600  0.342200  0.706200  1
  H  H56  1  0.625400  0.657800  0.206200  1
  H  H57  1  0.954500  0.683200  0.373700  1
  H  H58  1  0.545500  0.316800  0.873700  1
  H  H59  1  0.045500  0.316800  0.626300  1
  H  H60  1  0.454500  0.683200  0.126300  1
  H  H61  1  0.817400  0.775000  0.404500  1
  H  H62  1  0.682600  0.225000  0.904500  1
  H  H63  1  0.182600  0.225000  0.595500  1
  H  H64  1  0.317400  0.775000  0.095500  1
  H  H65  1  0.816100  0.863600  0.225300  1
  H  H66  1  0.683900  0.136400  0.725300  1
  H  H67  1  0.183900  0.136400  0.774700  1
  H  H68  1  0.316100  0.863600  0.274700  1
  H  H69  1  0.950600  0.768900  0.195400  1
  H  H70  1  0.549400  0.231100  0.695400  1
  H  H71  1  0.049400  0.231100  0.804600  1
  H  H72  1  0.450600  0.768900  0.304600  1
  H  H73  1  0.636700  0.911600  0.262800  1
  H  H74  1  0.863300  0.088400  0.762800  1
  H  H75  1  0.363300  0.088400  0.737200  1
  H  H76  1  0.136700  0.911600  0.237200  1
  H  H77  1  0.768200  0.981600  0.281100  1
  H  H78  1  0.731800  0.018400  0.781100  1
  H  H79  1  0.231800  0.018400  0.718900  1
  H  H80  1  0.268200  0.981600  0.218900  1
  H  H81  1  0.660300  0.028900  0.367300  1
  H  H82  1  0.839700  0.971100  0.867300  1
  H  H83  1  0.339700  0.971100  0.632700  1
  H  H84  1  0.160300  0.028900  0.132700  1
  H  H85  1  0.530700  0.955000  0.354100  1
  H  H86  1  0.969300  0.045000  0.854100  1
  H  H87  1  0.469300  0.045000  0.645900  1
  H  H88  1  0.030700  0.955000  0.145900  1
  H  H89  1  0.629700  0.096200  0.269800  1
  H  H90  1  0.870300  0.903800  0.769800  1
  H  H91  1  0.370300  0.903800  0.730200  1
  H  H92  1  0.129700  0.096200  0.230200  1
  H  H93  1  0.499900  0.022700  0.257100  1
  H  H94  1  0.000100  0.977300  0.757100  1
  H  H95  1  0.500100  0.977300  0.742900  1
  H  H96  1  0.999900  0.022700  0.242900  1
  H  H97  1  0.527700  0.152000  0.353600  1
  H  H98  1  0.972300  0.848000  0.853600  1
  H  H99  1  0.472300  0.848000  0.646400  1
  H  H100  1  0.027700  0.152000  0.146400  1
  H  H101  1  0.400900  0.073900  0.348200  1
  H  H102  1  0.099100  0.926100  0.848200  1
  H  H103  1  0.599100  0.926100  0.651800  1
  H  H104  1  0.900900  0.073900  0.151800  1
  H  H105  1  0.361600  0.128600  0.245000  1
  H  H106  1  0.138400  0.871400  0.745000  1
  H  H107  1  0.638400  0.871400  0.755000  1
  H  H108  1  0.861600  0.128600  0.255000  1
  H  H109  1  0.338600  0.189400  0.302000  1
  H  H110  1  0.161400  0.810600  0.802000  1
  H  H111  1  0.661400  0.810600  0.698000  1
  H  H112  1  0.838600  0.189400  0.198000  1
  H  H113  1  0.581000  0.225500  0.234200  1
  H  H114  1  0.919000  0.774500  0.734200  1
  H  H115  1  0.419000  0.774500  0.765800  1
  H  H116  1  0.081000  0.225500  0.265800  1
  H  H117  1  0.527900  0.290600  0.280000  1
  H  H118  1  0.972100  0.709400  0.780000  1
  H  H119  1  0.472100  0.709400  0.720000  1
  H  H120  1  0.027900  0.290600  0.220000  1
  H  H121  1  0.496700  0.339200  0.181300  1
  H  H122  1  0.003300  0.660800  0.681300  1
  H  H123  1  0.503300  0.660800  0.818700  1
  H  H124  1  0.996700  0.339200  0.318700  1
  H  H125  1  0.352900  0.292400  0.204800  1
  H  H126  1  0.147100  0.707600  0.704800  1
  H  H127  1  0.647100  0.707600  0.795200  1
  H  H128  1  0.852900  0.292400  0.295200  1
  H  H129  1  0.362100  0.168400  0.142700  1
  H  H130  1  0.137900  0.831600  0.642700  1
  H  H131  1  0.637900  0.831600  0.857300  1
  H  H132  1  0.862100  0.168400  0.357300  1
  H  H133  1  0.376800  0.253700  0.100200  1
  H  H134  1  0.123200  0.746300  0.600200  1
  H  H135  1  0.623200  0.746300  0.899800  1
  H  H136  1  0.876800  0.253700  0.399800  1
  H  H137  1  0.614800  0.265800  0.102700  1
  H  H138  1  0.885200  0.734200  0.602700  1
  H  H139  1  0.385200  0.734200  0.897300  1
  H  H140  1  0.114800  0.265800  0.397300  1
  H  H141  1  0.587100  0.172000  0.135400  1
  H  H142  1  0.912900  0.828000  0.635400  1
  H  H143  1  0.412900  0.828000  0.864600  1
  H  H144  1  0.087100  0.172000  0.364600  1
  H  H145  1  0.461500  0.112600  0.045100  1
  H  H146  1  0.038500  0.887400  0.545100  1
  H  H147  1  0.538500  0.887400  0.954900  1
  H  H148  1  0.961500  0.112600  0.454900  1
  H  H149  1  0.500400  0.206100  0.012300  1
  H  H150  1  0.999600  0.793900  0.512300  1
  H  H151  1  0.499600  0.793900  0.987700  1
  H  H152  1  0.000400  0.206100  0.487700  1
  H  H153  1  0.829500  0.081800  0.973300  1
  H  H154  1  0.670500  0.918200  0.473300  1
  H  H155  1  0.170500  0.918200  0.026700  1
  H  H156  1  0.329500  0.081800  0.526700  1
  H  H157  1  0.888700  0.951300  0.996200  1
  H  H158  1  0.611300  0.048700  0.496200  1
  H  H159  1  0.111300  0.048700  0.003800  1
  H  H160  1  0.388700  0.951300  0.503800  1
  H  H161  1  0.603200  0.898300  0.128000  1
  H  H162  1  0.896800  0.101700  0.628000  1
  H  H163  1  0.396800  0.101700  0.872000  1
  H  H164  1  0.103200  0.898300  0.372000  1
  H  H165  1  0.540200  0.028600  0.104600  1
  H  H166  1  0.959800  0.971400  0.604600  1
  H  H167  1  0.459800  0.971400  0.895400  1
  H  H168  1  0.040200  0.028600  0.395400  1
  Pd  Pd169  1  0.847177  0.516863  0.117127  1
  Pd  Pd170  1  0.652823  0.483137  0.617127  1
  Pd  Pd171  1  0.152823  0.483137  0.882873  1
  Pd  Pd172  1  0.347177  0.516863  0.382873  1
  C  C173  1  0.782900  0.823100  0.075720  1
  C  C174  1  0.717100  0.176900  0.575720  1
  C  C175  1  0.217100  0.176900  0.924280  1
  C  C176  1  0.282900  0.823100  0.424280  1
  C  C177  1  0.720500  0.676600  0.041660  1
  C  C178  1  0.779500  0.323400  0.541660  1
  C  C179  1  0.279500  0.323400  0.958340  1
  C  C180  1  0.220500  0.676600  0.458340  1
  C  C181  1  0.853000  0.663210  0.018380  1
  C  C182  1  0.647000  0.336790  0.518380  1
  C  C183  1  0.147000  0.336790  0.981620  1
  C  C184  1  0.353000  0.663210  0.481620  1
  C  C185  1  0.039900  0.604780  0.032680  1
  C  C186  1  0.460100  0.395220  0.532680  1
  C  C187  1  0.960100  0.395220  0.967320  1
  C  C188  1  0.539900  0.604780  0.467320  1
  C  C189  1  0.099700  0.647080  0.979810  1
  C  C190  1  0.400300  0.352920  0.479810  1
  C  C191  1  0.900300  0.352920  0.020190  1
  C  C192  1  0.599700  0.647080  0.520190  1
  C  C193  1  0.032000  0.698000  0.944710  1
  C  C194  1  0.468000  0.302000  0.444710  1
  C  C195  1  0.968000  0.302000  0.055290  1
  C  C196  1  0.532000  0.698000  0.555290  1
  C  C197  1  0.909600  0.707000  0.965020  1
  C  C198  1  0.590400  0.293000  0.465020  1
  C  C199  1  0.090400  0.293000  0.034980  1
  C  C200  1  0.409600  0.707000  0.534980  1
  C  C201  1  0.108800  0.556680  0.076290  1
  C  C202  1  0.391200  0.443320  0.576290  1
  C  C203  1  0.891200  0.443320  0.923710  1
  C  C204  1  0.608800  0.556680  0.423710  1
  C  C205  1  0.110700  0.509470  0.180590  1
  C  C206  1  0.389300  0.490530  0.680590  1
  C  C207  1  0.889300  0.490530  0.819410  1
  C  C208  1  0.610700  0.509470  0.319410  1
  C  C209  1  0.231900  0.487900  0.170990  1
  C  C210  1  0.268100  0.512100  0.670990  1
  C  C211  1  0.768100  0.512100  0.829010  1
  C  C212  1  0.731900  0.487900  0.329010  1
  C  C213  1  0.289800  0.498700  0.112130  1
  C  C214  1  0.210200  0.501300  0.612130  1
  C  C215  1  0.710200  0.501300  0.887870  1
  C  C216  1  0.789800  0.498700  0.387870  1
  C  C217  1  0.230500  0.537100  0.064810  1
  C  C218  1  0.269500  0.462900  0.564810  1
  C  C219  1  0.769500  0.462900  0.935190  1
  C  C220  1  0.730500  0.537100  0.435190  1
  C  C221  1  0.053700  0.507280  0.246290  1
  C  C222  1  0.446300  0.492720  0.746290  1
  C  C223  1  0.946300  0.492720  0.753710  1
  C  C224  1  0.553700  0.507280  0.253710  1
  C  C225  1  0.056100  0.656990  0.261820  1
  C  C226  1  0.443900  0.343010  0.761820  1
  C  C227  1  0.943900  0.343010  0.738180  1
  C  C228  1  0.556100  0.656990  0.238180  1
  C  C229  1  0.967600  0.716940  0.281280  1
  C  C230  1  0.532400  0.283060  0.781280  1
  C  C231  1  0.032400  0.283060  0.718720  1
  C  C232  1  0.467600  0.716940  0.218720  1
  C  C233  1  0.926400  0.719600  0.343440  1
  C  C234  1  0.573600  0.280400  0.843440  1
  C  C235  1  0.073600  0.280400  0.656560  1
  C  C236  1  0.426400  0.719600  0.156560  1
  C  C237  1  0.844900  0.774600  0.361980  1
  C  C238  1  0.655100  0.225400  0.861980  1
  C  C239  1  0.155100  0.225400  0.638020  1
  C  C240  1  0.344900  0.774600  0.138020  1
  C  C241  1  0.803700  0.829110  0.318110  1
  C  C242  1  0.696300  0.170890  0.818110  1
  C  C243  1  0.196300  0.170890  0.681890  1
  C  C244  1  0.303700  0.829110  0.181890  1
  C  C245  1  0.843600  0.827030  0.255600  1
  C  C246  1  0.656400  0.172970  0.755600  1
  C  C247  1  0.156400  0.172970  0.744400  1
  C  C248  1  0.343600  0.827030  0.244400  1
  C  C249  1  0.924600  0.770540  0.238040  1
  C  C250  1  0.575400  0.229460  0.738040  1
  C  C251  1  0.075400  0.229460  0.761960  1
  C  C252  1  0.424600  0.770540  0.261960  1
  C  C253  1  0.688200  0.942500  0.298200  1
  C  C254  1  0.811800  0.057500  0.798200  1
  C  C255  1  0.311800  0.057500  0.701800  1
  C  C256  1  0.188200  0.942500  0.201800  1
  C  C257  1  0.606000  0.995000  0.333870  1
  C  C258  1  0.894000  0.005000  0.833870  1
  C  C259  1  0.394000  0.005000  0.666130  1
  C  C260  1  0.106000  0.995000  0.166130  1
  C  C261  1  0.554000  0.057100  0.290330  1
  C  C262  1  0.946000  0.942900  0.790330  1
  C  C263  1  0.446000  0.942900  0.709670  1
  C  C264  1  0.054000  0.057100  0.209670  1
  C  C265  1  0.470900  0.112600  0.323720  1
  C  C266  1  0.029100  0.887400  0.823720  1
  C  C267  1  0.529100  0.887400  0.676280  1
  C  C268  1  0.970900  0.112600  0.176280  1
  C  C269  1  0.406800  0.167200  0.278690  1
  C  C270  1  0.093200  0.832800  0.778690  1
  C  C271  1  0.593200  0.832800  0.721310  1
  C  C272  1  0.906800  0.167200  0.221310  1
  C  C273  1  0.500800  0.244310  0.248250  1
  C  C274  1  0.999200  0.755690  0.748250  1
  C  C275  1  0.499200  0.755690  0.751750  1
  C  C276  1  0.000800  0.244310  0.251750  1
  C  C277  1  0.439800  0.282100  0.192010  1
  C  C278  1  0.060200  0.717900  0.692010  1
  C  C279  1  0.560200  0.717900  0.807990  1
  C  C280  1  0.939800  0.282100  0.307990  1
  C  C281  1  0.420800  0.225200  0.132720  1
  C  C282  1  0.079200  0.774800  0.632720  1
  C  C283  1  0.579200  0.774800  0.867280  1
  C  C284  1  0.920800  0.225200  0.367280  1
  C  C285  1  0.550400  0.209600  0.106190  1
  C  C286  1  0.949600  0.790400  0.606190  1
  C  C287  1  0.449600  0.790400  0.893810  1
  C  C288  1  0.050400  0.209600  0.393810  1
  C  C289  1  0.531000  0.166500  0.042150  1
  C  C290  1  0.969000  0.833500  0.542150  1
  C  C291  1  0.469000  0.833500  0.957850  1
  C  C292  1  0.031000  0.166500  0.457850  1
  C  C293  1  0.678900  0.068300  0.036690  1
  C  C294  1  0.821100  0.931700  0.536690  1
  C  C295  1  0.321100  0.931700  0.963310  1
  C  C296  1  0.178900  0.068300  0.463310  1
  C  C297  1  0.782900  0.044500  0.004680  1
  C  C298  1  0.717100  0.955500  0.504680  1
  C  C299  1  0.217100  0.955500  0.995320  1
  C  C300  1  0.282900  0.044500  0.495320  1
  C  C301  1  0.818100  0.966900  0.018470  1
  C  C302  1  0.681900  0.033100  0.518470  1
  C  C303  1  0.181900  0.033100  0.981530  1
  C  C304  1  0.318100  0.966900  0.481530  1
  C  C305  1  0.752000  0.910800  0.064600  1
  C  C306  1  0.748000  0.089200  0.564600  1
  C  C307  1  0.248000  0.089200  0.935400  1
  C  C308  1  0.252000  0.910800  0.435400  1
  C  C309  1  0.649000  0.935400  0.096320  1
  C  C310  1  0.851000  0.064600  0.596320  1
  C  C311  1  0.351000  0.064600  0.903680  1
  C  C312  1  0.149000  0.935400  0.403680  1
  C  C313  1  0.611400  0.013200  0.082680  1
  C  C314  1  0.888600  0.986800  0.582680  1
  C  C315  1  0.388600  0.986800  0.917320  1
  C  C316  1  0.111400  0.013200  0.417320  1
  N  N317  1  0.915400  0.611040  0.050950  1
  N  N318  1  0.584600  0.388960  0.550950  1
  N  N319  1  0.084600  0.388960  0.949050  1
  N  N320  1  0.415400  0.611040  0.449050  1
  N  N321  1  0.045600  0.536500  0.132450  1
  N  N322  1  0.454400  0.463500  0.632450  1
  N  N323  1  0.954400  0.463500  0.867550  1
  N  N324  1  0.545600  0.536500  0.367550  1
  Cl  Cl325  1  0.630590  0.481820  0.084600  1
  Cl  Cl326  1  0.869410  0.518180  0.584600  1
  Cl  Cl327  1  0.369410  0.518180  0.915400  1
  Cl  Cl328  1  0.130590  0.481820  0.415400  1
  Cl  Cl329  1  0.798010  0.394180  0.178120  1
  Cl  Cl330  1  0.701990  0.605820  0.678120  1
  Cl  Cl331  1  0.201990  0.605820  0.821880  1
  Cl  Cl332  1  0.298010  0.394180  0.321880  1
  O  O333  1  0.707700  0.763680  0.031740  1
  O  O334  1  0.792300  0.236320  0.531740  1
  O  O335  1  0.292300  0.236320  0.968260  1
  O  O336  1  0.207700  0.763680  0.468260  1
  O  O337  1  0.976330  0.570550  0.255650  1
  O  O338  1  0.523670  0.429450  0.755650  1
  O  O339  1  0.023670  0.429450  0.744350  1
  O  O340  1  0.476330  0.570550  0.244350  1
  O  O341  1  0.724500  0.880950  0.340710  1
  O  O342  1  0.775500  0.119050  0.840710  1
  O  O343  1  0.275500  0.119050  0.659290  1
  O  O344  1  0.224500  0.880950  0.159290  1
  O  O345  1  0.650200  0.145420  0.018220  1
  O  O346  1  0.849800  0.854580  0.518220  1
  O  O347  1  0.349800  0.854580  0.981780  1
  O  O348  1  0.150200  0.145420  0.481780  1
