# generated using pymatgen
data_PdC13N4Cl2O11
_symmetry_space_group_name_H-M   'P 1'
_cell_length_a   10.06400000
_cell_length_b   10.07000000
_cell_length_c   12.16300000
_cell_angle_alpha   96.82000000
_cell_angle_beta   108.73000000
_cell_angle_gamma   108.11000000
_symmetry_Int_Tables_number   1
_chemical_formula_structural   PdC13N4Cl2O11
_chemical_formula_sum   'Pd2 C26 N8 Cl4 O22'
_cell_volume   1076.33853802
_cell_formula_units_Z   2
loop_
 _symmetry_equiv_pos_site_id
 _symmetry_equiv_pos_as_xyz
  1  'x, y, z'
loop_
 _atom_site_type_symbol
 _atom_site_label
 _atom_site_symmetry_multiplicity
 _atom_site_fract_x
 _atom_site_fract_y
 _atom_site_fract_z
 _atom_site_occupancy
  Pd  Pd1  1  0.507400  0.227000  0.708200  1.0
  Pd  Pd2  1  0.492600  0.773000  0.291800  1.0
  C  C3  1  0.803500  0.421600  0.723700  1.0
  C  C4  1  0.196500  0.578400  0.276300  1.0
  C  C5  1  0.921100  0.549100  0.743900  1.0
  C  C6  1  0.078900  0.450900  0.256100  1.0
  C  C7  1  0.911000  0.678000  0.785400  1.0
  C  C8  1  0.089000  0.322000  0.214600  1.0
  C  C9  1  0.782300  0.674500  0.805700  1.0
  C  C10  1  0.217700  0.325500  0.194300  1.0
  C  C11  1  0.668400  0.542100  0.783500  1.0
  C  C12  1  0.331600  0.457900  0.216500  1.0
  C  C13  1  0.043200  0.819900  0.812500  1.0
  C  C14  1  0.956800  0.180100  0.187500  1.0
  C  C15  1  0.167500  0.828900  0.929400  1.0
  C  C16  1  0.832500  0.171100  0.070600  1.0
  C  C17  1  0.276500  0.772900  0.928400  1.0
  C  C18  1  0.723500  0.227100  0.071600  1.0
  C  C19  1  0.374800  0.765700  0.035100  1.0
  C  C20  1  0.625200  0.234300  0.964900  1.0
  C  C21  1  0.732600  0.127100  0.858500  1.0
  C  C22  1  0.267400  0.872900  0.141500  1.0
  C  C23  1  0.165100  0.882100  0.038100  1.0
  C  C24  1  0.834900  0.117900  0.961900  1.0
  C  C25  1  0.207600  0.026500  0.553100  1.0
  C  C26  1  0.792400  0.973500  0.446900  1.0
  C  C27  1  0.274700  0.108800  0.476400  1.0
  C  C28  1  0.725300  0.891200  0.523600  1.0
  N  N29  1  0.678400  0.418500  0.743300  1.0
  N  N30  1  0.321600  0.581500  0.256700  1.0
  N  N31  1  0.631400  0.186800  0.859900  1.0
  N  N32  1  0.368600  0.813200  0.140100  1.0
  N  N33  1  0.333400  0.035700  0.662700  1.0
  N  N34  1  0.666600  0.964300  0.337300  1.0
  N  N35  1  0.378000  0.254600  0.552600  1.0
  N  N36  1  0.622000  0.745400  0.447400  1.0
  Cl  Cl37  1  0.632200  0.313400  0.390200  1
  Cl  Cl38  1  0.367800  0.686600  0.609800  1
  Cl  Cl39  1  0.805900  0.694200  0.172400  1
  Cl  Cl40  1  0.194100  0.305800  0.827600  1
  O  O41  1  0.608600  0.200600  0.452500  1
  O  O42  1  0.391400  0.799400  0.547500  1
  O  O43  1  0.787800  0.375200  0.414100  1
  O  O44  1  0.212200  0.624800  0.585900  1
  O  O45  1  0.550200  0.251900  0.266800  1
  O  O46  1  0.449800  0.748100  0.733200  1
  O  O47  1  0.580900  0.418100  0.435000  1
  O  O48  1  0.419100  0.581900  0.565000  1
  O  O49  1  0.689800  0.611500  0.205400  1
  O  O50  1  0.310200  0.388500  0.794600  1
  O  O51  1  0.946200  0.753800  0.277000  1
  O  O52  1  0.053800  0.246200  0.723000  1
  O  O53  1  0.830100  0.612800  0.085900  1
  O  O54  1  0.169900  0.387200  0.914100  1
  O  O55  1  0.768100  0.809700  0.132300  1
  O  O56  1  0.231900  0.190300  0.867700  1
  O  O57  1  0.904800  0.680800  0.492800  1
  O  O58  1  0.095200  0.319200  0.507200  1
  O  O59  1  0.988500  0.931200  0.823700  1.0
  O  O60  1  0.011500  0.068800  0.176300  1.0
  O  O61  1  0.105000  0.824400  0.724600  1.0
  O  O62  1  0.895000  0.175600  0.275400  1.0
