# generated using pymatgen
data_Cr6H89C105N13O34
_symmetry_space_group_name_H-M   'P 1'
_cell_length_a   21.40770000
_cell_length_b   21.97860000
_cell_length_c   22.02590000
_cell_angle_alpha   115.22100000
_cell_angle_beta   116.92800000
_cell_angle_gamma   90.43800000
_symmetry_Int_Tables_number   1
_chemical_formula_structural   Cr6H89C105N13O34
_chemical_formula_sum   'Cr12 H178 C210 N26 O68'
_cell_volume   8096.28371856
_cell_formula_units_Z   2
loop_
 _symmetry_equiv_pos_site_id
 _symmetry_equiv_pos_as_xyz
  1  'x, y, z'
loop_
 _atom_site_type_symbol
 _atom_site_label
 _atom_site_symmetry_multiplicity
 _atom_site_fract_x
 _atom_site_fract_y
 _atom_site_fract_z
 _atom_site_occupancy
  Cr  Cr1  1  0.215450  0.212150  0.854730  1.0
  Cr  Cr2  1  0.784550  0.787850  0.145270  1.0
  Cr  Cr3  1  0.116770  0.118460  0.792500  1.0
  Cr  Cr4  1  0.883230  0.881540  0.207500  1.0
  Cr  Cr5  1  0.294540  0.606950  0.716410  1.0
  Cr  Cr6  1  0.705460  0.393050  0.283590  1.0
  Cr  Cr7  1  0.218740  0.626230  0.611510  1.0
  Cr  Cr8  1  0.781260  0.373770  0.388490  1.0
  Cr  Cr9  1  0.640890  0.276050  0.770590  1.0
  Cr  Cr10  1  0.359110  0.723950  0.229410  1.0
  Cr  Cr11  1  0.681180  0.203740  0.688870  1.0
  Cr  Cr12  1  0.318820  0.796260  0.311130  1.0
  H  H13  1  0.782432  0.370538  0.991689  1
  H  H14  1  0.217568  0.629462  0.008311  1
  H  H15  1  0.669925  0.397089  0.046919  1
  H  H16  1  0.330075  0.602911  0.953081  1
  H  H17  1  0.690246  0.333275  0.062582  1
  H  H18  1  0.309754  0.666725  0.937418  1
  H  H19  1  0.681773  0.332518  0.986231  1
  H  H20  1  0.318227  0.667482  0.013769  1
  H  H21  1  0.783472  0.468414  0.182571  1
  H  H22  1  0.216528  0.531586  0.817429  1
  H  H23  1  0.859303  0.455891  0.189093  1
  H  H24  1  0.140697  0.544109  0.810907  1
  H  H25  1  0.807350  0.400632  0.186100  1
  H  H26  1  0.192650  0.599368  0.813900  1
  H  H27  1  0.756474  0.189737  0.311104  1
  H  H28  1  0.243526  0.810263  0.688896  1
  H  H29  1  0.661751  0.114767  0.120630  1
  H  H30  1  0.338249  0.885233  0.879370  1
  H  H31  1  0.659084  0.160459  0.198255  1
  H  H32  1  0.340916  0.839541  0.801745  1
  H  H33  1  0.628806  0.077879  0.152316  1
  H  H34  1  0.371194  0.922121  0.847684  1
  H  H35  1  0.727406  0.010172  0.143842  1
  H  H36  1  0.272594  0.989828  0.856158  1
  H  H37  1  0.808512  0.051553  0.212945  1
  H  H38  1  0.191488  0.948447  0.787055  1
  H  H39  1  0.773092  0.064623  0.139528  1
  H  H40  1  0.226908  0.935377  0.860472  1
  H  H41  1  0.266105  0.729585  0.392965  1
  H  H42  1  0.733895  0.270415  0.607035  1
  H  H43  1  0.242775  0.563548  0.334686  1
  H  H44  1  0.757225  0.436452  0.665314  1
  H  H45  1  0.323883  0.591734  0.358259  1
  H  H46  1  0.676117  0.408266  0.641741  1
  H  H47  1  0.259980  0.620344  0.313415  1
  H  H48  1  0.740020  0.379656  0.686585  1
  H  H49  1  0.280672  0.604843  0.475326  1
  H  H50  1  0.719328  0.395157  0.524674  1
  H  H51  1  0.322740  0.684663  0.535828  1
  H  H52  1  0.677260  0.315337  0.464172  1
  H  H53  1  0.362498  0.631387  0.499774  1
  H  H54  1  0.637502  0.368613  0.500226  1
  H  H55  1  0.675963  0.040102  0.731494  1
  H  H56  1  0.324037  0.959898  0.268506  1
  H  H57  1  0.675679  0.971435  0.563695  1
  H  H58  1  0.324321  0.028565  0.436305  1
  H  H59  1  0.710930  0.035748  0.653025  1
  H  H60  1  0.289070  0.964252  0.346975  1
  H  H61  1  0.602608  0.865112  0.525568  1
  H  H62  1  0.397392  0.134888  0.474432  1
  H  H63  1  0.589087  0.858681  0.590664  1
  H  H64  1  0.410913  0.141319  0.409336  1
  H  H65  1  0.943605  0.432900  0.048315  1.0
  H  H66  1  0.056395  0.567100  0.951685  1.0
  H  H67  1  0.914385  0.238490  0.424635  1.0
  H  H68  1  0.085615  0.761510  0.575365  1.0
  H  H69  1  0.327950  0.868887  0.541775  1.0
  H  H70  1  0.672050  0.131113  0.458225  1.0
  H  H71  1  0.613270  0.940811  0.796010  1.0
  H  H72  1  0.386730  0.059189  0.203990  1.0
  H  H73  1  0.377688  0.314882  0.340190  1.0
  H  H74  1  0.622312  0.685118  0.659810  1.0
  H  H75  1  0.931006  0.104539  0.071180  1.0
  H  H76  1  0.068994  0.895461  0.928820  1.0
  H  H77  1  0.150128  0.381033  0.990048  1.0
  H  H78  1  0.849872  0.618967  0.009952  1.0
  H  H79  1  0.976789  0.222114  0.884945  1.0
  H  H80  1  0.023211  0.777886  0.115055  1.0
  H  H81  1  0.922586  0.295730  0.946724  1.0
  H  H82  1  0.077414  0.704270  0.053276  1.0
  H  H83  1  0.192683  0.524747  0.095799  1.0
  H  H84  1  0.807317  0.475253  0.904201  1.0
  H  H85  1  0.108696  0.659907  0.213421  1.0
  H  H86  1  0.891304  0.340093  0.786579  1.0
  H  H87  1  0.003567  0.574073  0.150700  1.0
  H  H88  1  0.996433  0.425927  0.849300  1.0
  H  H89  1  0.133077  0.305023  0.694388  1.0
  H  H90  1  0.866923  0.694977  0.305612  1.0
  H  H91  1  0.979142  0.126873  0.581563  1.0
  H  H92  1  0.020858  0.873127  0.418437  1.0
  H  H93  1  0.913739  0.145652  0.476526  1.0
  H  H94  1  0.086261  0.854348  0.523474  1.0
  H  H95  1  0.151047  0.417914  0.659857  1.0
  H  H96  1  0.848953  0.582086  0.340143  1.0
  H  H97  1  0.034173  0.454683  0.479274  1.0
  H  H98  1  0.965827  0.545317  0.520726  1.0
  H  H99  1  0.947943  0.351246  0.412602  1.0
  H  H100  1  0.052057  0.648754  0.587398  1.0
  H  H101  1  0.337806  0.113391  0.734858  1.0
  H  H102  1  0.662194  0.886609  0.265142  1.0
  H  H103  1  0.183763  0.949350  0.661473  1.0
  H  H104  1  0.816237  0.050650  0.338527  1.0
  H  H105  1  0.228332  0.871938  0.588825  1.0
  H  H106  1  0.771668  0.128062  0.411175  1.0
  H  H107  1  0.452472  0.129831  0.704581  1.0
  H  H108  1  0.547528  0.870169  0.295419  1.0
  H  H109  1  0.521937  0.003321  0.563581  1.0
  H  H110  1  0.478063  0.996679  0.436419  1.0
  H  H111  1  0.436455  0.906770  0.520661  1.0
  H  H112  1  0.563545  0.093230  0.479339  1.0
  H  H113  1  0.492690  0.760530  0.826880  1.0
  H  H114  1  0.507310  0.239470  0.173120  1.0
  H  H115  1  0.370046  0.796061  0.646618  1.0
  H  H116  1  0.629954  0.203939  0.353382  1.0
  H  H117  1  0.468366  0.877789  0.683602  1.0
  H  H118  1  0.531634  0.122211  0.316398  1.0
  H  H119  1  0.635558  0.812817  0.950810  1.0
  H  H120  1  0.364442  0.187183  0.049190  1.0
  H  H121  1  0.810476  0.960067  0.032644  1.0
  H  H122  1  0.189524  0.039933  0.967356  1.0
  H  H123  1  0.748706  0.981438  0.928414  1.0
  H  H124  1  0.251294  0.018562  0.071586  1.0
  H  H125  1  0.392820  0.447070  0.606044  1.0
  H  H126  1  0.607180  0.552930  0.393956  1.0
  H  H127  1  0.255739  0.482989  0.430921  1.0
  H  H128  1  0.744261  0.517011  0.569079  1.0
  H  H129  1  0.287194  0.402357  0.345587  1.0
  H  H130  1  0.712806  0.597643  0.654413  1.0
  H  H131  1  0.491088  0.357085  0.621587  1.0
  H  H132  1  0.508912  0.642915  0.378413  1.0
  H  H133  1  0.558889  0.224995  0.481300  1.0
  H  H134  1  0.441111  0.775005  0.518700  1.0
  H  H135  1  0.480041  0.242710  0.378953  1.0
  H  H136  1  0.519959  0.757290  0.621047  1.0
  H  H137  1  0.751919  0.238739  0.968817  1.0
  H  H138  1  0.248081  0.761261  0.031183  1.0
  H  H139  1  0.829924  0.118333  0.833688  1.0
  H  H140  1  0.170076  0.881667  0.166312  1.0
  H  H141  1  0.897774  0.084133  0.925341  1.0
  H  H142  1  0.102226  0.915867  0.074659  1.0
  H  H143  1  0.767874  0.269964  0.114230  1.0
  H  H144  1  0.232126  0.730036  0.885770  1.0
  H  H145  1  0.892600  0.227850  0.287433  1.0
  H  H146  1  0.107400  0.772150  0.712567  1.0
  H  H147  1  0.939606  0.155412  0.215038  1.0
  H  H148  1  0.060394  0.844588  0.784962  1.0
  H  H149  1  0.070571  0.954673  0.708846  1.0
  H  H150  1  0.929429  0.045327  0.291154  1.0
  H  H151  1  0.927607  0.815510  0.573067  1.0
  H  H152  1  0.072393  0.184490  0.426933  1.0
  H  H153  1  0.970060  0.818003  0.655756  1.0
  H  H154  1  0.029940  0.181997  0.344244  1.0
  H  H155  1  0.014122  0.838673  0.622074  1.0
  H  H156  1  0.985878  0.161327  0.377926  1.0
  H  H157  1  0.867140  0.923329  0.605278  1.0
  H  H158  1  0.132860  0.076671  0.394722  1.0
  H  H159  1  0.903602  0.967627  0.697696  1.0
  H  H160  1  0.096398  0.032373  0.302304  1.0
  H  H161  1  0.872030  0.885428  0.654706  1.0
  H  H162  1  0.127970  0.114572  0.345294  1.0
  H  H163  1  0.358962  0.497404  0.756779  1.0
  H  H164  1  0.641038  0.502596  0.243221  1.0
  H  H165  1  0.439782  0.431516  0.788651  1.0
  H  H166  1  0.560218  0.568484  0.211349  1.0
  H  H167  1  0.435732  0.431945  0.859618  1.0
  H  H168  1  0.564268  0.568055  0.140382  1.0
  H  H169  1  0.510132  0.466964  0.873536  1.0
  H  H170  1  0.489868  0.533036  0.126464  1.0
  H  H171  1  0.529122  0.592581  0.956614  1.0
  H  H172  1  0.470878  0.407419  0.043386  1.0
  H  H173  1  0.475271  0.565142  0.976587  1.0
  H  H174  1  0.524729  0.434858  0.023413  1.0
  H  H175  1  0.458208  0.620776  0.946162  1.0
  H  H176  1  0.541792  0.379224  0.053838  1.0
  H  H177  1  0.820218  0.187242  0.711566  1.0
  H  H178  1  0.179782  0.812758  0.288434  1.0
  H  H179  1  0.939952  0.124797  0.660650  1.0
  H  H180  1  0.060048  0.875203  0.339350  1.0
  H  H181  1  0.923991  0.095319  0.708639  1.0
  H  H182  1  0.076009  0.904681  0.291361  1.0
  H  H183  1  0.931761  0.175951  0.732955  1.0
  H  H184  1  0.068239  0.824049  0.267045  1.0
  H  H185  1  0.821836  0.067381  0.529641  1.0
  H  H186  1  0.178164  0.932619  0.470359  1.0
  H  H187  1  0.752942  0.046805  0.534403  1.0
  H  H188  1  0.247058  0.953195  0.465597  1.0
  H  H189  1  0.821100  0.015141  0.562509  1.0
  H  H190  1  0.178900  0.984859  0.437491  1.0
  C  C191  1  0.808700  0.395600  0.046900  1
  C  C192  1  0.191300  0.604400  0.953100  1
  C  C193  1  0.697800  0.362000  0.041400  1
  C  C194  1  0.302200  0.638000  0.958600  1
  C  C195  1  0.808900  0.433200  0.167000  1
  C  C196  1  0.191100  0.566800  0.833000  1
  C  C197  1  0.777400  0.155630  0.288300  1
  C  C198  1  0.222600  0.844370  0.711700  1
  C  C199  1  0.665900  0.116100  0.167400  1
  C  C200  1  0.334100  0.883900  0.832600  1
  C  C201  1  0.763600  0.054500  0.174200  1
  C  C202  1  0.236400  0.945500  0.825800  1
  C  C203  1  0.282200  0.721670  0.436200  1
  C  C204  1  0.717800  0.278330  0.563800  1
  C  C205  1  0.278300  0.604300  0.352100  1
  C  C206  1  0.721700  0.395700  0.647900  1
  C  C207  1  0.316200  0.643800  0.489300  1
  C  C208  1  0.683800  0.356200  0.510700  1
  C  C209  1  0.656200  0.991300  0.703500  1
  C  C210  1  0.343800  0.008700  0.296500  1
  C  C211  1  0.682400  0.989900  0.614500  1
  C  C212  1  0.317600  0.010100  0.385500  1
  C  C213  1  0.610300  0.884900  0.576800  1
  C  C214  1  0.389700  0.115100  0.423200  1
  C  C215  1  0.104310  0.245940  0.893140  1.0
  C  C216  1  0.895690  0.754060  0.106860  1.0
  C  C217  1  0.072640  0.408810  0.018180  1.0
  C  C218  1  0.927360  0.591190  0.981820  1.0
  C  C219  1  0.104330  0.364050  0.981450  1.0
  C  C220  1  0.895670  0.635950  0.018550  1.0
  C  C221  1  0.068950  0.294170  0.931930  1.0
  C  C222  1  0.931050  0.705830  0.068070  1.0
  C  C223  1  0.000940  0.269870  0.919400  1.0
  C  C224  1  0.999060  0.730130  0.080600  1.0
  C  C225  1  0.968370  0.313000  0.955500  1.0
  C  C226  1  0.031630  0.687000  0.044500  1.0
  C  C227  1  0.004590  0.382850  0.005270  1.0
  C  C228  1  0.995410  0.617150  0.994730  1.0
  C  C229  1  0.094130  0.482220  0.071930  1.0
  C  C230  1  0.905870  0.517780  0.928070  1.0
  C  C231  1  0.154970  0.534310  0.107290  1.0
  C  C232  1  0.845030  0.465690  0.892710  1.0
  C  C233  1  0.160130  0.601180  0.160150  1.0
  C  C234  1  0.839870  0.398820  0.839850  1.0
  C  C235  1  0.103950  0.614420  0.176470  1.0
  C  C236  1  0.896050  0.385580  0.823530  1.0
  C  C237  1  0.042030  0.563670  0.140700  1.0
  C  C238  1  0.957970  0.436330  0.859300  1.0
  C  C239  1  0.037880  0.496650  0.089510  1.0
  C  C240  1  0.962120  0.503350  0.910490  1.0
  C  C241  1  0.226420  0.657150  0.200870  1.0
  C  C242  1  0.773580  0.342850  0.799130  1.0
  C  C243  1  0.102240  0.197510  0.712310  1.0
  C  C244  1  0.897760  0.802490  0.287690  1.0
  C  C245  1  0.050160  0.286620  0.588600  1.0
  C  C246  1  0.949840  0.713380  0.411400  1.0
  C  C247  1  0.088830  0.273420  0.650500  1.0
  C  C248  1  0.911170  0.726580  0.349500  1.0
  C  C249  1  0.062340  0.214060  0.647550  1.0
  C  C250  1  0.937660  0.785940  0.352450  1.0
  C  C251  1  0.996750  0.167170  0.582400  1.0
  C  C252  1  0.003250  0.832830  0.417600  1.0
  C  C253  1  0.957690  0.177890  0.520300  1.0
  C  C254  1  0.042310  0.822110  0.479700  1.0
  C  C255  1  0.984590  0.237960  0.523220  1.0
  C  C256  1  0.015410  0.762040  0.476780  1.0
  C  C257  1  0.059130  0.341700  0.571050  1.0
  C  C258  1  0.940870  0.658300  0.428950  1.0
  C  C259  1  0.110210  0.404070  0.610080  1.0
  C  C260  1  0.889790  0.595930  0.389920  1.0
  C  C261  1  0.100800  0.445820  0.575410  1.0
  C  C262  1  0.899200  0.554180  0.424590  1.0
  C  C263  1  0.039900  0.425290  0.501950  1.0
  C  C264  1  0.960100  0.574710  0.498050  1.0
  C  C265  1  0.988750  0.364420  0.462190  1.0
  C  C266  1  0.011250  0.635580  0.537810  1.0
  C  C267  1  0.998400  0.322300  0.496770  1.0
  C  C268  1  0.001600  0.677700  0.503230  1.0
  C  C269  1  0.155710  0.511160  0.612700  1.0
  C  C270  1  0.844290  0.488840  0.387300  1.0
  C  C271  1  0.225230  0.085070  0.749430  1.0
  C  C272  1  0.774770  0.914930  0.250570  1.0
  C  C273  1  0.340960  0.019400  0.658860  1.0
  C  C274  1  0.659040  0.980600  0.341140  1.0
  C  C275  1  0.315270  0.065070  0.704450  1.0
  C  C276  1  0.684730  0.934930  0.295550  1.0
  C  C277  1  0.256090  0.038120  0.704200  1.0
  C  C278  1  0.743910  0.961880  0.295800  1.0
  C  C279  1  0.224070  0.966610  0.660710  1.0
  C  C280  1  0.775930  0.033390  0.339290  1.0
  C  C281  1  0.249450  0.920480  0.616740  1.0
  C  C282  1  0.750550  0.079520  0.383260  1.0
  C  C283  1  0.306850  0.947560  0.614810  1.0
  C  C284  1  0.693150  0.052440  0.385190  1.0
  C  C285  1  0.396890  0.028440  0.641790  1.0
  C  C286  1  0.603110  0.971560  0.358210  1.0
  C  C287  1  0.449040  0.084960  0.667550  1.0
  C  C288  1  0.550960  0.915040  0.332450  1.0
  C  C289  1  0.496600  0.075830  0.638960  1.0
  C  C290  1  0.503400  0.924170  0.361040  1.0
  C  C291  1  0.490150  0.009010  0.583700  1.0
  C  C292  1  0.509850  0.990990  0.416300  1.0
  C  C293  1  0.439590  0.951540  0.557640  1.0
  C  C294  1  0.560410  0.048460  0.442360  1.0
  C  C295  1  0.393220  0.961510  0.587530  1.0
  C  C296  1  0.606780  0.038490  0.412470  1.0
  C  C297  1  0.554030  0.135160  0.668780  1.0
  C  C298  1  0.445970  0.864840  0.331220  1.0
  C  C299  1  0.360660  0.716540  0.708310  1.0
  C  C300  1  0.639340  0.283460  0.291690  1.0
  C  C301  1  0.545870  0.833480  0.820990  1.0
  C  C302  1  0.454130  0.166520  0.179010  1.0
  C  C303  1  0.487700  0.784070  0.798030  1.0
  C  C304  1  0.512300  0.215930  0.201970  1.0
  C  C305  1  0.422370  0.769610  0.732550  1.0
  C  C306  1  0.577630  0.230390  0.267450  1.0
  C  C307  1  0.415490  0.805530  0.690750  1.0
  C  C308  1  0.584510  0.194470  0.309250  1.0
  C  C309  1  0.473440  0.854300  0.712500  1.0
  C  C310  1  0.526560  0.145700  0.287500  1.0
  C  C311  1  0.539250  0.867950  0.777900  1.0
  C  C312  1  0.460750  0.132050  0.222100  1.0
  C  C313  1  0.620240  0.860220  0.885440  1.0
  C  C314  1  0.379760  0.139780  0.114560  1.0
  C  C315  1  0.658130  0.846700  0.946180  1.0
  C  C316  1  0.341870  0.153300  0.053820  1.0
  C  C317  1  0.730210  0.883440  0.000950  1.0
  C  C318  1  0.269790  0.116560  0.999050  1.0
  C  C319  1  0.762050  0.934100  0.994000  1.0
  C  C320  1  0.237950  0.065900  0.006000  1.0
  C  C321  1  0.725700  0.947800  0.933000  1.0
  C  C322  1  0.274300  0.052200  0.067000  1.0
  C  C323  1  0.653500  0.910400  0.877800  1.0
  C  C324  1  0.346500  0.089600  0.122200  1.0
  C  C325  1  0.769980  0.867040  0.065360  1.0
  C  C326  1  0.230020  0.132960  0.934640  1.0
  C  C327  1  0.300540  0.525890  0.578250  1.0
  C  C328  1  0.699460  0.474110  0.421750  1.0
  C  C329  1  0.391600  0.389900  0.504270  1.0
  C  C330  1  0.608400  0.610100  0.495730  1.0
  C  C331  1  0.372010  0.438090  0.553800  1.0
  C  C332  1  0.627990  0.561910  0.446200  1.0
  C  C333  1  0.321980  0.473060  0.526750  1.0
  C  C334  1  0.678020  0.526940  0.473250  1.0
  C  C335  1  0.290500  0.459060  0.448800  1.0
  C  C336  1  0.709500  0.540940  0.551200  1.0
  C  C337  1  0.308800  0.411600  0.398000  1.0
  C  C338  1  0.691200  0.588400  0.602000  1.0
  C  C339  1  0.360200  0.377800  0.426600  1.0
  C  C340  1  0.639800  0.622200  0.573400  1.0
  C  C341  1  0.442190  0.346400  0.512450  1.0
  C  C342  1  0.557810  0.653600  0.487550  1.0
  C  C343  1  0.488720  0.334410  0.572720  1.0
  C  C344  1  0.511280  0.665590  0.427280  1.0
  C  C345  1  0.531750  0.288910  0.560740  1.0
  C  C346  1  0.468250  0.711090  0.439260  1.0
  C  C347  1  0.528500  0.255400  0.488300  1.0
  C  C348  1  0.471500  0.744600  0.511700  1.0
  C  C349  1  0.482400  0.265900  0.427800  1.0
  C  C350  1  0.517600  0.734100  0.572200  1.0
  C  C351  1  0.438800  0.311600  0.439600  1.0
  C  C352  1  0.561200  0.688400  0.560400  1.0
  C  C353  1  0.580850  0.273710  0.623920  1.0
  C  C354  1  0.419150  0.726290  0.376080  1.0
  C  C355  1  0.740100  0.202460  0.833430  1.0
  C  C356  1  0.259900  0.797540  0.166570  1.0
  C  C357  1  0.821990  0.188360  0.015990  1.0
  C  C358  1  0.178010  0.811640  0.984010  1.0
  C  C359  1  0.781440  0.207790  0.960290  1.0
  C  C360  1  0.218560  0.792210  0.039710  1.0
  C  C361  1  0.784000  0.182220  0.892700  1.0
  C  C362  1  0.216000  0.817780  0.107300  1.0
  C  C363  1  0.828300  0.135800  0.880400  1.0
  C  C364  1  0.171700  0.864200  0.119600  1.0
  C  C365  1  0.868900  0.115600  0.934500  1.0
  C  C366  1  0.131100  0.884400  0.065500  1.0
  C  C367  1  0.866500  0.142500  0.003300  1.0
  C  C368  1  0.133500  0.857500  0.996700  1.0
  C  C369  1  0.831830  0.205800  0.090940  1.0
  C  C370  1  0.168170  0.794200  0.909060  1.0
  C  C371  1  0.802730  0.247120  0.134450  1.0
  C  C372  1  0.197270  0.752880  0.865550  1.0
  C  C373  1  0.824930  0.254600  0.207190  1.0
  C  C374  1  0.175070  0.745400  0.792810  1.0
  C  C375  1  0.876700  0.221000  0.236600  1.0
  C  C376  1  0.123300  0.779000  0.763400  1.0
  C  C377  1  0.905200  0.178500  0.194500  1.0
  C  C378  1  0.094800  0.821500  0.805500  1.0
  C  C379  1  0.882000  0.170300  0.120400  1.0
  C  C380  1  0.118000  0.829700  0.879600  1.0
  C  C381  1  0.793300  0.298730  0.253240  1.0
  C  C382  1  0.206700  0.701270  0.746760  1.0
  C  C383  1  0.025600  0.965000  0.701900  1.0
  C  C384  1  0.974400  0.035000  0.298100  1.0
  C  C385  1  0.970000  0.840200  0.625500  1.0
  C  C386  1  0.030000  0.159800  0.374500  1.0
  C  C387  1  0.896600  0.923100  0.654500  1.0
  C  C388  1  0.103400  0.076900  0.345500  1.0
  C  C389  1  0.385400  0.535600  0.807900  1.0
  C  C390  1  0.614600  0.464400  0.192100  1.0
  C  C391  1  0.457300  0.458300  0.844500  1.0
  C  C392  1  0.542700  0.541700  0.155500  1.0
  C  C393  1  0.478400  0.580200  0.941900  1.0
  C  C394  1  0.521600  0.419800  0.058100  1.0
  C  C395  1  0.797100  0.150500  0.659500  1.0
  C  C396  1  0.202900  0.849500  0.340500  1.0
  C  C397  1  0.914500  0.128800  0.689100  1.0
  C  C398  1  0.085500  0.871200  0.310900  1.0
  C  C399  1  0.805800  0.056200  0.559700  1.0
  C  C400  1  0.194200  0.943800  0.440300  1.0
  N  N401  1  0.774200  0.396050  0.083400  1
  N  N402  1  0.225800  0.603950  0.916600  1
  N  N403  1  0.736900  0.109130  0.213100  1
  N  N404  1  0.263100  0.890870  0.786900  1
  N  N405  1  0.290800  0.659290  0.425990  1
  N  N406  1  0.709200  0.340710  0.574010  1
  N  N407  1  0.652300  0.952000  0.631300  1
  N  N408  1  0.347700  0.048000  0.368700  1
  N  N409  1  0.984320  0.436470  0.047810  1.0
  N  N410  1  0.015680  0.563530  0.952190  1.0
  N  N411  1  0.954970  0.260440  0.469540  1.0
  N  N412  1  0.045030  0.739560  0.530460  1.0
  N  N413  1  0.339630  0.913890  0.572950  1.0
  N  N414  1  0.660370  0.086110  0.427050  1.0
  N  N415  1  0.604430  0.913720  0.812740  1.0
  N  N416  1  0.395570  0.086280  0.187260  1.0
  N  N417  1  0.389200  0.330430  0.388860  1.0
  N  N418  1  0.610800  0.669570  0.611140  1.0
  N  N419  1  0.901200  0.131720  0.066200  1.0
  N  N420  1  0.098800  0.868280  0.933800  1.0
  N  N421  1  0.967400  0.912400  0.663500  1.0
  N  N422  1  0.032600  0.087600  0.336500  1.0
  N  N423  1  0.437300  0.523700  0.861600  1.0
  N  N424  1  0.562700  0.476300  0.138400  1.0
  N  N425  1  0.837660  0.114600  0.637800  1.0
  N  N426  1  0.162340  0.885400  0.362200  1.0
  O  O427  1  0.872550  0.425290  0.079000  1
  O  O428  1  0.127450  0.574710  0.921000  1
  O  O429  1  0.839900  0.156810  0.329570  1
  O  O430  1  0.160100  0.843190  0.670430  1
  O  O431  1  0.293670  0.770220  0.498230  1
  O  O432  1  0.706330  0.229780  0.501770  1
  O  O433  1  0.635500  0.965000  0.729800  1
  O  O434  1  0.364500  0.035000  0.270200  1
  O  O435  1  0.166900  0.271530  0.909950  1.0
  O  O436  1  0.833100  0.728470  0.090050  1.0
  O  O437  1  0.070580  0.182800  0.847370  1.0
  O  O438  1  0.929420  0.817200  0.152630  1.0
  O  O439  1  0.272390  0.645160  0.178900  1.0
  O  O440  1  0.727610  0.354840  0.821100  1.0
  O  O441  1  0.233290  0.714190  0.256430  1.0
  O  O442  1  0.766710  0.285810  0.743570  1.0
  O  O443  1  0.163090  0.236910  0.768620  1.0
  O  O444  1  0.836910  0.763090  0.231380  1.0
  O  O445  1  0.071610  0.144460  0.707610  1.0
  O  O446  1  0.928390  0.855540  0.292390  1.0
  O  O447  1  0.213750  0.527120  0.675770  1.0
  O  O448  1  0.786250  0.472880  0.324230  1.0
  O  O449  1  0.141900  0.547050  0.577760  1.0
  O  O450  1  0.858100  0.452950  0.422240  1.0
  O  O451  1  0.257690  0.148570  0.793400  1.0
  O  O452  1  0.742310  0.851430  0.206600  1.0
  O  O453  1  0.166660  0.058310  0.740160  1.0
  O  O454  1  0.833340  0.941690  0.259840  1.0
  O  O455  1  0.558100  0.193850  0.719970  1.0
  O  O456  1  0.441900  0.806150  0.280030  1.0
  O  O457  1  0.597430  0.124660  0.642500  1.0
  O  O458  1  0.402570  0.875340  0.357500  1.0
  O  O459  1  0.372230  0.684870  0.748560  1.0
  O  O460  1  0.627770  0.315130  0.251440  1.0
  O  O461  1  0.300120  0.704310  0.650100  1.0
  O  O462  1  0.699880  0.295690  0.349900  1.0
  O  O463  1  0.737220  0.816470  0.062910  1.0
  O  O464  1  0.262780  0.183530  0.937090  1.0
  O  O465  1  0.832890  0.903120  0.118740  1.0
  O  O466  1  0.167110  0.096880  0.881260  1.0
  O  O467  1  0.328740  0.538180  0.648450  1.0
  O  O468  1  0.671260  0.461820  0.351550  1.0
  O  O469  1  0.255700  0.556830  0.549530  1.0
  O  O470  1  0.744300  0.443170  0.450470  1.0
  O  O471  1  0.581600  0.302440  0.687460  1.0
  O  O472  1  0.418400  0.697560  0.312540  1.0
  O  O473  1  0.619150  0.231440  0.609270  1.0
  O  O474  1  0.380850  0.768560  0.390730  1.0
  O  O475  1  0.702490  0.245240  0.848820  1.0
  O  O476  1  0.297510  0.754760  0.151180  1.0
  O  O477  1  0.740780  0.176320  0.770500  1.0
  O  O478  1  0.259220  0.823680  0.229500  1.0
  O  O479  1  0.745240  0.325970  0.221930  1.0
  O  O480  1  0.254760  0.674030  0.778070  1.0
  O  O481  1  0.816490  0.307000  0.321290  1.0
  O  O482  1  0.183510  0.693000  0.678710  1.0
  O  O483  1  0.023110  0.024630  0.727970  1.0
  O  O484  1  0.976890  0.975370  0.272030  1.0
  O  O485  1  0.368490  0.590020  0.817350  1.0
  O  O486  1  0.631510  0.409980  0.182650  1.0
  O  O487  1  0.731010  0.141850  0.619210  1.0
  O  O488  1  0.268990  0.858150  0.380790  1.0
  O  O489  1  0.314590  0.300800  0.921300  1.0
  O  O490  1  0.685410  0.699200  0.078700  1.0
  O  O491  1  0.596720  0.341800  0.845880  1.0
  O  O492  1  0.403280  0.658200  0.154120  1.0
  O  O493  1  0.151580  0.638690  0.506090  1.0
  O  O494  1  0.848420  0.361310  0.493910  1.0
