# generated using pymatgen
data_Mo3H21C42N3O17
_symmetry_space_group_name_H-M   'P 1'
_cell_length_a   24.18750000
_cell_length_b   24.54620000
_cell_length_c   28.60090000
_cell_angle_alpha   90.00000000
_cell_angle_beta   90.00000000
_cell_angle_gamma   97.12100000
_symmetry_Int_Tables_number   1
_chemical_formula_structural   Mo3H21C42N3O17
_chemical_formula_sum   'Mo24 H168 C336 N24 O136'
_cell_volume   16849.69575125
_cell_formula_units_Z   8
loop_
 _symmetry_equiv_pos_site_id
 _symmetry_equiv_pos_as_xyz
  1  'x, y, z'
loop_
 _atom_site_type_symbol
 _atom_site_label
 _atom_site_symmetry_multiplicity
 _atom_site_fract_x
 _atom_site_fract_y
 _atom_site_fract_z
 _atom_site_occupancy
  Mo  Mo1  1  0.783120  0.457820  0.584060  1.0
  Mo  Mo2  1  0.716880  0.042180  0.084060  1.0
  Mo  Mo3  1  0.216880  0.542180  0.415940  1.0
  Mo  Mo4  1  0.283120  0.957820  0.915940  1.0
  Mo  Mo5  1  0.864030  0.444020  0.604110  1.0
  Mo  Mo6  1  0.635970  0.055980  0.104110  1.0
  Mo  Mo7  1  0.135970  0.555980  0.395890  1.0
  Mo  Mo8  1  0.364030  0.944020  0.895890  1.0
  Mo  Mo9  1  0.433340  0.557630  0.746970  1.0
  Mo  Mo10  1  0.066660  0.942370  0.246970  1.0
  Mo  Mo11  1  0.566660  0.442370  0.253030  1.0
  Mo  Mo12  1  0.933340  0.057630  0.753030  1.0
  Mo  Mo13  1  0.408790  0.575550  0.815370  1.0
  Mo  Mo14  1  0.091210  0.924450  0.315370  1.0
  Mo  Mo15  1  0.591210  0.424450  0.184630  1.0
  Mo  Mo16  1  0.908790  0.075550  0.684630  1.0
  Mo  Mo17  1  0.402210  0.205690  0.537340  1.0
  Mo  Mo18  1  0.097790  0.294310  0.037340  1.0
  Mo  Mo19  1  0.597790  0.794310  0.462660  1.0
  Mo  Mo20  1  0.902210  0.705690  0.962660  1.0
  Mo  Mo21  1  0.625250  0.878100  0.451950  1.0
  Mo  Mo22  1  0.874750  0.621900  0.951950  1.0
  Mo  Mo23  1  0.374750  0.121900  0.548050  1.0
  Mo  Mo24  1  0.125250  0.378100  0.048050  1.0
  H  H25  1  0.764189  0.537837  0.891927  1.0
  H  H26  1  0.735811  0.962163  0.391927  1.0
  H  H27  1  0.235811  0.462163  0.108073  1.0
  H  H28  1  0.264189  0.037837  0.608073  1.0
  H  H29  1  0.723558  0.089773  0.635219  1.0
  H  H30  1  0.776442  0.410227  0.135219  1.0
  H  H31  1  0.276442  0.910227  0.364781  1.0
  H  H32  1  0.223558  0.589773  0.864781  1.0
  H  H33  1  0.964226  0.796998  0.526600  1.0
  H  H34  1  0.535774  0.703002  0.026600  1.0
  H  H35  1  0.035774  0.203002  0.473400  1.0
  H  H36  1  0.464226  0.296998  0.973400  1.0
  H  H37  1  0.287843  0.215886  0.838012  1.0
  H  H38  1  0.212157  0.284114  0.338012  1.0
  H  H39  1  0.712157  0.784114  0.161988  1.0
  H  H40  1  0.787843  0.715886  0.661988  1.0
  H  H41  1  0.487853  0.929191  0.737429  1.0
  H  H42  1  0.012147  0.570809  0.237429  1.0
  H  H43  1  0.512147  0.070809  0.262571  1.0
  H  H44  1  0.987853  0.429191  0.762571  1.0
  H  H45  1  0.101132  0.674484  0.688518  1.0
  H  H46  1  0.398868  0.825516  0.188518  1.0
  H  H47  1  0.898868  0.325516  0.311482  1.0
  H  H48  1  0.601132  0.174484  0.811482  1.0
  H  H49  1  0.708935  0.503329  0.719743  1.0
  H  H50  1  0.791065  0.996671  0.219743  1.0
  H  H51  1  0.291065  0.496671  0.280257  1.0
  H  H52  1  0.208935  0.003329  0.780257  1.0
  H  H53  1  0.866759  0.485763  0.757230  1.0
  H  H54  1  0.633241  0.014237  0.257230  1.0
  H  H55  1  0.133241  0.514237  0.242770  1.0
  H  H56  1  0.366759  0.985763  0.742770  1.0
  H  H57  1  0.848631  0.510858  0.836146  1.0
  H  H58  1  0.651369  0.989142  0.336146  1.0
  H  H59  1  0.151369  0.489142  0.163854  1.0
  H  H60  1  0.348631  0.010858  0.663854  1.0
  H  H61  1  0.611155  0.529668  0.765674  1.0
  H  H62  1  0.888845  0.970332  0.265674  1.0
  H  H63  1  0.388845  0.470332  0.234326  1.0
  H  H64  1  0.111155  0.029668  0.734326  1.0
  H  H65  1  0.570900  0.570428  0.897110  1.0
  H  H66  1  0.929100  0.929572  0.397110  1.0
  H  H67  1  0.429100  0.429572  0.102890  1.0
  H  H68  1  0.070900  0.070428  0.602890  1.0
  H  H69  1  0.660719  0.561424  0.923532  1.0
  H  H70  1  0.839281  0.938576  0.423532  1.0
  H  H71  1  0.339281  0.438576  0.076468  1.0
  H  H72  1  0.160719  0.061424  0.576468  1.0
  H  H73  1  0.687740  0.288644  0.596471  1.0
  H  H74  1  0.812260  0.211356  0.096471  1.0
  H  H75  1  0.312260  0.711356  0.403529  1.0
  H  H76  1  0.187740  0.788644  0.903529  1.0
  H  H77  1  0.842239  0.264042  0.638849  1.0
  H  H78  1  0.657761  0.235958  0.138849  1.0
  H  H79  1  0.157761  0.735958  0.361151  1.0
  H  H80  1  0.342239  0.764042  0.861151  1.0
  H  H81  1  0.816369  0.170052  0.645899  1.0
  H  H82  1  0.683631  0.329948  0.145899  1.0
  H  H83  1  0.183631  0.829948  0.354101  1.0
  H  H84  1  0.316369  0.670052  0.854101  1.0
  H  H85  1  0.582550  0.218169  0.582431  1.0
  H  H86  1  0.917450  0.281831  0.082431  1.0
  H  H87  1  0.417450  0.781831  0.417569  1.0
  H  H88  1  0.082550  0.718169  0.917569  1.0
  H  H89  1  0.527950  0.058215  0.606584  1.0
  H  H90  1  0.972050  0.441785  0.106584  1.0
  H  H91  1  0.472050  0.941785  0.393416  1.0
  H  H92  1  0.027950  0.558215  0.893416  1.0
  H  H93  1  0.617950  0.040968  0.626414  1.0
  H  H94  1  0.882050  0.459032  0.126414  1.0
  H  H95  1  0.382050  0.959032  0.373586  1.0
  H  H96  1  0.117950  0.540968  0.873586  1.0
  H  H97  1  0.805373  0.637878  0.547497  1.0
  H  H98  1  0.694627  0.862122  0.047497  1.0
  H  H99  1  0.194627  0.362122  0.452503  1.0
  H  H100  1  0.305373  0.137878  0.952503  1.0
  H  H101  1  0.964566  0.609107  0.572475  1.0
  H  H102  1  0.535434  0.890893  0.072475  1.0
  H  H103  1  0.035434  0.390893  0.427525  1.0
  H  H104  1  0.464566  0.109107  0.927525  1.0
  H  H105  1  0.998167  0.696154  0.549563  1.0
  H  H106  1  0.501833  0.803846  0.049563  1.0
  H  H107  1  0.001833  0.303846  0.450437  1.0
  H  H108  1  0.498167  0.196154  0.950437  1.0
  H  H109  1  0.753775  0.731170  0.517188  1.0
  H  H110  1  0.746225  0.768830  0.017188  1.0
  H  H111  1  0.246225  0.268830  0.482812  1.0
  H  H112  1  0.253775  0.231170  0.982812  1.0
  H  H113  1  0.806460  0.891572  0.492976  1.0
  H  H114  1  0.693540  0.608428  0.992976  1.0
  H  H115  1  0.193540  0.108428  0.507024  1.0
  H  H116  1  0.306460  0.391572  0.007024  1.0
  H  H117  1  0.898592  0.878104  0.507302  1.0
  H  H118  1  0.601408  0.621896  0.007302  1.0
  H  H119  1  0.101408  0.121896  0.492698  1.0
  H  H120  1  0.398592  0.378104  0.992698  1.0
  H  H121  1  0.383462  0.374081  0.737442  1.0
  H  H122  1  0.116538  0.125919  0.237442  1.0
  H  H123  1  0.616538  0.625919  0.262558  1.0
  H  H124  1  0.883462  0.874081  0.762558  1.0
  H  H125  1  0.346530  0.406714  0.871998  1.0
  H  H126  1  0.153470  0.093286  0.371998  1.0
  H  H127  1  0.653470  0.593286  0.128002  1.0
  H  H128  1  0.846530  0.906714  0.628002  1.0
  H  H129  1  0.310513  0.314671  0.884319  1.0
  H  H130  1  0.189487  0.185329  0.384319  1.0
  H  H131  1  0.689487  0.685329  0.115681  1.0
  H  H132  1  0.810513  0.814671  0.615681  1.0
  H  H133  1  0.368557  0.280162  0.678020  1.0
  H  H134  1  0.131443  0.219838  0.178020  1.0
  H  H135  1  0.631443  0.719838  0.321980  1.0
  H  H136  1  0.868557  0.780162  0.821980  1.0
  H  H137  1  0.301438  0.120605  0.692208  1.0
  H  H138  1  0.198562  0.379395  0.192208  1.0
  H  H139  1  0.698562  0.879395  0.307792  1.0
  H  H140  1  0.801438  0.620605  0.807792  1.0
  H  H141  1  0.274336  0.137147  0.769861  1.0
  H  H142  1  0.225664  0.362853  0.269861  1.0
  H  H143  1  0.725664  0.862853  0.230139  1.0
  H  H144  1  0.774336  0.637147  0.730139  1.0
  H  H145  1  0.494979  0.726842  0.691565  1.0
  H  H146  1  0.005021  0.773158  0.191565  1.0
  H  H147  1  0.505021  0.273158  0.308435  1.0
  H  H148  1  0.994979  0.226842  0.808435  1.0
  H  H149  1  0.435761  0.760377  0.819780  1.0
  H  H150  1  0.064239  0.739623  0.319780  1.0
  H  H151  1  0.564239  0.239623  0.180220  1.0
  H  H152  1  0.935761  0.260377  0.680220  1.0
  H  H153  1  0.447152  0.855201  0.803967  1.0
  H  H154  1  0.052848  0.644799  0.303967  1.0
  H  H155  1  0.552848  0.144799  0.196033  1.0
  H  H156  1  0.947152  0.355201  0.696033  1.0
  H  H157  1  0.529973  0.792605  0.610797  1.0
  H  H158  1  0.970027  0.707395  0.110797  1.0
  H  H159  1  0.470027  0.207395  0.389203  1.0
  H  H160  1  0.029973  0.292605  0.889203  1.0
  H  H161  1  0.570127  0.954286  0.584858  1.0
  H  H162  1  0.929873  0.545714  0.084858  1.0
  H  H163  1  0.429873  0.045714  0.415142  1.0
  H  H164  1  0.070127  0.454286  0.915142  1.0
  H  H165  1  0.535766  0.977105  0.657958  1.0
  H  H166  1  0.964234  0.522895  0.157958  1.0
  H  H167  1  0.464234  0.022895  0.342042  1.0
  H  H168  1  0.035766  0.477105  0.842042  1.0
  H  H169  1  0.273029  0.574105  0.662830  1.0
  H  H170  1  0.226971  0.925895  0.162830  1.0
  H  H171  1  0.726971  0.425895  0.337170  1.0
  H  H172  1  0.773029  0.074105  0.837170  1.0
  H  H173  1  0.249173  0.638622  0.790083  1.0
  H  H174  1  0.250827  0.861378  0.290083  1.0
  H  H175  1  0.750827  0.361378  0.209917  1.0
  H  H176  1  0.749173  0.138622  0.709917  1.0
  H  H177  1  0.166910  0.670805  0.765810  1.0
  H  H178  1  0.333090  0.829195  0.265810  1.0
  H  H179  1  0.833090  0.329195  0.234190  1.0
  H  H180  1  0.666910  0.170805  0.734190  1.0
  H  H181  1  0.215581  0.575145  0.572340  1.0
  H  H182  1  0.284419  0.924855  0.072340  1.0
  H  H183  1  0.784419  0.424855  0.427660  1.0
  H  H184  1  0.715581  0.075145  0.927660  1.0
  H  H185  1  0.070532  0.624873  0.528552  1.0
  H  H186  1  0.429468  0.875127  0.028552  1.0
  H  H187  1  0.929468  0.375127  0.471448  1.0
  H  H188  1  0.570532  0.124873  0.971448  1.0
  H  H189  1  0.056508  0.661994  0.601750  1.0
  H  H190  1  0.443492  0.838006  0.101750  1.0
  H  H191  1  0.943492  0.338006  0.398250  1.0
  H  H192  1  0.556508  0.161994  0.898250  1.0
  C  C193  1  0.801500  0.479200  0.683300  1.0
  C  C194  1  0.698500  0.020800  0.183300  1.0
  C  C195  1  0.198500  0.520800  0.316700  1.0
  C  C196  1  0.301500  0.979200  0.816700  1.0
  C  C197  1  0.724200  0.517200  0.789200  1.0
  C  C198  1  0.775800  0.982800  0.289200  1.0
  C  C199  1  0.275800  0.482800  0.210800  1.0
  C  C200  1  0.224200  0.017200  0.710800  1.0
  C  C201  1  0.736700  0.504300  0.743300  1.0
  C  C202  1  0.763300  0.995700  0.243300  1.0
  C  C203  1  0.263300  0.495700  0.256700  1.0
  C  C204  1  0.236700  0.004300  0.756700  1.0
  C  C205  1  0.789800  0.492800  0.732200  1.0
  C  C206  1  0.710200  0.007200  0.232200  1.0
  C  C207  1  0.210200  0.507200  0.267800  1.0
  C  C208  1  0.289800  0.992800  0.767800  1.0
  C  C209  1  0.830800  0.494300  0.765700  1.0
  C  C210  1  0.669200  0.005700  0.265700  1.0
  C  C211  1  0.169200  0.505700  0.234300  1.0
  C  C212  1  0.330800  0.994300  0.734300  1.0
  C  C213  1  0.820100  0.508600  0.813100  1.0
  C  C214  1  0.679900  0.991400  0.313100  1.0
  C  C215  1  0.179900  0.491400  0.186900  1.0
  C  C216  1  0.320100  0.008600  0.686900  1.0
  C  C217  1  0.765600  0.519100  0.824400  1.0
  C  C218  1  0.734400  0.980900  0.324400  1.0
  C  C219  1  0.234400  0.480900  0.175600  1.0
  C  C220  1  0.265600  0.019100  0.675600  1.0
  C  C221  1  0.675100  0.532000  0.812700  1.0
  C  C222  1  0.824900  0.968000  0.312700  1.0
  C  C223  1  0.324900  0.468000  0.187300  1.0
  C  C224  1  0.175100  0.032000  0.687300  1.0
  C  C225  1  0.621200  0.536200  0.797500  1.0
  C  C226  1  0.878800  0.963800  0.297500  1.0
  C  C227  1  0.378800  0.463800  0.202500  1.0
  C  C228  1  0.121200  0.036200  0.702500  1.0
  C  C229  1  0.582000  0.550300  0.829700  1.0
  C  C230  1  0.918000  0.949700  0.329700  1.0
  C  C231  1  0.418000  0.449700  0.170300  1.0
  C  C232  1  0.082000  0.050300  0.670300  1.0
  C  C233  1  0.597600  0.560100  0.875600  1.0
  C  C234  1  0.902400  0.939900  0.375600  1.0
  C  C235  1  0.402400  0.439900  0.124400  1.0
  C  C236  1  0.097600  0.060100  0.624400  1.0
  C  C237  1  0.651200  0.555400  0.891600  1.0
  C  C238  1  0.848800  0.944600  0.391600  1.0
  C  C239  1  0.348800  0.444600  0.108400  1.0
  C  C240  1  0.151200  0.055400  0.608400  1.0
  C  C241  1  0.690000  0.541700  0.860000  1.0
  C  C242  1  0.810000  0.958300  0.360000  1.0
  C  C243  1  0.310000  0.458300  0.140000  1.0
  C  C244  1  0.190000  0.041700  0.640000  1.0
  C  C245  1  0.525600  0.555700  0.813000  1.0
  C  C246  1  0.974400  0.944300  0.313000  1.0
  C  C247  1  0.474400  0.444300  0.187000  1.0
  C  C248  1  0.025600  0.055700  0.687000  1.0
  C  C249  1  0.786700  0.344400  0.610800  1.0
  C  C250  1  0.713300  0.155600  0.110800  1.0
  C  C251  1  0.213300  0.655600  0.389200  1.0
  C  C252  1  0.286700  0.844400  0.889200  1.0
  C  C253  1  0.696000  0.207300  0.610700  1.0
  C  C254  1  0.804000  0.292700  0.110700  1.0
  C  C255  1  0.304000  0.792700  0.389300  1.0
  C  C256  1  0.196000  0.707300  0.889300  1.0
  C  C257  1  0.713400  0.264500  0.606100  1.0
  C  C258  1  0.786600  0.235500  0.106100  1.0
  C  C259  1  0.286600  0.735500  0.393900  1.0
  C  C260  1  0.213400  0.764500  0.893900  1.0
  C  C261  1  0.767600  0.284300  0.615700  1.0
  C  C262  1  0.732400  0.215700  0.115700  1.0
  C  C263  1  0.232400  0.715700  0.384300  1.0
  C  C264  1  0.267600  0.784300  0.884300  1.0
  C  C265  1  0.805200  0.249000  0.631300  1.0
  C  C266  1  0.694800  0.251000  0.131300  1.0
  C  C267  1  0.194800  0.751000  0.368700  1.0
  C  C268  1  0.305200  0.749000  0.868700  1.0
  C  C269  1  0.790300  0.193600  0.635900  1.0
  C  C270  1  0.709700  0.306400  0.135900  1.0
  C  C271  1  0.209700  0.806400  0.364100  1.0
  C  C272  1  0.290300  0.693600  0.864100  1.0
  C  C273  1  0.734200  0.172600  0.625100  1.0
  C  C274  1  0.765800  0.327400  0.125100  1.0
  C  C275  1  0.265800  0.827400  0.374900  1.0
  C  C276  1  0.234200  0.672600  0.874900  1.0
  C  C277  1  0.643600  0.172800  0.604700  1.0
  C  C278  1  0.856400  0.327200  0.104700  1.0
  C  C279  1  0.356400  0.827200  0.395300  1.0
  C  C280  1  0.143600  0.672800  0.895300  1.0
  C  C281  1  0.589800  0.182300  0.591000  1.0
  C  C282  1  0.910200  0.317700  0.091000  1.0
  C  C283  1  0.410200  0.817700  0.409000  1.0
  C  C284  1  0.089800  0.682300  0.909000  1.0
  C  C285  1  0.547900  0.139400  0.590000  1.0
  C  C286  1  0.952100  0.360600  0.090000  1.0
  C  C287  1  0.452100  0.860600  0.410000  1.0
  C  C288  1  0.047900  0.639400  0.910000  1.0
  C  C289  1  0.558000  0.087000  0.605000  1.0
  C  C290  1  0.942000  0.413000  0.105000  1.0
  C  C291  1  0.442000  0.913000  0.395000  1.0
  C  C292  1  0.058000  0.587000  0.895000  1.0
  C  C293  1  0.610900  0.076800  0.617500  1.0
  C  C294  1  0.889100  0.423200  0.117500  1.0
  C  C295  1  0.389100  0.923200  0.382500  1.0
  C  C296  1  0.110900  0.576800  0.882500  1.0
  C  C297  1  0.653000  0.119700  0.616700  1.0
  C  C298  1  0.847000  0.380300  0.116700  1.0
  C  C299  1  0.347000  0.880300  0.383300  1.0
  C  C300  1  0.153000  0.619700  0.883300  1.0
  C  C301  1  0.490900  0.148400  0.575000  1.0
  C  C302  1  0.009100  0.351600  0.075000  1.0
  C  C303  1  0.509100  0.851600  0.425000  1.0
  C  C304  1  0.990900  0.648400  0.925000  1.0
  C  C305  1  0.860800  0.555800  0.572700  1.0
  C  C306  1  0.639200  0.944200  0.072700  1.0
  C  C307  1  0.139200  0.444200  0.427300  1.0
  C  C308  1  0.360800  0.055800  0.927300  1.0
  C  C309  1  0.864100  0.705000  0.538000  1.0
  C  C310  1  0.635900  0.795000  0.038000  1.0
  C  C311  1  0.135900  0.295000  0.462000  1.0
  C  C312  1  0.364100  0.205000  0.962000  1.0
  C  C313  1  0.844200  0.650200  0.548400  1.0
  C  C314  1  0.655800  0.849800  0.048400  1.0
  C  C315  1  0.155800  0.349800  0.451600  1.0
  C  C316  1  0.344200  0.150200  0.951600  1.0
  C  C317  1  0.881700  0.614900  0.559800  1.0
  C  C318  1  0.618300  0.885100  0.059800  1.0
  C  C319  1  0.118300  0.385100  0.440200  1.0
  C  C320  1  0.381700  0.114900  0.940200  1.0
  C  C321  1  0.939500  0.633500  0.562300  1.0
  C  C322  1  0.560500  0.866500  0.062300  1.0
  C  C323  1  0.060500  0.366500  0.437700  1.0
  C  C324  1  0.439500  0.133500  0.937700  1.0
  C  C325  1  0.959200  0.684800  0.550400  1.0
  C  C326  1  0.540800  0.815200  0.050400  1.0
  C  C327  1  0.040800  0.315200  0.449600  1.0
  C  C328  1  0.459200  0.184800  0.949600  1.0
  C  C329  1  0.920900  0.722000  0.539200  1.0
  C  C330  1  0.579100  0.778000  0.039200  1.0
  C  C331  1  0.079100  0.278000  0.460800  1.0
  C  C332  1  0.420900  0.222000  0.960800  1.0
  C  C333  1  0.838100  0.751900  0.523700  1.0
  C  C334  1  0.661900  0.748100  0.023700  1.0
  C  C335  1  0.161900  0.248100  0.476300  1.0
  C  C336  1  0.338100  0.251900  0.976300  1.0
  C  C337  1  0.783100  0.760600  0.514900  1.0
  C  C338  1  0.716900  0.739400  0.014900  1.0
  C  C339  1  0.216900  0.239400  0.485100  1.0
  C  C340  1  0.283100  0.260600  0.985100  1.0
  C  C341  1  0.771800  0.812800  0.502700  1.0
  C  C342  1  0.728200  0.687200  0.002700  1.0
  C  C343  1  0.228200  0.187200  0.497300  1.0
  C  C344  1  0.271800  0.312800  0.997300  1.0
  C  C345  1  0.814900  0.855800  0.500500  1.0
  C  C346  1  0.685100  0.644200  0.000500  1.0
  C  C347  1  0.185100  0.144200  0.499500  1.0
  C  C348  1  0.314900  0.355800  0.999500  1.0
  C  C349  1  0.869700  0.848200  0.508800  1.0
  C  C350  1  0.630300  0.651800  0.008800  1.0
  C  C351  1  0.130300  0.151800  0.491200  1.0
  C  C352  1  0.369700  0.348200  0.991200  1.0
  C  C353  1  0.881500  0.795700  0.519500  1.0
  C  C354  1  0.618500  0.704300  0.019500  1.0
  C  C355  1  0.118500  0.204300  0.480500  1.0
  C  C356  1  0.381500  0.295700  0.980500  1.0
  C  C357  1  0.715800  0.821400  0.489300  1.0
  C  C358  1  0.784200  0.678600  0.989300  1.0
  C  C359  1  0.284200  0.178600  0.510700  1.0
  C  C360  1  0.215800  0.321400  0.010700  1.0
  C  C361  1  0.387600  0.457600  0.795400  1.0
  C  C362  1  0.112400  0.042400  0.295400  1.0
  C  C363  1  0.612400  0.542400  0.204600  1.0
  C  C364  1  0.887600  0.957600  0.704600  1.0
  C  C365  1  0.344600  0.308700  0.774000  1.0
  C  C366  1  0.155400  0.191300  0.274000  1.0
  C  C367  1  0.655400  0.691300  0.226000  1.0
  C  C368  1  0.844600  0.808700  0.726000  1.0
  C  C369  1  0.367400  0.362700  0.766700  1.0
  C  C370  1  0.132600  0.137300  0.266700  1.0
  C  C371  1  0.632600  0.637300  0.233300  1.0
  C  C372  1  0.867400  0.862700  0.733300  1.0
  C  C373  1  0.366200  0.398700  0.802100  1.0
  C  C374  1  0.133800  0.101300  0.302100  1.0
  C  C375  1  0.633800  0.601300  0.197900  1.0
  C  C376  1  0.866200  0.898700  0.697900  1.0
  C  C377  1  0.345400  0.381100  0.847000  1.0
  C  C378  1  0.154600  0.118900  0.347000  1.0
  C  C379  1  0.654600  0.618900  0.153000  1.0
  C  C380  1  0.845400  0.881100  0.653000  1.0
  C  C381  1  0.323500  0.327100  0.854400  1.0
  C  C382  1  0.176500  0.172900  0.354400  1.0
  C  C383  1  0.676500  0.672900  0.145600  1.0
  C  C384  1  0.823500  0.827100  0.645600  1.0
  C  C385  1  0.321200  0.292000  0.816600  1.0
  C  C386  1  0.178800  0.208000  0.316600  1.0
  C  C387  1  0.678800  0.708000  0.183400  1.0
  C  C388  1  0.821200  0.792000  0.683400  1.0
  C  C389  1  0.336100  0.260900  0.743600  1.0
  C  C390  1  0.163900  0.239100  0.243600  1.0
  C  C391  1  0.663900  0.739100  0.256400  1.0
  C  C392  1  0.836100  0.760900  0.756400  1.0
  C  C393  1  0.350500  0.251400  0.696800  1.0
  C  C394  1  0.149500  0.248600  0.196800  1.0
  C  C395  1  0.649500  0.748600  0.303200  1.0
  C  C396  1  0.850500  0.751400  0.803200  1.0
  C  C397  1  0.337400  0.198400  0.679000  1.0
  C  C398  1  0.162600  0.301600  0.179000  1.0
  C  C399  1  0.662600  0.801600  0.321000  1.0
  C  C400  1  0.837400  0.698400  0.821000  1.0
  C  C401  1  0.309800  0.156200  0.705500  1.0
  C  C402  1  0.190200  0.343800  0.205500  1.0
  C  C403  1  0.690200  0.843800  0.294500  1.0
  C  C404  1  0.809800  0.656200  0.794500  1.0
  C  C405  1  0.294000  0.165600  0.751700  1.0
  C  C406  1  0.206000  0.334400  0.251700  1.0
  C  C407  1  0.706000  0.834400  0.248300  1.0
  C  C408  1  0.794000  0.665600  0.748300  1.0
  C  C409  1  0.308200  0.218400  0.770400  1.0
  C  C410  1  0.191800  0.281600  0.270400  1.0
  C  C411  1  0.691800  0.781600  0.229600  1.0
  C  C412  1  0.808200  0.718400  0.729600  1.0
  C  C413  1  0.355200  0.187200  0.630000  1.0
  C  C414  1  0.144800  0.312800  0.130000  1.0
  C  C415  1  0.644800  0.812800  0.370000  1.0
  C  C416  1  0.855200  0.687200  0.870000  1.0
  C  C417  1  0.449700  0.675700  0.765500  1.0
  C  C418  1  0.050300  0.824300  0.265500  1.0
  C  C419  1  0.550300  0.324300  0.234500  1.0
  C  C420  1  0.949700  0.175700  0.734500  1.0
  C  C421  1  0.492500  0.809600  0.704400  1.0
  C  C422  1  0.007500  0.690400  0.204400  1.0
  C  C423  1  0.507500  0.190400  0.295600  1.0
  C  C424  1  0.992500  0.309600  0.795600  1.0
  C  C425  1  0.484300  0.752600  0.713600  1.0
  C  C426  1  0.015700  0.747400  0.213600  1.0
  C  C427  1  0.515700  0.247400  0.286400  1.0
  C  C428  1  0.984300  0.252600  0.786400  1.0
  C  C429  1  0.460300  0.735600  0.755800  1.0
  C  C430  1  0.039700  0.764400  0.255800  1.0
  C  C431  1  0.539700  0.264400  0.244200  1.0
  C  C432  1  0.960300  0.235600  0.744200  1.0
  C  C433  1  0.449100  0.773300  0.790000  1.0
  C  C434  1  0.050900  0.726700  0.290000  1.0
  C  C435  1  0.550900  0.226700  0.210000  1.0
  C  C436  1  0.949100  0.273300  0.710000  1.0
  C  C437  1  0.457100  0.829800  0.781300  1.0
  C  C438  1  0.042900  0.670200  0.281300  1.0
  C  C439  1  0.542900  0.170200  0.218700  1.0
  C  C440  1  0.957100  0.329800  0.718700  1.0
  C  C441  1  0.479400  0.847300  0.739500  1.0
  C  C442  1  0.020600  0.652700  0.239500  1.0
  C  C443  1  0.520600  0.152700  0.260500  1.0
  C  C444  1  0.979400  0.347300  0.760500  1.0
  C  C445  1  0.514500  0.842000  0.664800  1.0
  C  C446  1  0.985500  0.658000  0.164800  1.0
  C  C447  1  0.485500  0.158000  0.335200  1.0
  C  C448  1  0.014500  0.342000  0.835200  1.0
  C  C449  1  0.532600  0.829700  0.621000  1.0
  C  C450  1  0.967400  0.670300  0.121000  1.0
  C  C451  1  0.467400  0.170300  0.379000  1.0
  C  C452  1  0.032600  0.329700  0.879000  1.0
  C  C453  1  0.554600  0.871900  0.591800  1.0
  C  C454  1  0.945400  0.628100  0.091800  1.0
  C  C455  1  0.445400  0.128100  0.408200  1.0
  C  C456  1  0.054600  0.371900  0.908200  1.0
  C  C457  1  0.555400  0.925900  0.605600  1.0
  C  C458  1  0.944600  0.574100  0.105600  1.0
  C  C459  1  0.444600  0.074100  0.394400  1.0
  C  C460  1  0.055400  0.425900  0.894400  1.0
  C  C461  1  0.535100  0.939800  0.648900  1.0
  C  C462  1  0.964900  0.560200  0.148900  1.0
  C  C463  1  0.464900  0.060200  0.351100  1.0
  C  C464  1  0.035100  0.439800  0.851100  1.0
  C  C465  1  0.513900  0.897600  0.678300  1.0
  C  C466  1  0.986100  0.602400  0.178300  1.0
  C  C467  1  0.486100  0.102400  0.321700  1.0
  C  C468  1  0.013900  0.397600  0.821700  1.0
  C  C469  1  0.575300  0.859800  0.543900  1.0
  C  C470  1  0.924700  0.640200  0.043900  1.0
  C  C471  1  0.424700  0.140200  0.456100  1.0
  C  C472  1  0.075300  0.359800  0.956100  1.0
  C  C473  1  0.320700  0.586300  0.747100  1.0
  C  C474  1  0.179300  0.913700  0.247100  1.0
  C  C475  1  0.679300  0.413700  0.252900  1.0
  C  C476  1  0.820700  0.086300  0.752900  1.0
  C  C477  1  0.204100  0.614800  0.667100  1.0
  C  C478  1  0.295900  0.885200  0.167100  1.0
  C  C479  1  0.795900  0.385200  0.332900  1.0
  C  C480  1  0.704100  0.114800  0.832900  1.0
  C  C481  1  0.252300  0.594300  0.683300  1.0
  C  C482  1  0.247700  0.905700  0.183300  1.0
  C  C483  1  0.747700  0.405700  0.316700  1.0
  C  C484  1  0.752300  0.094300  0.816700  1.0
  C  C485  1  0.269200  0.603100  0.727800  1.0
  C  C486  1  0.230800  0.896900  0.227800  1.0
  C  C487  1  0.730800  0.396900  0.272200  1.0
  C  C488  1  0.769200  0.103100  0.772200  1.0
  C  C489  1  0.236800  0.632300  0.758800  1.0
  C  C490  1  0.263200  0.867700  0.258800  1.0
  C  C491  1  0.763200  0.367700  0.241200  1.0
  C  C492  1  0.736800  0.132300  0.741200  1.0
  C  C493  1  0.188100  0.651700  0.744800  1.0
  C  C494  1  0.311900  0.848300  0.244800  1.0
  C  C495  1  0.811900  0.348300  0.255200  1.0
  C  C496  1  0.688100  0.151700  0.755200  1.0
  C  C497  1  0.171300  0.641800  0.698300  1.0
  C  C498  1  0.328700  0.858200  0.198300  1.0
  C  C499  1  0.828700  0.358200  0.301700  1.0
  C  C500  1  0.671300  0.141800  0.801700  1.0
  C  C501  1  0.174300  0.612700  0.622100  1.0
  C  C502  1  0.325700  0.887300  0.122100  1.0
  C  C503  1  0.825700  0.387300  0.377900  1.0
  C  C504  1  0.674300  0.112700  0.877900  1.0
  C  C505  1  0.183400  0.592700  0.578300  1.0
  C  C506  1  0.316600  0.907300  0.078300  1.0
  C  C507  1  0.816600  0.407300  0.421700  1.0
  C  C508  1  0.683400  0.092700  0.921700  1.0
  C  C509  1  0.145400  0.598200  0.543000  1.0
  C  C510  1  0.354600  0.901800  0.043000  1.0
  C  C511  1  0.854600  0.401800  0.457000  1.0
  C  C512  1  0.645400  0.098200  0.957000  1.0
  C  C513  1  0.097400  0.622800  0.552500  1.0
  C  C514  1  0.402600  0.877200  0.052500  1.0
  C  C515  1  0.902600  0.377200  0.447500  1.0
  C  C516  1  0.597400  0.122800  0.947500  1.0
  C  C517  1  0.088400  0.644000  0.595800  1.0
  C  C518  1  0.411600  0.856000  0.095800  1.0
  C  C519  1  0.911600  0.356000  0.404200  1.0
  C  C520  1  0.588400  0.144000  0.904200  1.0
  C  C521  1  0.126600  0.638400  0.630500  1.0
  C  C522  1  0.373400  0.861600  0.130500  1.0
  C  C523  1  0.873400  0.361600  0.369500  1.0
  C  C524  1  0.626600  0.138400  0.869500  1.0
  C  C525  1  0.155100  0.579300  0.495000  1.0
  C  C526  1  0.344900  0.920700  0.995000  1.0
  C  C527  1  0.844900  0.420700  0.505000  1.0
  C  C528  1  0.655100  0.079300  0.005000  1.0
  N  N529  1  0.745300  0.533900  0.865600  1.0
  N  N530  1  0.754700  0.966100  0.365600  1.0
  N  N531  1  0.254700  0.466100  0.134400  1.0
  N  N532  1  0.245300  0.033900  0.634400  1.0
  N  N533  1  0.707700  0.119000  0.627700  1.0
  N  N534  1  0.792300  0.381000  0.127700  1.0
  N  N535  1  0.292300  0.881000  0.372300  1.0
  N  N536  1  0.207700  0.619000  0.872300  1.0
  N  N537  1  0.931300  0.777300  0.528000  1.0
  N  N538  1  0.568700  0.722700  0.028000  1.0
  N  N539  1  0.068700  0.222700  0.472000  1.0
  N  N540  1  0.431300  0.277300  0.972000  1.0
  N  N541  1  0.301900  0.236200  0.814500  1.0
  N  N542  1  0.198100  0.263800  0.314500  1.0
  N  N543  1  0.698100  0.763800  0.185500  1.0
  N  N544  1  0.801900  0.736200  0.685500  1.0
  N  N545  1  0.492500  0.898900  0.722200  1.0
  N  N546  1  0.007500  0.601100  0.222200  1.0
  N  N547  1  0.507500  0.101100  0.277800  1.0
  N  N548  1  0.992500  0.398900  0.777800  1.0
  N  N549  1  0.126600  0.656300  0.676000  1.0
  N  N550  1  0.373400  0.843700  0.176000  1.0
  N  N551  1  0.873400  0.343700  0.324000  1.0
  N  N552  1  0.626600  0.156300  0.824000  1.0
  O  O553  1  0.712200  0.015000  0.671400  1
  O  O554  1  0.787800  0.485000  0.171400  1
  O  O555  1  0.287800  0.985000  0.328600  1
  O  O556  1  0.212200  0.515000  0.828600  1
  O  O557  1  0.241500  0.158400  0.875700  1
  O  O558  1  0.258500  0.341600  0.375700  1
  O  O559  1  0.758500  0.841600  0.124300  1
  O  O560  1  0.741500  0.658400  0.624300  1
  O  O561  1  0.487000  0.009700  0.754300  1
  O  O562  1  0.013000  0.490300  0.254300  1
  O  O563  1  0.513000  0.990300  0.245700  1
  O  O564  1  0.987000  0.509700  0.745700  1
  O  O565  1  0.066300  0.747300  0.695300  1
  O  O566  1  0.433700  0.752700  0.195300  1
  O  O567  1  0.933700  0.252700  0.304700  1
  O  O568  1  0.566300  0.247300  0.804700  1
  O  O569  1  0.762900  0.479000  0.652750  1.0
  O  O570  1  0.737100  0.021000  0.152750  1.0
  O  O571  1  0.237100  0.521000  0.347250  1.0
  O  O572  1  0.262900  0.979000  0.847250  1.0
  O  O573  1  0.847600  0.465500  0.673480  1.0
  O  O574  1  0.652400  0.034500  0.173480  1.0
  O  O575  1  0.152400  0.534500  0.326520  1.0
  O  O576  1  0.347600  0.965500  0.826520  1.0
  O  O577  1  0.514100  0.547300  0.769310  1.0
  O  O578  1  0.985900  0.952700  0.269310  1.0
  O  O579  1  0.485900  0.452700  0.230690  1.0
  O  O580  1  0.014100  0.047300  0.730690  1.0
  O  O581  1  0.488500  0.566100  0.841080  1.0
  O  O582  1  0.011500  0.933900  0.341080  1.0
  O  O583  1  0.511500  0.433900  0.158920  1.0
  O  O584  1  0.988500  0.066100  0.658920  1.0
  O  O585  1  0.753270  0.374890  0.595880  1.0
  O  O586  1  0.746730  0.125110  0.095880  1.0
  O  O587  1  0.246730  0.625110  0.404120  1.0
  O  O588  1  0.253270  0.874890  0.904120  1.0
  O  O589  1  0.837120  0.360760  0.617750  1.0
  O  O590  1  0.662880  0.139240  0.117750  1.0
  O  O591  1  0.162880  0.639240  0.382250  1.0
  O  O592  1  0.337120  0.860760  0.882250  1.0
  O  O593  1  0.482350  0.194910  0.561320  1.0
  O  O594  1  0.017650  0.305090  0.061320  1.0
  O  O595  1  0.517650  0.805090  0.438680  1.0
  O  O596  1  0.982350  0.694910  0.938680  1.0
  O  O597  1  0.453650  0.108360  0.573150  1.0
  O  O598  1  0.046350  0.391640  0.073150  1.0
  O  O599  1  0.546350  0.891640  0.426850  1.0
  O  O600  1  0.953650  0.608360  0.926850  1.0
  O  O601  1  0.810030  0.540270  0.569830  1.0
  O  O602  1  0.689970  0.959730  0.069830  1.0
  O  O603  1  0.189970  0.459730  0.430170  1.0
  O  O604  1  0.310030  0.040270  0.930170  1.0
  O  O605  1  0.894550  0.526350  0.590300  1.0
  O  O606  1  0.605450  0.973650  0.090300  1.0
  O  O607  1  0.105450  0.473650  0.409700  1.0
  O  O608  1  0.394550  0.026350  0.909700  1.0
  O  O609  1  0.677270  0.781030  0.487660  1.0
  O  O610  1  0.822730  0.718970  0.987660  1.0
  O  O611  1  0.322730  0.218970  0.512340  1.0
  O  O612  1  0.177270  0.281030  0.012340  1.0
  O  O613  1  0.705500  0.868330  0.475790  1.0
  O  O614  1  0.794500  0.631670  0.975790  1.0
  O  O615  1  0.294500  0.131670  0.524210  1.0
  O  O616  1  0.205500  0.368330  0.024210  1.0
  O  O617  1  0.407780  0.473510  0.756200  1.0
  O  O618  1  0.092220  0.026490  0.256200  1.0
  O  O619  1  0.592220  0.526490  0.243800  1.0
  O  O620  1  0.907780  0.973510  0.743800  1.0
  O  O621  1  0.382000  0.491370  0.828050  1.0
  O  O622  1  0.118000  0.008630  0.328050  1.0
  O  O623  1  0.618000  0.508630  0.171950  1.0
  O  O624  1  0.882000  0.991370  0.671950  1.0
  O  O625  1  0.377100  0.225630  0.605950  1.0
  O  O626  1  0.122900  0.274370  0.105950  1.0
  O  O627  1  0.622900  0.774370  0.394050  1.0
  O  O628  1  0.877100  0.725630  0.894050  1.0
  O  O629  1  0.348400  0.137950  0.616200  1.0
  O  O630  1  0.151600  0.362050  0.116200  1.0
  O  O631  1  0.651600  0.862050  0.383800  1.0
  O  O632  1  0.848400  0.637950  0.883800  1.0
  O  O633  1  0.458500  0.641850  0.734050  1.0
  O  O634  1  0.041500  0.858150  0.234050  1.0
  O  O635  1  0.541500  0.358150  0.265950  1.0
  O  O636  1  0.958500  0.141850  0.765950  1.0
  O  O637  1  0.432900  0.659960  0.806020  1.0
  O  O638  1  0.067100  0.840040  0.306020  1.0
  O  O639  1  0.567100  0.340040  0.193980  1.0
  O  O640  1  0.932900  0.159960  0.693980  1.0
  O  O641  1  0.571300  0.810540  0.530750  1.0
  O  O642  1  0.928700  0.689460  0.030750  1.0
  O  O643  1  0.428700  0.189460  0.469250  1.0
  O  O644  1  0.071300  0.310540  0.969250  1.0
  O  O645  1  0.598800  0.897690  0.519710  1.0
  O  O646  1  0.901200  0.602310  0.019710  1.0
  O  O647  1  0.401200  0.102310  0.480290  1.0
  O  O648  1  0.098800  0.397690  0.980290  1.0
  O  O649  1  0.354200  0.569300  0.720640  1.0
  O  O650  1  0.145800  0.930700  0.220640  1.0
  O  O651  1  0.645800  0.430700  0.279360  1.0
  O  O652  1  0.854200  0.069300  0.779360  1.0
  O  O653  1  0.329400  0.588730  0.791680  1.0
  O  O654  1  0.170600  0.911270  0.291680  1.0
  O  O655  1  0.670600  0.411270  0.208320  1.0
  O  O656  1  0.829400  0.088730  0.708320  1.0
  O  O657  1  0.200600  0.562800  0.485480  1.0
  O  O658  1  0.299400  0.937200  0.985480  1.0
  O  O659  1  0.799400  0.437200  0.514520  1.0
  O  O660  1  0.700600  0.062800  0.014520  1.0
  O  O661  1  0.116420  0.578800  0.464530  1.0
  O  O662  1  0.383580  0.921200  0.964530  1.0
  O  O663  1  0.883580  0.421200  0.535470  1.0
  O  O664  1  0.616420  0.078800  0.035470  1.0
  O  O665  1  0.683500  0.468500  0.559000  1.0
  O  O666  1  0.816500  0.031500  0.059000  1.0
  O  O667  1  0.316500  0.531500  0.441000  1.0
  O  O668  1  0.183500  0.968500  0.941000  1.0
  O  O669  1  0.960800  0.430200  0.628900  1.0
  O  O670  1  0.539200  0.069800  0.128900  1.0
  O  O671  1  0.039200  0.569800  0.371100  1.0
  O  O672  1  0.460800  0.930200  0.871100  1.0
  O  O673  1  0.465600  0.536000  0.666000  1.0
  O  O674  1  0.034400  0.964000  0.166000  1.0
  O  O675  1  0.534400  0.464000  0.334000  1.0
  O  O676  1  0.965600  0.036000  0.834000  1.0
  O  O677  1  0.440400  0.303800  0.521900  1.0
  O  O678  1  0.059600  0.196200  0.021900  1.0
  O  O679  1  0.559600  0.696200  0.478100  1.0
  O  O680  1  0.940400  0.803800  0.978100  1.0
  O  O681  1  0.664700  0.981900  0.436500  1.0
  O  O682  1  0.835300  0.518100  0.936500  1.0
  O  O683  1  0.335300  0.018100  0.563500  1.0
  O  O684  1  0.164700  0.481900  0.063500  1.0
  O  O685  1  0.357000  0.578000  0.897000  1.0
  O  O686  1  0.143000  0.922000  0.397000  1.0
  O  O687  1  0.643000  0.422000  0.103000  1.0
  O  O688  1  0.857000  0.078000  0.603000  1.0
