# generated using pymatgen
data_Si2H38Pd2C37N4Cl4O
_symmetry_space_group_name_H-M   'P 1'
_cell_length_a   13.35100000
_cell_length_b   13.93050000
_cell_length_c   22.35370000
_cell_angle_alpha   106.61800000
_cell_angle_beta   90.00000000
_cell_angle_gamma   90.00000000
_symmetry_Int_Tables_number   1
_chemical_formula_structural   Si2H38Pd2C37N4Cl4O
_chemical_formula_sum   'Si8 H152 Pd8 C148 N16 Cl16 O4'
_cell_volume   3983.83130609
_cell_formula_units_Z   4
loop_
 _symmetry_equiv_pos_site_id
 _symmetry_equiv_pos_as_xyz
  1  'x, y, z'
loop_
 _atom_site_type_symbol
 _atom_site_label
 _atom_site_symmetry_multiplicity
 _atom_site_fract_x
 _atom_site_fract_y
 _atom_site_fract_z
 _atom_site_occupancy
  Si  Si1  1  0.107700  0.324730  0.260890  1
  Si  Si2  1  0.607700  0.175270  0.239110  1
  Si  Si3  1  0.892300  0.675270  0.739110  1
  Si  Si4  1  0.392300  0.824730  0.760890  1
  Si  Si5  1  0.739180  0.707070  0.107910  1
  Si  Si6  1  0.239180  0.792930  0.392090  1
  Si  Si7  1  0.260820  0.292930  0.892090  1
  Si  Si8  1  0.760820  0.207070  0.607910  1
  H  H9  1  0.209300  0.461200  0.254400  1
  H  H10  1  0.709300  0.038800  0.245600  1
  H  H11  1  0.790700  0.538800  0.745600  1
  H  H12  1  0.290700  0.961200  0.754400  1
  H  H13  1  0.259500  0.406900  0.301000  1
  H  H14  1  0.759500  0.093100  0.199000  1
  H  H15  1  0.740500  0.593100  0.699000  1
  H  H16  1  0.240500  0.906900  0.801000  1
  H  H17  1  0.167200  0.481700  0.323900  1
  H  H18  1  0.667200  0.018300  0.176100  1
  H  H19  1  0.832800  0.518300  0.676100  1
  H  H20  1  0.332800  0.981700  0.823900  1
  H  H21  1  0.974300  0.303600  0.152900  1
  H  H22  1  0.474300  0.196400  0.347100  1
  H  H23  1  0.025700  0.696400  0.847100  1
  H  H24  1  0.525700  0.803600  0.652900  1
  H  H25  1  0.816700  0.358700  0.135800  1
  H  H26  1  0.316700  0.141300  0.364200  1
  H  H27  1  0.183300  0.641300  0.864200  1
  H  H28  1  0.683300  0.858700  0.635800  1
  H  H29  1  0.720900  0.450600  0.220200  1
  H  H30  1  0.220900  0.049400  0.279800  1
  H  H31  1  0.279100  0.549400  0.779800  1
  H  H32  1  0.779100  0.950600  0.720200  1
  H  H33  1  0.786300  0.487300  0.320300  1
  H  H34  1  0.286300  0.012700  0.179700  1
  H  H35  1  0.213700  0.512700  0.679700  1
  H  H36  1  0.713700  0.987300  0.820300  1
  H  H37  1  0.946900  0.437200  0.337000  1
  H  H38  1  0.446900  0.062800  0.163000  1
  H  H39  1  0.053100  0.562800  0.663000  1
  H  H40  1  0.553100  0.937200  0.837000  1
  H  H41  1  0.050900  0.127500  0.177300  1
  H  H42  1  0.550900  0.372500  0.322700  1
  H  H43  1  0.949100  0.872500  0.822700  1
  H  H44  1  0.449100  0.627500  0.677300  1
  H  H45  1  0.230400  0.067800  0.032900  1
  H  H46  1  0.730400  0.432200  0.467100  1
  H  H47  1  0.769600  0.932200  0.967100  1
  H  H48  1  0.269600  0.567800  0.532900  1
  H  H49  1  0.317800  0.215600  0.073200  1
  H  H50  1  0.817800  0.284400  0.426800  1
  H  H51  1  0.682200  0.784400  0.926800  1
  H  H52  1  0.182200  0.715600  0.573200  1
  H  H53  1  0.271500  0.323100  0.169200  1
  H  H54  1  0.771500  0.176900  0.330800  1
  H  H55  1  0.728500  0.676900  0.830800  1
  H  H56  1  0.228500  0.823100  0.669200  1
  H  H57  1  0.990200  0.160000  0.272600  1
  H  H58  1  0.490200  0.340000  0.227400  1
  H  H59  1  0.009800  0.840000  0.727400  1
  H  H60  1  0.509800  0.660000  0.772600  1
  H  H61  1  0.045700  0.109700  0.433600  1
  H  H62  1  0.545700  0.390300  0.066400  1
  H  H63  1  0.954300  0.890300  0.566400  1
  H  H64  1  0.454300  0.609700  0.933600  1
  H  H65  1  0.154200  0.243400  0.460500  1
  H  H66  1  0.654200  0.256600  0.039500  1
  H  H67  1  0.845800  0.756600  0.539500  1
  H  H68  1  0.345800  0.743400  0.960500  1
  H  H69  1  0.186800  0.333800  0.390400  1
  H  H70  1  0.686800  0.166200  0.109600  1
  H  H71  1  0.813200  0.666200  0.609600  1
  H  H72  1  0.313200  0.833800  0.890400  1
  H  H73  1  0.639100  0.567900  0.112800  1
  H  H74  1  0.139100  0.932100  0.387200  1
  H  H75  1  0.360900  0.432100  0.887200  1
  H  H76  1  0.860900  0.067900  0.612800  1
  H  H77  1  0.751000  0.531100  0.092900  1
  H  H78  1  0.251000  0.968900  0.407100  1
  H  H79  1  0.249000  0.468900  0.907100  1
  H  H80  1  0.749000  0.031100  0.592900  1
  H  H81  1  0.675700  0.552800  0.042600  1
  H  H82  1  0.175700  0.947200  0.457400  1
  H  H83  1  0.324300  0.447200  0.957400  1
  H  H84  1  0.824300  0.052800  0.542600  1
  H  H85  1  0.722700  0.882200  0.059700  1
  H  H86  1  0.222700  0.617800  0.440300  1
  H  H87  1  0.277300  0.117800  0.940300  1
  H  H88  1  0.777300  0.382200  0.559700  1
  H  H89  1  0.593700  0.972300  0.032600  1
  H  H90  1  0.093700  0.527700  0.467400  1
  H  H91  1  0.406300  0.027700  0.967400  1
  H  H92  1  0.906300  0.472300  0.532600  1
  H  H93  1  0.426600  0.935900  0.050100  1
  H  H94  1  0.926600  0.564100  0.449900  1
  H  H95  1  0.573400  0.064100  0.949900  1
  H  H96  1  0.073400  0.435900  0.550100  1
  H  H97  1  0.393400  0.807100  0.093300  1
  H  H98  1  0.893400  0.692900  0.406700  1
  H  H99  1  0.606600  0.192900  0.906700  1
  H  H100  1  0.106600  0.307100  0.593300  1
  H  H101  1  0.523400  0.716100  0.119600  1
  H  H102  1  0.023400  0.783900  0.380400  1
  H  H103  1  0.476600  0.283900  0.880400  1
  H  H104  1  0.976600  0.216100  0.619600  1
  H  H105  1  0.836000  0.879900  0.197900  1
  H  H106  1  0.336000  0.620100  0.302100  1
  H  H107  1  0.164000  0.120100  0.802100  1
  H  H108  1  0.664000  0.379900  0.697900  1
  H  H109  1  0.839400  0.827600  0.361600  1
  H  H110  1  0.339400  0.672400  0.138400  1
  H  H111  1  0.160600  0.172400  0.638400  1
  H  H112  1  0.660600  0.327600  0.861600  1
  H  H113  1  0.755800  0.676400  0.321100  1
  H  H114  1  0.255800  0.823600  0.178900  1
  H  H115  1  0.244200  0.323600  0.678900  1
  H  H116  1  0.744200  0.176400  0.821100  1
  H  H117  1  0.716300  0.624000  0.214500  1
  H  H118  1  0.216300  0.876000  0.285500  1
  H  H119  1  0.283700  0.376000  0.785500  1
  H  H120  1  0.783700  0.124000  0.714500  1
  H  H121  1  0.891600  0.857100  0.112500  1
  H  H122  1  0.391600  0.642900  0.387500  1
  H  H123  1  0.108400  0.142900  0.887500  1
  H  H124  1  0.608400  0.357100  0.612500  1
  H  H125  1  0.056300  0.768400  0.960800  1
  H  H126  1  0.556300  0.731600  0.539200  1
  H  H127  1  0.943700  0.231600  0.039200  1
  H  H128  1  0.443700  0.268400  0.460800  1
  H  H129  1  0.965700  0.618300  0.927800  1
  H  H130  1  0.465700  0.881700  0.572200  1
  H  H131  1  0.034300  0.381700  0.072200  1
  H  H132  1  0.534300  0.118300  0.427800  1
  H  H133  1  0.835900  0.590400  0.990600  1
  H  H134  1  0.335900  0.909600  0.509400  1
  H  H135  1  0.164100  0.409600  0.009400  1
  H  H136  1  0.664100  0.090400  0.490600  1
  H  H137  1  0.064600  0.599100  0.057800  1
  H  H138  1  0.564600  0.900900  0.442200  1
  H  H139  1  0.935400  0.400900  0.942200  1
  H  H140  1  0.435400  0.099100  0.557800  1
  H  H141  1  0.151000  0.592100  0.106000  1
  H  H142  1  0.651000  0.907900  0.394000  1
  H  H143  1  0.849000  0.407900  0.894000  1
  H  H144  1  0.349000  0.092100  0.606000  1
  H  H145  1  0.096600  0.696800  0.112100  1
  H  H146  1  0.596600  0.803200  0.387900  1
  H  H147  1  0.903400  0.303200  0.887900  1
  H  H148  1  0.403400  0.196800  0.612100  1
  H  H149  1  0.027800  0.708800  0.226700  1
  H  H150  1  0.527800  0.791200  0.273300  1
  H  H151  1  0.972200  0.291200  0.773300  1
  H  H152  1  0.472200  0.208800  0.726700  1
  H  H153  1  0.094900  0.611700  0.221800  1
  H  H154  1  0.594900  0.888300  0.278200  1
  H  H155  1  0.905100  0.388300  0.778200  1
  H  H156  1  0.405100  0.111700  0.721800  1
  H  H157  1  0.977100  0.608800  0.234300  1
  H  H158  1  0.477100  0.891200  0.265700  1
  H  H159  1  0.022900  0.391200  0.765700  1
  H  H160  1  0.522900  0.108800  0.734300  1
  Pd  Pd161  1  0.058480  0.955440  0.068960  1
  Pd  Pd162  1  0.558480  0.544560  0.431040  1
  Pd  Pd163  1  0.941520  0.044560  0.931040  1
  Pd  Pd164  1  0.441520  0.455440  0.568960  1
  Pd  Pd165  1  0.927390  0.993180  0.317850  1
  Pd  Pd166  1  0.427390  0.506820  0.182150  1
  Pd  Pd167  1  0.072610  0.006820  0.682150  1
  Pd  Pd168  1  0.572610  0.493180  0.817850  1
  C  C169  1  0.196400  0.431200  0.288300  1
  C  C170  1  0.696400  0.068800  0.211700  1
  C  C171  1  0.803600  0.568800  0.711700  1
  C  C172  1  0.303600  0.931200  0.788300  1
  C  C173  1  0.981000  0.364000  0.246300  1
  C  C174  1  0.481000  0.136000  0.253700  1
  C  C175  1  0.019000  0.636000  0.753700  1
  C  C176  1  0.519000  0.864000  0.746300  1
  C  C177  1  0.937100  0.342400  0.187600  1
  C  C178  1  0.437100  0.157600  0.312400  1
  C  C179  1  0.062900  0.657600  0.812400  1
  C  C180  1  0.562900  0.842400  0.687600  1
  C  C181  1  0.842600  0.374200  0.177000  1
  C  C182  1  0.342600  0.125800  0.323000  1
  C  C183  1  0.157400  0.625800  0.823000  1
  C  C184  1  0.657400  0.874200  0.677000  1
  C  C185  1  0.786200  0.428600  0.226800  1
  C  C186  1  0.286200  0.071400  0.273200  1
  C  C187  1  0.213800  0.571400  0.773200  1
  C  C188  1  0.713800  0.928600  0.726800  1
  C  C189  1  0.825300  0.450600  0.285700  1
  C  C190  1  0.325300  0.049400  0.214300  1
  C  C191  1  0.174700  0.549400  0.714300  1
  C  C192  1  0.674700  0.950600  0.785700  1
  C  C193  1  0.921100  0.419900  0.295600  1
  C  C194  1  0.421100  0.080100  0.204400  1
  C  C195  1  0.078900  0.580100  0.704400  1
  C  C196  1  0.578900  0.919900  0.795600  1
  C  C197  1  0.156000  0.237500  0.186200  1
  C  C198  1  0.656000  0.262500  0.313800  1
  C  C199  1  0.844000  0.762500  0.813800  1
  C  C200  1  0.344000  0.737500  0.686200  1
  C  C201  1  0.107200  0.146300  0.157100  1
  C  C202  1  0.607200  0.353700  0.342900  1
  C  C203  1  0.892800  0.853700  0.842900  1
  C  C204  1  0.392800  0.646300  0.657100  1
  C  C205  1  0.211800  0.111400  0.072400  1
  C  C206  1  0.711800  0.388600  0.427600  1
  C  C207  1  0.788200  0.888600  0.927600  1
  C  C208  1  0.288200  0.611400  0.572400  1
  C  C209  1  0.263500  0.198900  0.095900  1
  C  C210  1  0.763500  0.301100  0.404100  1
  C  C211  1  0.736500  0.801100  0.904100  1
  C  C212  1  0.236500  0.698900  0.595900  1
  C  C213  1  0.236100  0.262100  0.152500  1
  C  C214  1  0.736100  0.237900  0.347500  1
  C  C215  1  0.763900  0.737900  0.847500  1
  C  C216  1  0.263900  0.762100  0.652500  1
  C  C217  1  0.090900  0.256500  0.322200  1
  C  C218  1  0.590900  0.243500  0.177800  1
  C  C219  1  0.909100  0.743500  0.677800  1
  C  C220  1  0.409100  0.756500  0.822200  1
  C  C221  1  0.026300  0.176700  0.310900  1
  C  C222  1  0.526300  0.323300  0.189100  1
  C  C223  1  0.973700  0.823300  0.689100  1
  C  C224  1  0.473700  0.676700  0.810900  1
  C  C225  1  0.057700  0.147300  0.405000  1
  C  C226  1  0.557700  0.352700  0.095000  1
  C  C227  1  0.942300  0.852700  0.595000  1
  C  C228  1  0.442300  0.647300  0.905000  1
  C  C229  1  0.122000  0.226000  0.420900  1
  C  C230  1  0.622000  0.274000  0.079100  1
  C  C231  1  0.878000  0.774000  0.579100  1
  C  C232  1  0.378000  0.726000  0.920900  1
  C  C233  1  0.140300  0.280000  0.379800  1
  C  C234  1  0.640300  0.220000  0.120200  1
  C  C235  1  0.859700  0.720000  0.620200  1
  C  C236  1  0.359700  0.780000  0.879800  1
  C  C237  1  0.696100  0.573900  0.086500  1
  C  C238  1  0.196100  0.926100  0.413500  1
  C  C239  1  0.303900  0.426100  0.913500  1
  C  C240  1  0.803900  0.073900  0.586500  1
  C  C241  1  0.637800  0.788300  0.091600  1
  C  C242  1  0.137800  0.711700  0.408400  1
  C  C243  1  0.362200  0.211700  0.908400  1
  C  C244  1  0.862200  0.288300  0.591600  1
  C  C245  1  0.655500  0.865500  0.066400  1
  C  C246  1  0.155500  0.634500  0.433600  1
  C  C247  1  0.344500  0.134500  0.933600  1
  C  C248  1  0.844500  0.365500  0.566400  1
  C  C249  1  0.578700  0.919900  0.050600  1
  C  C250  1  0.078700  0.580100  0.449400  1
  C  C251  1  0.421300  0.080100  0.949400  1
  C  C252  1  0.921300  0.419900  0.550600  1
  C  C253  1  0.479700  0.898500  0.060700  1
  C  C254  1  0.979700  0.601500  0.439300  1
  C  C255  1  0.520300  0.101500  0.939300  1
  C  C256  1  0.020300  0.398500  0.560700  1
  C  C257  1  0.460600  0.823000  0.086100  1
  C  C258  1  0.960600  0.677000  0.413900  1
  C  C259  1  0.539400  0.177000  0.913900  1
  C  C260  1  0.039400  0.323000  0.586100  1
  C  C261  1  0.538600  0.768400  0.101600  1
  C  C262  1  0.038600  0.731600  0.398400  1
  C  C263  1  0.461400  0.231600  0.898400  1
  C  C264  1  0.961400  0.268400  0.601600  1
  C  C265  1  0.771700  0.748100  0.194000  1
  C  C266  1  0.271700  0.751900  0.306000  1
  C  C267  1  0.228300  0.251900  0.806000  1
  C  C268  1  0.728300  0.248100  0.694000  1
  C  C269  1  0.819600  0.836600  0.222500  1
  C  C270  1  0.319600  0.663400  0.277500  1
  C  C271  1  0.180400  0.163400  0.777500  1
  C  C272  1  0.680400  0.336600  0.722500  1
  C  C273  1  0.821600  0.806900  0.318600  1
  C  C274  1  0.321600  0.693100  0.181400  1
  C  C275  1  0.178400  0.193100  0.681400  1
  C  C276  1  0.678400  0.306900  0.818600  1
  C  C277  1  0.772700  0.716900  0.294900  1
  C  C278  1  0.272700  0.783100  0.205100  1
  C  C279  1  0.227300  0.283100  0.705100  1
  C  C280  1  0.727300  0.216900  0.794900  1
  C  C281  1  0.748600  0.686600  0.232000  1
  C  C282  1  0.248600  0.813400  0.268000  1
  C  C283  1  0.251400  0.313400  0.768000  1
  C  C284  1  0.751400  0.186600  0.732000  1
  C  C285  1  0.850000  0.721900  0.059300  1
  C  C286  1  0.350000  0.778100  0.440700  1
  C  C287  1  0.150000  0.278100  0.940700  1
  C  C288  1  0.650000  0.221900  0.559300  1
  C  C289  1  0.905700  0.807200  0.074600  1
  C  C290  1  0.405700  0.692800  0.425400  1
  C  C291  1  0.094300  0.192800  0.925400  1
  C  C292  1  0.594300  0.307200  0.574600  1
  C  C293  1  0.002800  0.756200  0.985700  1
  C  C294  1  0.502800  0.743800  0.514300  1
  C  C295  1  0.997200  0.243800  0.014300  1
  C  C296  1  0.497200  0.256200  0.485700  1
  C  C297  1  0.949700  0.666900  0.966000  1
  C  C298  1  0.449700  0.833100  0.534000  1
  C  C299  1  0.050300  0.333100  0.034000  1
  C  C300  1  0.550300  0.166900  0.466000  1
  C  C301  1  0.873300  0.650900  0.003200  1
  C  C302  1  0.373300  0.849100  0.496800  1
  C  C303  1  0.126700  0.349100  0.996800  1
  C  C304  1  0.626700  0.150900  0.503200  1
  C  C305  1  0.010700  0.600000  0.143400  1
  C  C306  1  0.510700  0.900000  0.356600  1
  C  C307  1  0.989300  0.400000  0.856600  1
  C  C308  1  0.489300  0.100000  0.643400  1
  C  C309  1  0.087300  0.624100  0.101200  1
  C  C310  1  0.587300  0.875900  0.398800  1
  C  C311  1  0.912700  0.375900  0.898800  1
  C  C312  1  0.412700  0.124100  0.601200  1
  C  C313  1  0.029200  0.635400  0.212500  1
  C  C314  1  0.529200  0.864600  0.287500  1
  C  C315  1  0.970800  0.364600  0.787500  1
  C  C316  1  0.470800  0.135400  0.712500  1
  N  N317  1  0.136500  0.086200  0.103200  1
  N  N318  1  0.636500  0.413800  0.396800  1
  N  N319  1  0.863500  0.913800  0.896800  1
  N  N320  1  0.363500  0.586200  0.603200  1
  N  N321  1  0.010500  0.121300  0.349200  1
  N  N322  1  0.510500  0.378700  0.150800  1
  N  N323  1  0.989500  0.878700  0.650800  1
  N  N324  1  0.489500  0.621300  0.849200  1
  N  N325  1  0.844400  0.865200  0.283300  1
  N  N326  1  0.344400  0.634800  0.216700  1
  N  N327  1  0.155600  0.134800  0.716700  1
  N  N328  1  0.655600  0.365200  0.783300  1
  N  N329  1  0.980400  0.823900  0.038000  1
  N  N330  1  0.480400  0.676100  0.462000  1
  N  N331  1  0.019600  0.176100  0.962000  1
  N  N332  1  0.519600  0.323900  0.538000  1
  Cl  Cl333  1  0.909830  0.043520  0.083440  1
  Cl  Cl334  1  0.409830  0.456480  0.416560  1
  Cl  Cl335  1  0.090170  0.956480  0.916560  1
  Cl  Cl336  1  0.590170  0.543520  0.583440  1
  Cl  Cl337  1  0.206170  0.866810  0.057400  1
  Cl  Cl338  1  0.706170  0.633190  0.442600  1
  Cl  Cl339  1  0.793830  0.133190  0.942600  1
  Cl  Cl340  1  0.293830  0.366810  0.557400  1
  Cl  Cl341  1  0.832600  0.038800  0.406540  1
  Cl  Cl342  1  0.332600  0.461200  0.093460  1
  Cl  Cl343  1  0.167400  0.961200  0.593460  1
  Cl  Cl344  1  0.667400  0.538800  0.906540  1
  Cl  Cl345  1  0.029780  0.944870  0.231710  1
  Cl  Cl346  1  0.529780  0.555130  0.268290  1
  Cl  Cl347  1  0.970220  0.055130  0.768290  1
  Cl  Cl348  1  0.470220  0.444870  0.731710  1
  O  O349  1  0.936000  0.553300  0.122600  1
  O  O350  1  0.436000  0.946700  0.377400  1
  O  O351  1  0.064000  0.446700  0.877400  1
  O  O352  1  0.564000  0.053300  0.622600  1
