# generated using pymatgen
data_CoB2H30C36N9O5F8
_symmetry_space_group_name_H-M   'P 1'
_cell_length_a   16.82700000
_cell_length_b   18.90900000
_cell_length_c   25.38100000
_cell_angle_alpha   87.22000000
_cell_angle_beta   84.72300000
_cell_angle_gamma   86.74000000
_symmetry_Int_Tables_number   1
_chemical_formula_structural   CoB2H30C36N9O5F8
_chemical_formula_sum   'Co8 B16 H240 C288 N72 O40 F64'
_cell_volume   8020.92157264
_cell_formula_units_Z   8
loop_
 _symmetry_equiv_pos_site_id
 _symmetry_equiv_pos_as_xyz
  1  'x, y, z'
loop_
 _atom_site_type_symbol
 _atom_site_label
 _atom_site_symmetry_multiplicity
 _atom_site_fract_x
 _atom_site_fract_y
 _atom_site_fract_z
 _atom_site_occupancy
  Co  Co1  1  0.724500  0.444860  0.890640  1
  Co  Co2  1  0.275500  0.555140  0.109360  1
  Co  Co3  1  0.797780  0.924750  0.819250  1
  Co  Co4  1  0.202220  0.075250  0.180750  1
  Co  Co5  1  0.943680  0.260360  0.555930  1
  Co  Co6  1  0.056320  0.739640  0.444070  1
  Co  Co7  1  0.399960  0.225130  0.697300  1
  Co  Co8  1  0.600040  0.774870  0.302700  1
  B  B9  1  0.362400  0.037900  0.506800  1
  B  B10  1  0.637600  0.962100  0.493200  1
  B  B11  1  0.282500  0.508700  0.604700  1
  B  B12  1  0.717500  0.491300  0.395300  1
  B  B13  1  0.165300  0.610400  0.781800  1
  B  B14  1  0.834700  0.389600  0.218200  1
  B  B15  1  0.174200  0.329400  0.393000  1
  B  B16  1  0.825800  0.670600  0.607000  1
  B  B17  1  0.677800  0.695500  0.993700  1
  B  B18  1  0.322200  0.304500  0.006300  1
  B  B19  1  0.144300  0.895100  0.839600  1
  B  B20  1  0.855700  0.104900  0.160400  1
  B  B21  1  0.126100  0.209200  0.862600  1
  B  B22  1  0.873900  0.790800  0.137400  1
  B  B23  1  0.722500  0.213500  0.738200  1
  B  B24  1  0.277500  0.786500  0.261800  1
  H  H25  1  0.403400  0.367300  0.524900  1
  H  H26  1  0.596600  0.632700  0.475100  1
  H  H27  1  0.311900  0.304600  0.483100  1
  H  H28  1  0.688100  0.695400  0.516900  1
  H  H29  1  0.247800  0.212100  0.530200  1
  H  H30  1  0.752200  0.787900  0.469800  1
  H  H31  1  0.277700  0.181200  0.615300  1
  H  H32  1  0.722300  0.818800  0.384700  1
  H  H33  1  0.565700  0.452900  0.655500  1
  H  H34  1  0.434300  0.547100  0.344500  1
  H  H35  1  0.491300  0.432500  0.577200  1
  H  H36  1  0.508700  0.567500  0.422800  1
  H  H37  1  0.598100  0.369600  0.740500  1
  H  H38  1  0.401900  0.630400  0.259500  1
  H  H39  1  0.544900  0.302300  0.752000  1
  H  H40  1  0.455100  0.697700  0.248000  1
  H  H41  1  0.421700  0.455400  0.738300  1
  H  H42  1  0.578300  0.544600  0.261700  1
  H  H43  1  0.346000  0.512500  0.806400  1
  H  H44  1  0.654000  0.487500  0.193600  1
  H  H45  1  0.367800  0.482100  0.894200  1
  H  H46  1  0.632200  0.517900  0.105800  1
  H  H47  1  0.467800  0.397400  0.914300  1
  H  H48  1  0.532200  0.602600  0.085700  1
  H  H49  1  0.559200  0.275800  0.836700  1
  H  H50  1  0.440800  0.724200  0.163300  1
  H  H51  1  0.622200  0.335500  0.823400  1
  H  H52  1  0.377800  0.664500  0.176600  1
  H  H53  1  0.537800  0.231000  0.935000  1
  H  H54  1  0.462200  0.769000  0.065000  1
  H  H55  1  0.610900  0.250300  0.015000  1
  H  H56  1  0.389100  0.749700  0.985000  1
  H  H57  1  0.706700  0.310100  0.065500  1
  H  H58  1  0.293300  0.689900  0.934500  1
  H  H59  1  0.787800  0.376100  0.111300  1
  H  H60  1  0.212200  0.623900  0.888700  1
  H  H61  1  0.837800  0.480000  0.070500  1
  H  H62  1  0.162200  0.520000  0.929500  1
  H  H63  1  0.814700  0.509000  0.982300  1
  H  H64  1  0.185300  0.491000  0.017700  1
  H  H65  1  0.973100  0.520600  0.574500  1
  H  H66  1  0.026900  0.479400  0.425500  1
  H  H67  1  0.113600  0.521000  0.558600  1
  H  H68  1  0.886400  0.479000  0.441400  1
  H  H69  1  0.186600  0.413900  0.537800  1
  H  H70  1  0.813400  0.586100  0.462200  1
  H  H71  1  0.119500  0.312700  0.532900  1
  H  H72  1  0.880500  0.687300  0.467100  1
  H  H73  1  0.698100  0.444700  0.587400  1
  H  H74  1  0.301900  0.555300  0.412600  1
  H  H75  1  0.823400  0.510600  0.576600  1
  H  H76  1  0.176600  0.489400  0.423400  1
  H  H77  1  0.686100  0.303500  0.624800  1
  H  H78  1  0.313900  0.696500  0.375200  1
  H  H79  1  0.752600  0.251200  0.596100  1
  H  H80  1  0.247400  0.748800  0.403900  1
  H  H81  1  0.709500  0.355100  0.492300  1
  H  H82  1  0.290500  0.644900  0.507700  1
  H  H83  1  0.622000  0.333600  0.429200  1
  H  H84  1  0.378000  0.666400  0.570800  1
  H  H85  1  0.521100  0.255000  0.449300  1
  H  H86  1  0.478900  0.745000  0.550700  1
  H  H87  1  0.512600  0.190800  0.529700  1
  H  H88  1  0.487400  0.809200  0.470300  1
  H  H89  1  0.653400  0.176600  0.620300  1
  H  H90  1  0.346600  0.823400  0.379700  1
  H  H91  1  0.584300  0.232300  0.641500  1
  H  H92  1  0.415700  0.767700  0.358500  1
  H  H93  1  0.593500  0.061200  0.574600  1
  H  H94  1  0.406500  0.938800  0.425400  1
  H  H95  1  0.475000  0.993100  0.608900  1
  H  H96  1  0.525000  0.006900  0.391100  1
  H  H97  1  0.345600  0.974100  0.662800  1
  H  H98  1  0.654400  0.025900  0.337200  1
  H  H99  1  0.226400  0.963200  0.717900  1
  H  H100  1  0.773600  0.036800  0.282100  1
  H  H101  1  0.178000  0.058500  0.769700  1
  H  H102  1  0.822000  0.941500  0.230300  1
  H  H103  1  0.245800  0.162900  0.761700  1
  H  H104  1  0.754200  0.837100  0.238300  1
  H  H105  1  0.747500  0.770700  0.795400  1
  H  H106  1  0.252500  0.229300  0.204600  1
  H  H107  1  0.637200  0.703500  0.809300  1
  H  H108  1  0.362800  0.296500  0.190700  1
  H  H109  1  0.521700  0.749000  0.856000  1
  H  H110  1  0.478300  0.251000  0.144000  1
  H  H111  1  0.520200  0.863900  0.887600  1
  H  H112  1  0.479800  0.136100  0.112400  1
  H  H113  1  0.601400  0.096500  0.933500  1
  H  H114  1  0.398600  0.903500  0.066500  1
  H  H115  1  0.537200  0.981400  0.927700  1
  H  H116  1  0.462800  0.018600  0.072300  1
  H  H117  1  0.717600  0.152400  0.855700  1
  H  H118  1  0.282400  0.847600  0.144300  1
  H  H119  1  0.790500  0.095300  0.845600  1
  H  H120  1  0.209500  0.904700  0.154400  1
  H  H121  1  0.768900  0.042900  0.965300  1
  H  H122  1  0.231100  0.957100  0.034700  1
  H  H123  1  0.826400  0.077800  0.039200  1
  H  H124  1  0.173600  0.922200  0.960800  1
  H  H125  1  0.873900  0.190500  0.039000  1
  H  H126  1  0.126100  0.809500  0.961000  1
  H  H127  1  0.866800  0.268800  0.965200  1
  H  H128  1  0.133200  0.731200  0.034800  1
  H  H129  1  0.817300  0.224000  0.840200  1
  H  H130  1  0.182700  0.776000  0.159800  1
  H  H131  1  0.750000  0.271300  0.872700  1
  H  H132  1  0.250000  0.728700  0.127300  1
  H  H133  1  0.972000  0.262100  0.858100  1
  H  H134  1  0.028000  0.737900  0.141900  1
  H  H135  1  0.020900  0.385700  0.852800  1
  H  H136  1  0.979100  0.614300  0.147200  1
  H  H137  1  0.004700  0.519800  0.852200  1
  H  H138  1  0.995300  0.480200  0.147800  1
  H  H139  1  0.980600  0.641700  0.857500  1
  H  H140  1  0.019400  0.358300  0.142500  1
  H  H141  1  0.849400  0.687100  0.873300  1
  H  H142  1  0.150600  0.312900  0.126700  1
  H  H143  1  0.746400  0.610300  0.886600  1
  H  H144  1  0.253600  0.389700  0.113400  1
  H  H145  1  0.983600  0.962300  0.957700  1
  H  H146  1  0.016400  0.037700  0.042300  1
  H  H147  1  0.936000  0.878800  0.022300  1
  H  H148  1  0.064000  0.121200  0.977700  1
  H  H149  1  0.822200  0.817700  0.009300  1
  H  H150  1  0.177800  0.182300  0.990700  1
  H  H151  1  0.768400  0.832800  0.927900  1
  H  H152  1  0.231600  0.167200  0.072100  1
  H  H153  1  0.017400  0.110700  0.795500  1
  H  H154  1  0.982600  0.889300  0.204500  1
  H  H155  1  0.023600  0.052700  0.885600  1
  H  H156  1  0.976400  0.947300  0.114400  1
  H  H157  1  0.907600  0.117000  0.727000  1
  H  H158  1  0.092400  0.883000  0.273000  1
  H  H159  1  0.843900  0.057200  0.735000  1
  H  H160  1  0.156100  0.942800  0.265000  1
  H  H161  1  0.020900  0.962800  0.730900  1
  H  H162  1  0.979100  0.037200  0.269100  1
  H  H163  1  0.083900  0.903900  0.657800  1
  H  H164  1  0.916100  0.096100  0.342200  1
  H  H165  1  0.046100  0.932700  0.574200  1
  H  H166  1  0.953900  0.067300  0.425800  1
  H  H167  1  0.947300  0.021000  0.560200  1
  H  H168  1  0.052700  0.979000  0.439800  1
  H  H169  1  0.807500  0.083900  0.653500  1
  H  H170  1  0.192500  0.916100  0.346500  1
  H  H171  1  0.870800  0.144100  0.647600  1
  H  H172  1  0.129200  0.855900  0.352400  1
  H  H173  1  0.758900  0.041900  0.563000  1
  H  H174  1  0.241100  0.958100  0.437000  1
  H  H175  1  0.751900  0.105900  0.475500  1
  H  H176  1  0.248100  0.894100  0.524500  1
  H  H177  1  0.784200  0.207300  0.406000  1
  H  H178  1  0.215800  0.792700  0.594000  1
  H  H179  1  0.829900  0.297500  0.345900  1
  H  H180  1  0.170100  0.702500  0.654100  1
  H  H181  1  0.929200  0.367000  0.366900  1
  H  H182  1  0.070800  0.633000  0.633100  1
  H  H183  1  0.981300  0.351200  0.448400  1
  H  H184  1  0.018700  0.648800  0.551600  1
  H  H185  1  0.914600  0.781700  0.664800  1
  H  H186  1  0.085400  0.218300  0.335200  1
  H  H187  1  0.018100  0.720700  0.707500  1
  H  H188  1  0.981900  0.279300  0.292500  1
  H  H189  1  0.040800  0.748300  0.792100  1
  H  H190  1  0.959200  0.251700  0.207900  1
  H  H191  1  0.951900  0.826000  0.838300  1
  H  H192  1  0.048100  0.174000  0.161700  1
  H  H193  1  0.678700  0.937800  0.632100  1
  H  H194  1  0.321300  0.062200  0.367900  1
  H  H195  1  0.791400  0.846600  0.630200  1
  H  H196  1  0.208600  0.153400  0.369800  1
  H  H197  1  0.641000  0.046400  0.697600  1
  H  H198  1  0.359000  0.953600  0.302400  1
  H  H199  1  0.671200  0.035200  0.755400  1
  H  H200  1  0.328800  0.964800  0.244600  1
  H  H201  1  0.585700  0.883100  0.722300  1
  H  H202  1  0.414300  0.116900  0.277700  1
  H  H203  1  0.459000  0.845100  0.754300  1
  H  H204  1  0.541000  0.154900  0.245700  1
  H  H205  1  0.368200  0.922600  0.799900  1
  H  H206  1  0.631800  0.077400  0.200100  1
  H  H207  1  0.400600  0.037600  0.812100  1
  H  H208  1  0.599400  0.962400  0.187900  1
  H  H209  1  0.582600  0.104400  0.800500  1
  H  H210  1  0.417400  0.895600  0.199500  1
  H  H211  1  0.551100  0.127100  0.744500  1
  H  H212  1  0.448900  0.872900  0.255500  1
  H  H213  1  0.470800  0.123900  0.884900  1
  H  H214  1  0.529200  0.876100  0.115100  1
  H  H215  1  0.362400  0.220100  0.897100  1
  H  H216  1  0.637600  0.779900  0.102900  1
  H  H217  1  0.280500  0.329100  0.866700  1
  H  H218  1  0.719500  0.670900  0.133300  1
  H  H219  1  0.194600  0.416400  0.830800  1
  H  H220  1  0.805400  0.583600  0.169200  1
  H  H221  1  0.189300  0.427800  0.738200  1
  H  H222  1  0.810700  0.572200  0.261800  1
  H  H223  1  0.267300  0.348800  0.685400  1
  H  H224  1  0.732700  0.651200  0.314600  1
  H  H225  1  0.158000  0.088500  0.618200  1
  H  H226  1  0.842000  0.911500  0.381800  1
  H  H227  1  0.200000  0.037900  0.536500  1
  H  H228  1  0.800000  0.962100  0.463500  1
  H  H229  1  0.145900  0.083700  0.460500  1
  H  H230  1  0.854100  0.916300  0.539500  1
  H  H231  1  0.044000  0.173400  0.465900  1
  H  H232  1  0.956000  0.826600  0.534100  1
  H  H233  1  0.040900  0.256600  0.748600  1
  H  H234  1  0.959100  0.743400  0.251400  1
  H  H235  1  0.125300  0.167600  0.696400  1
  H  H236  1  0.874700  0.832400  0.303600  1
  H  H237  1  0.881300  0.300000  0.733400  1
  H  H238  1  0.118700  0.700000  0.266600  1
  H  H239  1  0.870000  0.319400  0.672500  1
  H  H240  1  0.130000  0.680600  0.327500  1
  H  H241  1  0.049700  0.384600  0.680200  1
  H  H242  1  0.950300  0.615400  0.319800  1
  H  H243  1  0.076800  0.502700  0.691600  1
  H  H244  1  0.923200  0.497300  0.308400  1
  H  H245  1  0.976500  0.581100  0.726700  1
  H  H246  1  0.023500  0.418900  0.273300  1
  H  H247  1  0.847200  0.544100  0.747700  1
  H  H248  1  0.152800  0.455900  0.252300  1
  H  H249  1  0.773000  0.388300  0.712500  1
  H  H250  1  0.227000  0.611700  0.287500  1
  H  H251  1  0.793200  0.377700  0.772800  1
  H  H252  1  0.206800  0.622300  0.227200  1
  H  H253  1  0.701300  0.519100  0.688700  1
  H  H254  1  0.298700  0.480900  0.311300  1
  H  H255  1  0.594300  0.587400  0.743700  1
  H  H256  1  0.405700  0.412600  0.256300  1
  H  H257  1  0.504700  0.608600  0.826500  1
  H  H258  1  0.495300  0.391400  0.173500  1
  H  H259  1  0.442300  0.640400  0.909800  1
  H  H260  1  0.557700  0.359600  0.090200  1
  H  H261  1  0.496700  0.593100  0.987200  1
  H  H262  1  0.503300  0.406900  0.012800  1
  H  H263  1  0.606800  0.515000  0.979300  1
  H  H264  1  0.393200  0.485000  0.020700  1
  C  C265  1  0.393200  0.308700  0.594800  1
  C  C266  1  0.606800  0.691300  0.405200  1
  C  C267  1  0.377300  0.328800  0.543100  1
  C  C268  1  0.622700  0.671200  0.456900  1
  C  C269  1  0.323000  0.292100  0.518400  1
  C  C270  1  0.677000  0.707900  0.481600  1
  C  C271  1  0.285800  0.237500  0.546000  1
  C  C272  1  0.714200  0.762500  0.454000  1
  C  C273  1  0.303700  0.219500  0.596700  1
  C  C274  1  0.696300  0.780500  0.403300  1
  C  C275  1  0.531900  0.415200  0.652200  1
  C  C276  1  0.468100  0.584800  0.347800  1
  C  C277  1  0.491200  0.404700  0.609400  1
  C  C278  1  0.508800  0.595300  0.390600  1
  C  C279  1  0.449500  0.344200  0.623400  1
  C  C280  1  0.550500  0.655800  0.376600  1
  C  C281  1  0.542900  0.353600  0.741900  1
  C  C282  1  0.457100  0.646400  0.258100  1
  C  C283  1  0.492200  0.392500  0.784600  1
  C  C284  1  0.507800  0.607500  0.215400  1
  C  C285  1  0.431700  0.443600  0.774000  1
  C  C286  1  0.568300  0.556400  0.226000  1
  C  C287  1  0.386300  0.477400  0.814300  1
  C  C288  1  0.613700  0.522600  0.185700  1
  C  C289  1  0.399800  0.459600  0.866400  1
  C  C290  1  0.600200  0.540400  0.133600  1
  C  C291  1  0.459400  0.409400  0.878400  1
  C  C292  1  0.540600  0.590600  0.121600  1
  C  C293  1  0.507100  0.376700  0.837700  1
  C  C294  1  0.492900  0.623300  0.162300  1
  C  C295  1  0.574600  0.322600  0.847000  1
  C  C296  1  0.425400  0.677400  0.153000  1
  C  C297  1  0.574400  0.266700  0.938200  1
  C  C298  1  0.425600  0.733300  0.061800  1
  C  C299  1  0.614200  0.277000  0.982300  1
  C  C300  1  0.385800  0.723000  0.017700  1
  C  C301  1  0.660300  0.335500  0.968200  1
  C  C302  1  0.339700  0.664500  0.031800  1
  C  C303  1  0.713400  0.372600  0.998500  1
  C  C304  1  0.286600  0.627400  0.001500  1
  C  C305  1  0.728900  0.351700  0.049200  1
  C  C306  1  0.271100  0.648300  0.950800  1
  C  C307  1  0.776300  0.390500  0.076300  1
  C  C308  1  0.223700  0.609500  0.923700  1
  C  C309  1  0.806700  0.450700  0.052100  1
  C  C310  1  0.193300  0.549300  0.947900  1
  C  C311  1  0.791400  0.468500  0.999600  1
  C  C312  1  0.208600  0.531500  0.000400  1
  C  C313  1  0.968300  0.414100  0.562000  1
  C  C314  1  0.031700  0.585900  0.438000  1
  C  C315  1  0.004100  0.478500  0.565900  1
  C  C316  1  0.995900  0.521500  0.434100  1
  C  C317  1  0.086800  0.478500  0.556600  1
  C  C318  1  0.913200  0.521500  0.443400  1
  C  C319  1  0.130000  0.415100  0.544300  1
  C  C320  1  0.870000  0.584900  0.455700  1
  C  C321  1  0.089500  0.355300  0.541800  1
  C  C322  1  0.910500  0.644700  0.458200  1
  C  C323  1  0.751000  0.424200  0.582600  1
  C  C324  1  0.249000  0.575800  0.417400  1
  C  C325  1  0.819100  0.460700  0.576700  1
  C  C326  1  0.180900  0.539300  0.423300  1
  C  C327  1  0.881400  0.408300  0.570700  1
  C  C328  1  0.118600  0.591700  0.429300  1
  C  C329  1  0.719100  0.295400  0.591000  1
  C  C330  1  0.280900  0.704600  0.409000  1
  C  C331  1  0.663700  0.284100  0.548500  1
  C  C332  1  0.336300  0.715900  0.451500  1
  C  C333  1  0.669700  0.321500  0.500000  1
  C  C334  1  0.330300  0.678500  0.500000  1
  C  C335  1  0.617200  0.309200  0.462900  1
  C  C336  1  0.382800  0.690800  0.537100  1
  C  C337  1  0.558000  0.261900  0.474500  1
  C  C338  1  0.442000  0.738100  0.525500  1
  C  C339  1  0.552400  0.224500  0.522600  1
  C  C340  1  0.447600  0.775500  0.477400  1
  C  C341  1  0.603700  0.235500  0.560500  1
  C  C342  1  0.396300  0.764500  0.439500  1
  C  C343  1  0.599400  0.197200  0.614100  1
  C  C344  1  0.400600  0.802800  0.385900  1
  C  C345  1  0.550700  0.077100  0.598900  1
  C  C346  1  0.449300  0.922900  0.401100  1
  C  C347  1  0.486200  0.039600  0.617500  1
  C  C348  1  0.513800  0.960400  0.382500  1
  C  C349  1  0.440600  0.084300  0.651400  1
  C  C350  1  0.559400  0.915700  0.348600  1
  C  C351  1  0.364000  0.075300  0.682100  1
  C  C352  1  0.636000  0.924700  0.317900  1
  C  C353  1  0.324500  0.012300  0.683800  1
  C  C354  1  0.675500  0.987700  0.316200  1
  C  C355  1  0.254200  0.005800  0.716300  1
  C  C356  1  0.745800  0.994200  0.283700  1
  C  C357  1  0.225100  0.062000  0.746300  1
  C  C358  1  0.774900  0.938000  0.253700  1
  C  C359  1  0.266400  0.124000  0.741400  1
  C  C360  1  0.733600  0.876000  0.258600  1
  C  C361  1  0.700800  0.790000  0.814600  1
  C  C362  1  0.299200  0.210000  0.185400  1
  C  C363  1  0.635300  0.749700  0.822600  1
  C  C364  1  0.364700  0.250300  0.177400  1
  C  C365  1  0.567500  0.776400  0.849900  1
  C  C366  1  0.432500  0.223600  0.150100  1
  C  C367  1  0.566600  0.844100  0.868400  1
  C  C368  1  0.433400  0.155900  0.131600  1
  C  C369  1  0.633900  0.882200  0.858400  1
  C  C370  1  0.366100  0.117800  0.141600  1
  C  C371  1  0.622200  0.057500  0.913300  1
  C  C372  1  0.377800  0.942500  0.086700  1
  C  C373  1  0.586700  0.994800  0.910100  1
  C  C374  1  0.413300  0.005200  0.089900  1
  C  C375  1  0.639000  0.954300  0.875500  1
  C  C376  1  0.361000  0.045700  0.124500  1
  C  C377  1  0.746700  0.111100  0.871900  1
  C  C378  1  0.253300  0.888900  0.128100  1
  C  C379  1  0.782900  0.134700  0.920300  1
  C  C380  1  0.217100  0.865300  0.079700  1
  C  C381  1  0.788800  0.089000  0.965200  1
  C  C382  1  0.211200  0.911000  0.034800  1
  C  C383  1  0.822700  0.109400  0.009200  1
  C  C384  1  0.177300  0.890600  0.990800  1
  C  C385  1  0.850900  0.176000  0.008700  1
  C  C386  1  0.149100  0.824000  0.991300  1
  C  C387  1  0.846700  0.222900  0.964800  1
  C  C388  1  0.153300  0.777100  0.035200  1
  C  C389  1  0.812800  0.202000  0.920500  1
  C  C390  1  0.187200  0.798000  0.079500  1
  C  C391  1  0.805800  0.251600  0.872400  1
  C  C392  1  0.194200  0.748400  0.127600  1
  C  C393  1  0.939900  0.305000  0.861200  1
  C  C394  1  0.060100  0.695000  0.138800  1
  C  C395  1  0.967100  0.372500  0.858300  1
  C  C396  1  0.032900  0.627500  0.141700  1
  C  C397  1  0.898400  0.417400  0.865300  1
  C  C398  1  0.101600  0.582600  0.134700  1
  C  C399  1  0.888500  0.494200  0.867700  1
  C  C400  1  0.111500  0.505800  0.132300  1
  C  C401  1  0.951700  0.539100  0.859600  1
  C  C402  1  0.048300  0.460900  0.140400  1
  C  C403  1  0.937700  0.610800  0.862300  1
  C  C404  1  0.062300  0.389200  0.137700  1
  C  C405  1  0.860700  0.637400  0.871900  1
  C  C406  1  0.139300  0.362600  0.128100  1
  C  C407  1  0.799600  0.591400  0.879400  1
  C  C408  1  0.200400  0.408600  0.120600  1
  C  C409  1  0.903700  0.942700  0.905200  1
  C  C410  1  0.096300  0.057300  0.094800  1
  C  C411  1  0.939800  0.934900  0.952100  1
  C  C412  1  0.060200  0.065100  0.047900  1
  C  C413  1  0.910700  0.886600  0.990400  1
  C  C414  1  0.089300  0.113400  0.009600  1
  C  C415  1  0.844800  0.849300  0.982500  1
  C  C416  1  0.155200  0.150700  0.017500  1
  C  C417  1  0.812500  0.859400  0.934200  1
  C  C418  1  0.187500  0.140600  0.065800  1
  C  C419  1  0.984300  0.074400  0.810400  1
  C  C420  1  0.015700  0.925600  0.189600  1
  C  C421  1  0.989000  0.043200  0.859600  1
  C  C422  1  0.011000  0.956800  0.140400  1
  C  C423  1  0.930000  0.993400  0.862100  1
  C  C424  1  0.070000  0.006600  0.137900  1
  C  C425  1  0.901600  0.065600  0.734300  1
  C  C426  1  0.098400  0.934400  0.265700  1
  C  C427  1  0.944700  0.026900  0.689300  1
  C  C428  1  0.055300  0.973100  0.310700  1
  C  C429  1  0.005300  0.974600  0.696400  1
  C  C430  1  0.994700  0.025400  0.303600  1
  C  C431  1  0.042900  0.939700  0.652900  1
  C  C432  1  0.957100  0.060300  0.347100  1
  C  C433  1  0.020600  0.957000  0.603500  1
  C  C434  1  0.979400  0.043000  0.396500  1
  C  C435  1  0.961400  0.009200  0.595100  1
  C  C436  1  0.038600  0.990800  0.404900  1
  C  C437  1  0.923000  0.044200  0.637800  1
  C  C438  1  0.077000  0.955800  0.362200  1
  C  C439  1  0.855800  0.100200  0.632200  1
  C  C440  1  0.144200  0.899800  0.367800  1
  C  C441  1  0.786300  0.083100  0.551000  1
  C  C442  1  0.213700  0.916900  0.449000  1
  C  C443  1  0.782800  0.117300  0.503100  1
  C  C444  1  0.217200  0.882700  0.496900  1
  C  C445  1  0.834300  0.173000  0.502700  1
  C  C446  1  0.165700  0.827000  0.497300  1
  C  C447  1  0.858400  0.228300  0.462700  1
  C  C448  1  0.141600  0.771700  0.537300  1
  C  C449  1  0.824600  0.237000  0.414300  1
  C  C450  1  0.175400  0.763000  0.585700  1
  C  C451  1  0.851900  0.290000  0.379000  1
  C  C452  1  0.148100  0.710000  0.621000  1
  C  C453  1  0.909800  0.331200  0.391500  1
  C  C454  1  0.090200  0.668800  0.608500  1
  C  C455  1  0.941000  0.321400  0.440000  1
  C  C456  1  0.059000  0.678600  0.560000  1
  C  C457  1  0.872600  0.839700  0.729400  1
  C  C458  1  0.127400  0.160300  0.270600  1
  C  C459  1  0.922700  0.790500  0.700400  1
  C  C460  1  0.077300  0.209500  0.299600  1
  C  C461  1  0.984300  0.755400  0.725600  1
  C  C462  1  0.015700  0.244600  0.274400  1
  C  C463  1  0.996600  0.770100  0.775700  1
  C  C464  1  0.003400  0.229900  0.224300  1
  C  C465  1  0.944100  0.817300  0.802600  1
  C  C466  1  0.055900  0.182700  0.197400  1
  C  C467  1  0.712800  0.926400  0.659500  1
  C  C468  1  0.287200  0.073600  0.340500  1
  C  C469  1  0.773900  0.877200  0.658100  1
  C  C470  1  0.226100  0.122800  0.341900  1
  C  C471  1  0.805900  0.881000  0.706700  1
  C  C472  1  0.194100  0.119000  0.293300  1
  C  C473  1  0.649400  0.010700  0.726700  1
  C  C474  1  0.350600  0.989300  0.273300  1
  C  C475  1  0.569100  0.983300  0.747500  1
  C  C476  1  0.430900  0.016700  0.252500  1
  C  C477  1  0.548300  0.915000  0.740500  1
  C  C478  1  0.451700  0.085000  0.259500  1
  C  C479  1  0.472900  0.892100  0.759700  1
  C  C480  1  0.527100  0.107900  0.240300  1
  C  C481  1  0.419100  0.938200  0.786400  1
  C  C482  1  0.580900  0.061800  0.213600  1
  C  C483  1  0.438200  0.006200  0.793500  1
  C  C484  1  0.561800  0.993800  0.206500  1
  C  C485  1  0.512700  0.029700  0.773700  1
  C  C486  1  0.487300  0.970300  0.226300  1
  C  C487  1  0.535200  0.105900  0.780000  1
  C  C488  1  0.464800  0.894100  0.220000  1
  C  C489  1  0.449900  0.153900  0.857800  1
  C  C490  1  0.550100  0.846100  0.142200  1
  C  C491  1  0.390700  0.206100  0.864900  1
  C  C492  1  0.609300  0.793900  0.135100  1
  C  C493  1  0.381500  0.234100  0.814000  1
  C  C494  1  0.618500  0.765900  0.186000  1
  C  C495  1  0.324200  0.289100  0.795800  1
  C  C496  1  0.675800  0.710900  0.204200  1
  C  C497  1  0.277500  0.333900  0.829400  1
  C  C498  1  0.722500  0.666100  0.170600  1
  C  C499  1  0.226800  0.385500  0.808200  1
  C  C500  1  0.773200  0.614500  0.191800  1
  C  C501  1  0.223000  0.392200  0.753600  1
  C  C502  1  0.777000  0.607800  0.246400  1
  C  C503  1  0.270100  0.345000  0.722600  1
  C  C504  1  0.729900  0.655000  0.277400  1
  C  C505  1  0.077700  0.160400  0.587900  1
  C  C506  1  0.922300  0.839600  0.412100  1
  C  C507  1  0.135600  0.105600  0.586700  1
  C  C508  1  0.864400  0.894400  0.413300  1
  C  C509  1  0.160600  0.076000  0.538400  1
  C  C510  1  0.839400  0.924000  0.461600  1
  C  C511  1  0.127900  0.102300  0.493900  1
  C  C512  1  0.872100  0.897700  0.506100  1
  C  C513  1  0.067700  0.156700  0.497000  1
  C  C514  1  0.932300  0.843300  0.503000  1
  C  C515  1  0.033700  0.243600  0.713700  1
  C  C516  1  0.966300  0.756400  0.286300  1
  C  C517  1  0.080700  0.195500  0.685400  1
  C  C518  1  0.919300  0.804500  0.314600  1
  C  C519  1  0.048800  0.196300  0.636300  1
  C  C520  1  0.951200  0.803700  0.363700  1
  C  C521  1  0.908600  0.318400  0.699700  1
  C  C522  1  0.091400  0.681600  0.300300  1
  C  C523  1  0.930900  0.393800  0.706900  1
  C  C524  1  0.069100  0.606200  0.293100  1
  C  C525  1  0.008400  0.416800  0.693800  1
  C  C526  1  0.991600  0.583200  0.306200  1
  C  C527  1  0.024500  0.486900  0.700900  1
  C  C528  1  0.975500  0.513100  0.299100  1
  C  C529  1  0.964900  0.533500  0.721400  1
  C  C530  1  0.035100  0.466500  0.278600  1
  C  C531  1  0.888200  0.511300  0.734400  1
  C  C532  1  0.111800  0.488700  0.265600  1
  C  C533  1  0.870900  0.441500  0.728100  1
  C  C534  1  0.129100  0.558500  0.271900  1
  C  C535  1  0.789200  0.413100  0.743000  1
  C  C536  1  0.210800  0.586900  0.257000  1
  C  C537  1  0.689100  0.513300  0.725900  1
  C  C538  1  0.310900  0.486700  0.274100  1
  C  C539  1  0.630400  0.550900  0.755600  1
  C  C540  1  0.369600  0.449100  0.244400  1
  C  C541  1  0.635600  0.523700  0.806600  1
  C  C542  1  0.364400  0.476300  0.193400  1
  C  C543  1  0.593100  0.544700  0.856500  1
  C  C544  1  0.406900  0.455300  0.143500  1
  C  C545  1  0.525500  0.590300  0.858200  1
  C  C546  1  0.474500  0.409700  0.141800  1
  C  C547  1  0.488500  0.609000  0.907500  1
  C  C548  1  0.511500  0.391000  0.092500  1
  C  C549  1  0.520200  0.580800  0.953100  1
  C  C550  1  0.479800  0.419200  0.046900  1
  C  C551  1  0.586200  0.535000  0.948000  1
  C  C552  1  0.413800  0.465000  0.052000  1
  N  N553  1  0.356700  0.253900  0.621200  1
  N  N554  1  0.643300  0.746100  0.378800  1
  N  N555  1  0.464400  0.318000  0.671800  1
  N  N556  1  0.535600  0.682000  0.328200  1
  N  N557  1  0.515900  0.363000  0.689000  1
  N  N558  1  0.484100  0.637000  0.311000  1
  N  N559  1  0.650100  0.359000  0.918000  1
  N  N560  1  0.349900  0.641000  0.082000  1
  N  N561  1  0.596500  0.315800  0.900500  1
  N  N562  1  0.403500  0.684200  0.099500  1
  N  N563  1  0.744900  0.430400  0.973000  1
  N  N564  1  0.255100  0.569600  0.027000  1
  N  N565  1  0.010200  0.352600  0.551100  1
  N  N566  1  0.989800  0.647400  0.448900  1
  N  N567  1  0.852200  0.342400  0.573900  1
  N  N568  1  0.147800  0.657600  0.426100  1
  N  N569  1  0.771300  0.353600  0.580400  1
  N  N570  1  0.228700  0.646400  0.419600  1
  N  N571  1  0.475100  0.146000  0.654400  1
  N  N572  1  0.524900  0.854000  0.345600  1
  N  N573  1  0.543000  0.140600  0.621200  1
  N  N574  1  0.457000  0.859400  0.378800  1
  N  N575  1  0.334100  0.131700  0.709300  1
  N  N576  1  0.665900  0.868300  0.290700  1
  N  N577  1  0.702300  0.855500  0.832500  1
  N  N578  1  0.297700  0.144500  0.167500  1
  N  N579  1  0.703000  0.991100  0.858500  1
  N  N580  1  0.297000  0.008900  0.141500  1
  N  N581  1  0.692300  0.054500  0.882600  1
  N  N582  1  0.307700  0.945500  0.117400  1
  N  N583  1  0.832100  0.380100  0.872500  1
  N  N584  1  0.167900  0.619900  0.127500  1
  N  N585  1  0.859300  0.310600  0.869100  1
  N  N586  1  0.140700  0.689400  0.130900  1
  N  N587  1  0.812600  0.520500  0.877000  1
  N  N588  1  0.187400  0.479500  0.123000  1
  N  N589  1  0.840900  0.905100  0.896200  1
  N  N590  1  0.159100  0.094900  0.103800  1
  N  N591  1  0.892000  0.996000  0.818500  1
  N  N592  1  0.108000  0.004000  0.181500  1
  N  N593  1  0.926900  0.047200  0.786100  1
  N  N594  1  0.073100  0.952800  0.213900  1
  N  N595  1  0.867400  0.173900  0.549700  1
  N  N596  1  0.132600  0.826100  0.450300  1
  N  N597  1  0.835200  0.117700  0.578600  1
  N  N598  1  0.164800  0.882300  0.421400  1
  N  N599  1  0.915500  0.270300  0.475700  1
  N  N600  1  0.084500  0.729700  0.524300  1
  N  N601  1  0.881900  0.851600  0.780500  1
  N  N602  1  0.118100  0.148400  0.219500  1
  N  N603  1  0.766400  0.930000  0.736900  1
  N  N604  1  0.233600  0.070000  0.263100  1
  N  N605  1  0.708700  0.957100  0.707200  1
  N  N606  1  0.291300  0.042900  0.292800  1
  N  N607  1  0.432000  0.201800  0.777700  1
  N  N608  1  0.568000  0.798200  0.222300  1
  N  N609  1  0.473400  0.152500  0.805900  1
  N  N610  1  0.526600  0.847500  0.194100  1
  N  N611  1  0.319900  0.293800  0.742300  1
  N  N612  1  0.680100  0.706200  0.257700  1
  N  N613  1  0.043000  0.185600  0.543800  1
  N  N614  1  0.957000  0.814400  0.456200  1
  N  N615  1  0.983700  0.241200  0.635700  1
  N  N616  1  0.016300  0.758800  0.364300  1
  N  N617  1  0.975200  0.269800  0.684300  1
  N  N618  1  0.024800  0.730200  0.315700  1
  N  N619  1  0.694100  0.472000  0.809100  1
  N  N620  1  0.305900  0.528000  0.190900  1
  N  N621  1  0.726100  0.467300  0.758400  1
  N  N622  1  0.273900  0.532700  0.241600  1
  N  N623  1  0.623300  0.516900  0.901200  1
  N  N624  1  0.376700  0.483100  0.098800  1
  O  O625  1  0.333800  0.154800  0.446900  1
  O  O626  1  0.666200  0.845200  0.553100  1
  O  O627  1  0.218400  0.792300  0.731400  1
  O  O628  1  0.781600  0.207700  0.268600  1
  O  O629  1  0.475000  0.595300  0.661100  1
  O  O630  1  0.525000  0.404700  0.338900  1
  O  O631  1  0.346400  0.631600  0.685300  1
  O  O632  1  0.653600  0.368400  0.314700  1
  O  O633  1  0.620900  0.733000  0.657800  1
  O  O634  1  0.379100  0.267000  0.342200  1
  O  O635  1  0.489400  0.693100  0.729500  1
  O  O636  1  0.510600  0.306900  0.270500  1
  O  O637  1  0.153700  0.380900  0.942600  1
  O  O638  1  0.846300  0.619100  0.057400  1
  O  O639  1  0.381600  0.710800  0.814800  1
  O  O640  1  0.618400  0.289200  0.185200  1
  O  O641  1  0.421500  0.490200  0.486800  1
  O  O642  1  0.578500  0.509800  0.513200  1
  O  O643  1  0.618200  0.564900  0.605700  1
  O  O644  1  0.381800  0.435100  0.394300  1
  O  O645  1  0.269700  0.050400  0.881600  1
  O  O646  1  0.730300  0.949600  0.118400  1
  O  O647  1  0.355200  0.028900  0.967400  1
  O  O648  1  0.644800  0.971100  0.032600  1
  O  O649  1  0.343200  0.808700  0.893400  1
  O  O650  1  0.656800  0.191300  0.106600  1
  O  O651  1  0.548300  0.859800  0.014200  1
  O  O652  1  0.451700  0.140200  0.985800  1
  O  O653  1  0.416300  0.894400  0.960900  1
  O  O654  1  0.583700  0.105600  0.039100  1
  O  O655  1  0.405300  0.875600  0.606700  1
  O  O656  1  0.594700  0.124400  0.393300  1
  O  O657  1  0.427700  0.151400  0.403600  1
  O  O658  1  0.572300  0.848600  0.596400  1
  O  O659  1  0.016800  0.435400  0.988300  1
  O  O660  1  0.983200  0.564600  0.011700  1
  O  O661  1  0.985800  0.351500  0.015700  1
  O  O662  1  0.014200  0.648500  0.984300  1
  O  O663  1  0.332900  0.777100  0.662700  1
  O  O664  1  0.667100  0.222900  0.337300  1
  F  F665  1  0.421800  0.082400  0.496000  1
  F  F666  1  0.578200  0.917600  0.504000  1
  F  F667  1  0.381000  0.961800  0.519100  1
  F  F668  1  0.619000  0.038200  0.480900  1
  F  F669  1  0.327200  0.064700  0.551300  1
  F  F670  1  0.672800  0.935300  0.448700  1
  F  F671  1  0.320700  0.043800  0.462600  1
  F  F672  1  0.679300  0.956200  0.537400  1
  F  F673  1  0.221200  0.550000  0.626500  1
  F  F674  1  0.778800  0.450000  0.373500  1
  F  F675  1  0.351000  0.524500  0.621600  1
  F  F676  1  0.649000  0.475500  0.378400  1
  F  F677  1  0.264700  0.445200  0.620400  1
  F  F678  1  0.735300  0.554800  0.379600  1
  F  F679  1  0.278500  0.516000  0.552300  1
  F  F680  1  0.721500  0.484000  0.447700  1
  F  F681  1  0.241400  0.615000  0.777300  1
  F  F682  1  0.758600  0.385000  0.222700  1
  F  F683  1  0.143500  0.548300  0.807000  1
  F  F684  1  0.856500  0.451700  0.193000  1
  F  F685  1  0.130000  0.655200  0.820300  1
  F  F686  1  0.870000  0.344800  0.179700  1
  F  F687  1  0.126800  0.628400  0.738400  1
  F  F688  1  0.873200  0.371600  0.261600  1
  F  F689  1  0.110200  0.374600  0.388100  1
  F  F690  1  0.889800  0.625400  0.611900  1
  F  F691  1  0.228500  0.363900  0.419200  1
  F  F692  1  0.771500  0.636100  0.580800  1
  F  F693  1  0.155600  0.267800  0.418500  1
  F  F694  1  0.844400  0.732200  0.581500  1
  F  F695  1  0.210900  0.314700  0.343400  1
  F  F696  1  0.789100  0.685300  0.656600  1
  F  F697  1  0.596800  0.710900  0.003700  1
  F  F698  1  0.403200  0.289100  0.996300  1
  F  F699  1  0.693600  0.626200  0.004200  1
  F  F700  1  0.306400  0.373800  0.995800  1
  F  F701  1  0.701300  0.713700  0.942200  1
  F  F702  1  0.298700  0.286300  0.057800  1
  F  F703  1  0.716700  0.734600  0.027000  1
  F  F704  1  0.283300  0.265400  0.973000  1
  F  F705  1  0.210100  0.860900  0.840000  1
  F  F706  1  0.789900  0.139100  0.160000  1
  F  F707  1  0.157300  0.959900  0.862700  1
  F  F708  1  0.842700  0.040100  0.137300  1
  F  F709  1  0.121800  0.912600  0.790400  1
  F  F710  1  0.878200  0.087400  0.209600  1
  F  F711  1  0.085200  0.867800  0.870000  1
  F  F712  1  0.914800  0.132200  0.130000  1
  F  F713  1  0.116500  0.276600  0.881800  1
  F  F714  1  0.883500  0.723400  0.118200  1
  F  F715  1  0.117500  0.215100  0.812000  1
  F  F716  1  0.882500  0.784900  0.188000  1
  F  F717  1  0.202300  0.185900  0.872000  1
  F  F718  1  0.797700  0.814100  0.128000  1
  F  F719  1  0.067900  0.171600  0.888500  1
  F  F720  1  0.932100  0.828400  0.111500  1
  F  F721  1  0.708800  0.159500  0.705500  1
  F  F722  1  0.291200  0.840500  0.294500  1
  F  F723  1  0.668500  0.211100  0.783200  1
  F  F724  1  0.331500  0.788900  0.216800  1
  F  F725  1  0.713700  0.278600  0.711700  1
  F  F726  1  0.286300  0.721400  0.288300  1
  F  F727  1  0.800400  0.203200  0.753500  1
  F  F728  1  0.199600  0.796800  0.246500  1
