# generated using pymatgen
data_Co5H132C156(BrN6)4
_symmetry_space_group_name_H-M   'P 1'
_cell_length_a   24.41526578
_cell_length_b   24.41526578
_cell_length_c   24.41526578
_cell_angle_alpha   60.00000000
_cell_angle_beta   60.00000000
_cell_angle_gamma   60.00000000
_symmetry_Int_Tables_number   1
_chemical_formula_structural   Co5H132C156(BrN6)4
_chemical_formula_sum   'Co10 H264 C312 Br8 N48'
_cell_volume   10291.27945047
_cell_formula_units_Z   2
loop_
 _symmetry_equiv_pos_site_id
 _symmetry_equiv_pos_as_xyz
  1  'x, y, z'
loop_
 _atom_site_type_symbol
 _atom_site_label
 _atom_site_symmetry_multiplicity
 _atom_site_fract_x
 _atom_site_fract_y
 _atom_site_fract_z
 _atom_site_occupancy
  Br  Br1  1  0.790526  0.790526  0.628422  1.0
  Br  Br2  1  0.790526  0.628422  0.790526  1.0
  Br  Br3  1  0.628422  0.790526  0.790526  1.0
  Br  Br4  1  0.790526  0.790526  0.790526  1.0
  Br  Br5  1  0.959474  0.959474  0.121578  1.0
  Br  Br6  1  0.959474  0.121578  0.959474  1.0
  Br  Br7  1  0.959474  0.959474  0.959474  1.0
  Br  Br8  1  0.121578  0.959474  0.959474  1.0
  C  C9  1  0.795630  0.625830  0.636310  1.0
  C  C10  1  0.942230  0.636310  0.625830  1.0
  C  C11  1  0.636310  0.942230  0.795630  1.0
  C  C12  1  0.625830  0.795630  0.942230  1.0
  C  C13  1  0.625830  0.636310  0.795630  1.0
  C  C14  1  0.636310  0.625830  0.942230  1.0
  C  C15  1  0.942230  0.795630  0.636310  1.0
  C  C16  1  0.795630  0.942230  0.625830  1.0
  C  C17  1  0.636310  0.795630  0.625830  1.0
  C  C18  1  0.625830  0.942230  0.636310  1.0
  C  C19  1  0.795630  0.636310  0.942230  1.0
  C  C20  1  0.942230  0.625830  0.795630  1.0
  C  C21  1  0.807770  0.124170  0.113690  1.0
  C  C22  1  0.954370  0.113690  0.124170  1.0
  C  C23  1  0.124170  0.807770  0.954370  1.0
  C  C24  1  0.113690  0.954370  0.807770  1.0
  C  C25  1  0.807770  0.113690  0.954370  1.0
  C  C26  1  0.954370  0.124170  0.807770  1.0
  C  C27  1  0.124170  0.954370  0.113690  1.0
  C  C28  1  0.113690  0.807770  0.124170  1.0
  C  C29  1  0.807770  0.954370  0.124170  1.0
  C  C30  1  0.954370  0.807770  0.113690  1.0
  C  C31  1  0.124170  0.113690  0.807770  1.0
  C  C32  1  0.113690  0.124170  0.954370  1.0
  C  C33  1  0.858470  0.633370  0.600230  1.0
  C  C34  1  0.907930  0.600230  0.633370  1.0
  C  C35  1  0.600230  0.907930  0.858470  1.0
  C  C36  1  0.633370  0.858470  0.907930  1.0
  C  C37  1  0.633370  0.600230  0.858470  1.0
  C  C38  1  0.600230  0.633370  0.907930  1.0
  C  C39  1  0.907930  0.858470  0.600230  1.0
  C  C40  1  0.858470  0.907930  0.633370  1.0
  C  C41  1  0.600230  0.858470  0.633370  1.0
  C  C42  1  0.633370  0.907930  0.600230  1.0
  C  C43  1  0.858470  0.600230  0.907930  1.0
  C  C44  1  0.907930  0.633370  0.858470  1.0
  C  C45  1  0.842070  0.116630  0.149770  1.0
  C  C46  1  0.891530  0.149770  0.116630  1.0
  C  C47  1  0.116630  0.842070  0.891530  1.0
  C  C48  1  0.149770  0.891530  0.842070  1.0
  C  C49  1  0.842070  0.149770  0.891530  1.0
  C  C50  1  0.891530  0.116630  0.842070  1.0
  C  C51  1  0.116630  0.891530  0.149770  1.0
  C  C52  1  0.149770  0.842070  0.116630  1.0
  C  C53  1  0.842070  0.891530  0.116630  1.0
  C  C54  1  0.891530  0.842070  0.149770  1.0
  C  C55  1  0.116630  0.149770  0.842070  1.0
  C  C56  1  0.149770  0.116630  0.891530  1.0
  C  C57  1  0.875400  0.668640  0.531800  1.0
  C  C58  1  0.924160  0.531800  0.668640  1.0
  C  C59  1  0.531800  0.924160  0.875400  1.0
  C  C60  1  0.668640  0.875400  0.924160  1.0
  C  C61  1  0.668640  0.531800  0.875400  1.0
  C  C62  1  0.531800  0.668640  0.924160  1.0
  C  C63  1  0.924160  0.875400  0.531800  1.0
  C  C64  1  0.875400  0.924160  0.668640  1.0
  C  C65  1  0.531800  0.875400  0.668640  1.0
  C  C66  1  0.668640  0.924160  0.531800  1.0
  C  C67  1  0.875400  0.531800  0.924160  1.0
  C  C68  1  0.924160  0.668640  0.875400  1.0
  C  C69  1  0.825840  0.081360  0.218200  1.0
  C  C70  1  0.874600  0.218200  0.081360  1.0
  C  C71  1  0.081360  0.825840  0.874600  1.0
  C  C72  1  0.218200  0.874600  0.825840  1.0
  C  C73  1  0.825840  0.218200  0.874600  1.0
  C  C74  1  0.874600  0.081360  0.825840  1.0
  C  C75  1  0.081360  0.874600  0.218200  1.0
  C  C76  1  0.218200  0.825840  0.081360  1.0
  C  C77  1  0.825840  0.874600  0.081360  1.0
  C  C78  1  0.874600  0.825840  0.218200  1.0
  C  C79  1  0.081360  0.218200  0.825840  1.0
  C  C80  1  0.218200  0.081360  0.874600  1.0
  C  C81  1  0.829500  0.696400  0.499380  1.0
  C  C82  1  0.974720  0.499380  0.696400  1.0
  C  C83  1  0.499380  0.974720  0.829500  1.0
  C  C84  1  0.696400  0.829500  0.974720  1.0
  C  C85  1  0.696400  0.499380  0.829500  1.0
  C  C86  1  0.499380  0.696400  0.974720  1.0
  C  C87  1  0.974720  0.829500  0.499380  1.0
  C  C88  1  0.829500  0.974720  0.696400  1.0
  C  C89  1  0.499380  0.829500  0.696400  1.0
  C  C90  1  0.696400  0.974720  0.499380  1.0
  C  C91  1  0.829500  0.499380  0.974720  1.0
  C  C92  1  0.974720  0.696400  0.829500  1.0
  C  C93  1  0.775280  0.053600  0.250620  1.0
  C  C94  1  0.920500  0.250620  0.053600  1.0
  C  C95  1  0.053600  0.775280  0.920500  1.0
  C  C96  1  0.250620  0.920500  0.775280  1.0
  C  C97  1  0.775280  0.250620  0.920500  1.0
  C  C98  1  0.920500  0.053600  0.775280  1.0
  C  C99  1  0.053600  0.920500  0.250620  1.0
  C  C100  1  0.250620  0.775280  0.053600  1.0
  C  C101  1  0.775280  0.920500  0.053600  1.0
  C  C102  1  0.920500  0.775280  0.250620  1.0
  C  C103  1  0.053600  0.250620  0.775280  1.0
  C  C104  1  0.250620  0.053600  0.920500  1.0
  C  C105  1  0.766690  0.688910  0.535410  1.0
  C  C106  1  0.008990  0.535410  0.688910  1.0
  C  C107  1  0.535410  0.008990  0.766690  1.0
  C  C108  1  0.688910  0.766690  0.008990  1.0
  C  C109  1  0.688910  0.535410  0.766690  1.0
  C  C110  1  0.535410  0.688910  0.008990  1.0
  C  C111  1  0.008990  0.766690  0.535410  1.0
  C  C112  1  0.766690  0.008990  0.688910  1.0
  C  C113  1  0.535410  0.766690  0.688910  1.0
  C  C114  1  0.688910  0.008990  0.535410  1.0
  C  C115  1  0.766690  0.535410  0.008990  1.0
  C  C116  1  0.008990  0.688910  0.766690  1.0
  C  C117  1  0.741010  0.061090  0.214590  1.0
  C  C118  1  0.983310  0.214590  0.061090  1.0
  C  C119  1  0.061090  0.741010  0.983310  1.0
  C  C120  1  0.214590  0.983310  0.741010  1.0
  C  C121  1  0.741010  0.214590  0.983310  1.0
  C  C122  1  0.983310  0.061090  0.741010  1.0
  C  C123  1  0.061090  0.983310  0.214590  1.0
  C  C124  1  0.214590  0.741010  0.061090  1.0
  C  C125  1  0.741010  0.983310  0.061090  1.0
  C  C126  1  0.983310  0.741010  0.214590  1.0
  C  C127  1  0.061090  0.214590  0.741010  1.0
  C  C128  1  0.214590  0.061090  0.983310  1.0
  C  C129  1  0.717800  0.709600  0.506400  1.0
  C  C130  1  0.066200  0.506400  0.709600  1.0
  C  C131  1  0.506400  0.066200  0.717800  1.0
  C  C132  1  0.709600  0.717800  0.066200  1.0
  C  C133  1  0.709600  0.506400  0.717800  1.0
  C  C134  1  0.506400  0.709600  0.066200  1.0
  C  C135  1  0.066200  0.717800  0.506400  1.0
  C  C136  1  0.717800  0.066200  0.709600  1.0
  C  C137  1  0.506400  0.717800  0.709600  1.0
  C  C138  1  0.709600  0.066200  0.506400  1.0
  C  C139  1  0.717800  0.506400  0.066200  1.0
  C  C140  1  0.066200  0.709600  0.717800  1.0
  C  C141  1  0.683800  0.040400  0.243600  1.0
  C  C142  1  0.032200  0.243600  0.040400  1.0
  C  C143  1  0.040400  0.683800  0.032200  1.0
  C  C144  1  0.243600  0.032200  0.683800  1.0
  C  C145  1  0.683800  0.243600  0.032200  1.0
  C  C146  1  0.032200  0.040400  0.683800  1.0
  C  C147  1  0.040400  0.032200  0.243600  1.0
  C  C148  1  0.243600  0.683800  0.040400  1.0
  C  C149  1  0.683800  0.032200  0.040400  1.0
  C  C150  1  0.032200  0.683800  0.243600  1.0
  C  C151  1  0.040400  0.243600  0.683800  1.0
  C  C152  1  0.243600  0.040400  0.032200  1.0
  C  C153  1  0.625800  0.706200  0.512800  1.0
  C  C154  1  0.155200  0.512800  0.706200  1.0
  C  C155  1  0.512800  0.155200  0.625800  1.0
  C  C156  1  0.706200  0.625800  0.155200  1.0
  C  C157  1  0.706200  0.512800  0.625800  1.0
  C  C158  1  0.512800  0.706200  0.155200  1.0
  C  C159  1  0.155200  0.625800  0.512800  1.0
  C  C160  1  0.625800  0.155200  0.706200  1.0
  C  C161  1  0.512800  0.625800  0.706200  1.0
  C  C162  1  0.706200  0.155200  0.512800  1.0
  C  C163  1  0.625800  0.512800  0.155200  1.0
  C  C164  1  0.155200  0.706200  0.625800  1.0
  C  C165  1  0.594800  0.043800  0.237200  1.0
  C  C166  1  0.124200  0.237200  0.043800  1.0
  C  C167  1  0.043800  0.594800  0.124200  1.0
  C  C168  1  0.237200  0.124200  0.594800  1.0
  C  C169  1  0.594800  0.237200  0.124200  1.0
  C  C170  1  0.124200  0.043800  0.594800  1.0
  C  C171  1  0.043800  0.124200  0.237200  1.0
  C  C172  1  0.237200  0.594800  0.043800  1.0
  C  C173  1  0.594800  0.124200  0.043800  1.0
  C  C174  1  0.124200  0.594800  0.237200  1.0
  C  C175  1  0.043800  0.237200  0.594800  1.0
  C  C176  1  0.237200  0.043800  0.124200  1.0
  C  C177  1  0.559700  0.749700  0.528100  1.0
  C  C178  1  0.162500  0.528100  0.749700  1.0
  C  C179  1  0.528100  0.162500  0.559700  1.0
  C  C180  1  0.749700  0.559700  0.162500  1.0
  C  C181  1  0.749700  0.528100  0.559700  1.0
  C  C182  1  0.528100  0.749700  0.162500  1.0
  C  C183  1  0.162500  0.559700  0.528100  1.0
  C  C184  1  0.559700  0.162500  0.749700  1.0
  C  C185  1  0.528100  0.559700  0.749700  1.0
  C  C186  1  0.749700  0.162500  0.528100  1.0
  C  C187  1  0.559700  0.528100  0.162500  1.0
  C  C188  1  0.162500  0.749700  0.559700  1.0
  C  C189  1  0.587500  0.000300  0.221900  1.0
  C  C190  1  0.190300  0.221900  0.000300  1.0
  C  C191  1  0.000300  0.587500  0.190300  1.0
  C  C192  1  0.221900  0.190300  0.587500  1.0
  C  C193  1  0.587500  0.221900  0.190300  1.0
  C  C194  1  0.190300  0.000300  0.587500  1.0
  C  C195  1  0.000300  0.190300  0.221900  1.0
  C  C196  1  0.221900  0.587500  0.000300  1.0
  C  C197  1  0.587500  0.190300  0.000300  1.0
  C  C198  1  0.190300  0.587500  0.221900  1.0
  C  C199  1  0.000300  0.221900  0.587500  1.0
  C  C200  1  0.221900  0.000300  0.190300  1.0
  C  C201  1  0.520500  0.769500  0.490700  1.0
  C  C202  1  0.219300  0.490700  0.769500  1.0
  C  C203  1  0.490700  0.219300  0.520500  1.0
  C  C204  1  0.769500  0.520500  0.219300  1.0
  C  C205  1  0.769500  0.490700  0.520500  1.0
  C  C206  1  0.490700  0.769500  0.219300  1.0
  C  C207  1  0.219300  0.520500  0.490700  1.0
  C  C208  1  0.520500  0.219300  0.769500  1.0
  C  C209  1  0.490700  0.520500  0.769500  1.0
  C  C210  1  0.769500  0.219300  0.490700  1.0
  C  C211  1  0.520500  0.490700  0.219300  1.0
  C  C212  1  0.219300  0.769500  0.520500  1.0
  C  C213  1  0.530700  0.980500  0.259300  1.0
  C  C214  1  0.229500  0.259300  0.980500  1.0
  C  C215  1  0.980500  0.530700  0.229500  1.0
  C  C216  1  0.259300  0.229500  0.530700  1.0
  C  C217  1  0.530700  0.259300  0.229500  1.0
  C  C218  1  0.229500  0.980500  0.530700  1.0
  C  C219  1  0.980500  0.229500  0.259300  1.0
  C  C220  1  0.259300  0.530700  0.980500  1.0
  C  C221  1  0.530700  0.229500  0.980500  1.0
  C  C222  1  0.229500  0.530700  0.259300  1.0
  C  C223  1  0.980500  0.259300  0.530700  1.0
  C  C224  1  0.259300  0.980500  0.229500  1.0
  C  C225  1  0.546500  0.746500  0.437300  1.0
  C  C226  1  0.269700  0.437300  0.746500  1.0
  C  C227  1  0.437300  0.269700  0.546500  1.0
  C  C228  1  0.746500  0.546500  0.269700  1.0
  C  C229  1  0.746500  0.437300  0.546500  1.0
  C  C230  1  0.437300  0.746500  0.269700  1.0
  C  C231  1  0.269700  0.546500  0.437300  1.0
  C  C232  1  0.546500  0.269700  0.746500  1.0
  C  C233  1  0.437300  0.546500  0.746500  1.0
  C  C234  1  0.746500  0.269700  0.437300  1.0
  C  C235  1  0.546500  0.437300  0.269700  1.0
  C  C236  1  0.269700  0.746500  0.546500  1.0
  C  C237  1  0.480300  0.003500  0.312700  1.0
  C  C238  1  0.203500  0.312700  0.003500  1.0
  C  C239  1  0.003500  0.480300  0.203500  1.0
  C  C240  1  0.312700  0.203500  0.480300  1.0
  C  C241  1  0.480300  0.312700  0.203500  1.0
  C  C242  1  0.203500  0.003500  0.480300  1.0
  C  C243  1  0.003500  0.203500  0.312700  1.0
  C  C244  1  0.312700  0.480300  0.003500  1.0
  C  C245  1  0.480300  0.203500  0.003500  1.0
  C  C246  1  0.203500  0.480300  0.312700  1.0
  C  C247  1  0.003500  0.312700  0.480300  1.0
  C  C248  1  0.312700  0.003500  0.203500  1.0
  C  C249  1  0.612900  0.702700  0.422700  1.0
  C  C250  1  0.261700  0.422700  0.702700  1.0
  C  C251  1  0.422700  0.261700  0.612900  1.0
  C  C252  1  0.702700  0.612900  0.261700  1.0
  C  C253  1  0.702700  0.422700  0.612900  1.0
  C  C254  1  0.422700  0.702700  0.261700  1.0
  C  C255  1  0.261700  0.612900  0.422700  1.0
  C  C256  1  0.612900  0.261700  0.702700  1.0
  C  C257  1  0.422700  0.612900  0.702700  1.0
  C  C258  1  0.702700  0.261700  0.422700  1.0
  C  C259  1  0.612900  0.422700  0.261700  1.0
  C  C260  1  0.261700  0.702700  0.612900  1.0
  C  C261  1  0.488300  0.047300  0.327300  1.0
  C  C262  1  0.137100  0.327300  0.047300  1.0
  C  C263  1  0.047300  0.488300  0.137100  1.0
  C  C264  1  0.327300  0.137100  0.488300  1.0
  C  C265  1  0.488300  0.327300  0.137100  1.0
  C  C266  1  0.137100  0.047300  0.488300  1.0
  C  C267  1  0.047300  0.137100  0.327300  1.0
  C  C268  1  0.327300  0.488300  0.047300  1.0
  C  C269  1  0.488300  0.137100  0.047300  1.0
  C  C270  1  0.137100  0.488300  0.327300  1.0
  C  C271  1  0.047300  0.327300  0.488300  1.0
  C  C272  1  0.327300  0.047300  0.137100  1.0
  C  C273  1  0.652300  0.682700  0.459900  1.0
  C  C274  1  0.205100  0.459900  0.682700  1.0
  C  C275  1  0.459900  0.205100  0.652300  1.0
  C  C276  1  0.682700  0.652300  0.205100  1.0
  C  C277  1  0.682700  0.459900  0.652300  1.0
  C  C278  1  0.459900  0.682700  0.205100  1.0
  C  C279  1  0.205100  0.652300  0.459900  1.0
  C  C280  1  0.652300  0.205100  0.682700  1.0
  C  C281  1  0.459900  0.652300  0.682700  1.0
  C  C282  1  0.682700  0.205100  0.459900  1.0
  C  C283  1  0.652300  0.459900  0.205100  1.0
  C  C284  1  0.205100  0.682700  0.652300  1.0
  C  C285  1  0.544900  0.067300  0.290100  1.0
  C  C286  1  0.097700  0.290100  0.067300  1.0
  C  C287  1  0.067300  0.544900  0.097700  1.0
  C  C288  1  0.290100  0.097700  0.544900  1.0
  C  C289  1  0.544900  0.290100  0.097700  1.0
  C  C290  1  0.097700  0.067300  0.544900  1.0
  C  C291  1  0.067300  0.097700  0.290100  1.0
  C  C292  1  0.290100  0.544900  0.067300  1.0
  C  C293  1  0.544900  0.097700  0.067300  1.0
  C  C294  1  0.097700  0.544900  0.290100  1.0
  C  C295  1  0.067300  0.290100  0.544900  1.0
  C  C296  1  0.290100  0.067300  0.097700  1.0
  C  C297  1  0.504600  0.769200  0.396000  1.0
  C  C298  1  0.330200  0.396000  0.769200  1.0
  C  C299  1  0.396000  0.330200  0.504600  1.0
  C  C300  1  0.769200  0.504600  0.330200  1.0
  C  C301  1  0.769200  0.396000  0.504600  1.0
  C  C302  1  0.396000  0.769200  0.330200  1.0
  C  C303  1  0.330200  0.504600  0.396000  1.0
  C  C304  1  0.504600  0.330200  0.769200  1.0
  C  C305  1  0.396000  0.504600  0.769200  1.0
  C  C306  1  0.769200  0.330200  0.396000  1.0
  C  C307  1  0.504600  0.396000  0.330200  1.0
  C  C308  1  0.330200  0.769200  0.504600  1.0
  C  C309  1  0.419800  0.980800  0.354000  1.0
  C  C310  1  0.245400  0.354000  0.980800  1.0
  C  C311  1  0.980800  0.419800  0.245400  1.0
  C  C312  1  0.354000  0.245400  0.419800  1.0
  C  C313  1  0.419800  0.354000  0.245400  1.0
  C  C314  1  0.245400  0.980800  0.419800  1.0
  C  C315  1  0.980800  0.245400  0.354000  1.0
  C  C316  1  0.354000  0.419800  0.980800  1.0
  C  C317  1  0.419800  0.245400  0.980800  1.0
  C  C318  1  0.245400  0.419800  0.354000  1.0
  C  C319  1  0.980800  0.354000  0.419800  1.0
  C  C320  1  0.354000  0.980800  0.245400  1.0
  Co  Co321  1  0.750000  0.750000  0.750000  1
  Co  Co322  1  0.000000  0.000000  0.000000  1
  Co  Co323  1  0.650030  0.650030  0.650030  1.0
  Co  Co324  1  0.049910  0.650030  0.650030  1.0
  Co  Co325  1  0.650030  0.049910  0.650030  1.0
  Co  Co326  1  0.650030  0.650030  0.049910  1.0
  Co  Co327  1  0.700090  0.099970  0.099970  1.0
  Co  Co328  1  0.099970  0.099970  0.099970  1.0
  Co  Co329  1  0.099970  0.700090  0.099970  1.0
  Co  Co330  1  0.099970  0.099970  0.700090  1.0
  H  H331  1  0.784100  0.601700  0.683100  1.0
  H  H332  1  0.931100  0.683100  0.601700  1.0
  H  H333  1  0.683100  0.931100  0.784100  1.0
  H  H334  1  0.601700  0.784100  0.931100  1.0
  H  H335  1  0.601700  0.683100  0.784100  1.0
  H  H336  1  0.683100  0.601700  0.931100  1.0
  H  H337  1  0.931100  0.784100  0.683100  1.0
  H  H338  1  0.784100  0.931100  0.601700  1.0
  H  H339  1  0.683100  0.784100  0.601700  1.0
  H  H340  1  0.601700  0.931100  0.683100  1.0
  H  H341  1  0.784100  0.683100  0.931100  1.0
  H  H342  1  0.931100  0.601700  0.784100  1.0
  H  H343  1  0.818900  0.148300  0.066900  1.0
  H  H344  1  0.965900  0.066900  0.148300  1.0
  H  H345  1  0.148300  0.818900  0.965900  1.0
  H  H346  1  0.066900  0.965900  0.818900  1.0
  H  H347  1  0.818900  0.066900  0.965900  1.0
  H  H348  1  0.965900  0.148300  0.818900  1.0
  H  H349  1  0.148300  0.965900  0.066900  1.0
  H  H350  1  0.066900  0.818900  0.148300  1.0
  H  H351  1  0.818900  0.965900  0.148300  1.0
  H  H352  1  0.965900  0.818900  0.066900  1.0
  H  H353  1  0.148300  0.066900  0.818900  1.0
  H  H354  1  0.066900  0.148300  0.965900  1.0
  H  H355  1  0.918300  0.673900  0.507100  1.0
  H  H356  1  0.900700  0.507100  0.673900  1.0
  H  H357  1  0.507100  0.900700  0.918300  1.0
  H  H358  1  0.673900  0.918300  0.900700  1.0
  H  H359  1  0.673900  0.507100  0.918300  1.0
  H  H360  1  0.507100  0.673900  0.900700  1.0
  H  H361  1  0.900700  0.918300  0.507100  1.0
  H  H362  1  0.918300  0.900700  0.673900  1.0
  H  H363  1  0.507100  0.918300  0.673900  1.0
  H  H364  1  0.673900  0.900700  0.507100  1.0
  H  H365  1  0.918300  0.507100  0.900700  1.0
  H  H366  1  0.900700  0.673900  0.918300  1.0
  H  H367  1  0.849300  0.076100  0.242900  1.0
  H  H368  1  0.831700  0.242900  0.076100  1.0
  H  H369  1  0.076100  0.849300  0.831700  1.0
  H  H370  1  0.242900  0.831700  0.849300  1.0
  H  H371  1  0.849300  0.242900  0.831700  1.0
  H  H372  1  0.831700  0.076100  0.849300  1.0
  H  H373  1  0.076100  0.831700  0.242900  1.0
  H  H374  1  0.242900  0.849300  0.076100  1.0
  H  H375  1  0.849300  0.831700  0.076100  1.0
  H  H376  1  0.831700  0.849300  0.242900  1.0
  H  H377  1  0.076100  0.242900  0.849300  1.0
  H  H378  1  0.242900  0.076100  0.831700  1.0
  H  H379  1  0.841000  0.720600  0.452600  1.0
  H  H380  1  0.985800  0.452600  0.720600  1.0
  H  H381  1  0.452600  0.985800  0.841000  1.0
  H  H382  1  0.720600  0.841000  0.985800  1.0
  H  H383  1  0.720600  0.452600  0.841000  1.0
  H  H384  1  0.452600  0.720600  0.985800  1.0
  H  H385  1  0.985800  0.841000  0.452600  1.0
  H  H386  1  0.841000  0.985800  0.720600  1.0
  H  H387  1  0.452600  0.841000  0.720600  1.0
  H  H388  1  0.720600  0.985800  0.452600  1.0
  H  H389  1  0.841000  0.452600  0.985800  1.0
  H  H390  1  0.985800  0.720600  0.841000  1.0
  H  H391  1  0.764200  0.029400  0.297400  1.0
  H  H392  1  0.909000  0.297400  0.029400  1.0
  H  H393  1  0.029400  0.764200  0.909000  1.0
  H  H394  1  0.297400  0.909000  0.764200  1.0
  H  H395  1  0.764200  0.297400  0.909000  1.0
  H  H396  1  0.909000  0.029400  0.764200  1.0
  H  H397  1  0.029400  0.909000  0.297400  1.0
  H  H398  1  0.297400  0.764200  0.029400  1.0
  H  H399  1  0.764200  0.909000  0.029400  1.0
  H  H400  1  0.909000  0.764200  0.297400  1.0
  H  H401  1  0.029400  0.297400  0.764200  1.0
  H  H402  1  0.297400  0.029400  0.909000  1.0
  H  H403  1  0.724400  0.734000  0.459800  1.0
  H  H404  1  0.081800  0.459800  0.734000  1.0
  H  H405  1  0.459800  0.081800  0.724400  1.0
  H  H406  1  0.734000  0.724400  0.081800  1.0
  H  H407  1  0.734000  0.459800  0.724400  1.0
  H  H408  1  0.459800  0.734000  0.081800  1.0
  H  H409  1  0.081800  0.724400  0.459800  1.0
  H  H410  1  0.724400  0.081800  0.734000  1.0
  H  H411  1  0.459800  0.724400  0.734000  1.0
  H  H412  1  0.734000  0.081800  0.459800  1.0
  H  H413  1  0.724400  0.459800  0.081800  1.0
  H  H414  1  0.081800  0.734000  0.724400  1.0
  H  H415  1  0.668200  0.016000  0.290200  1.0
  H  H416  1  0.025600  0.290200  0.016000  1.0
  H  H417  1  0.016000  0.668200  0.025600  1.0
  H  H418  1  0.290200  0.025600  0.668200  1.0
  H  H419  1  0.668200  0.290200  0.025600  1.0
  H  H420  1  0.025600  0.016000  0.668200  1.0
  H  H421  1  0.016000  0.025600  0.290200  1.0
  H  H422  1  0.290200  0.668200  0.016000  1.0
  H  H423  1  0.668200  0.025600  0.016000  1.0
  H  H424  1  0.025600  0.668200  0.290200  1.0
  H  H425  1  0.016000  0.290200  0.668200  1.0
  H  H426  1  0.290200  0.016000  0.025600  1.0
  H  H427  1  0.541300  0.765700  0.564100  1.0
  H  H428  1  0.128900  0.564100  0.765700  1.0
  H  H429  1  0.564100  0.128900  0.541300  1.0
  H  H430  1  0.765700  0.541300  0.128900  1.0
  H  H431  1  0.765700  0.564100  0.541300  1.0
  H  H432  1  0.564100  0.765700  0.128900  1.0
  H  H433  1  0.128900  0.541300  0.564100  1.0
  H  H434  1  0.541300  0.128900  0.765700  1.0
  H  H435  1  0.564100  0.541300  0.765700  1.0
  H  H436  1  0.765700  0.128900  0.564100  1.0
  H  H437  1  0.541300  0.564100  0.128900  1.0
  H  H438  1  0.128900  0.765700  0.541300  1.0
  H  H439  1  0.621100  0.984300  0.185900  1.0
  H  H440  1  0.208700  0.185900  0.984300  1.0
  H  H441  1  0.984300  0.621100  0.208700  1.0
  H  H442  1  0.185900  0.208700  0.621100  1.0
  H  H443  1  0.621100  0.185900  0.208700  1.0
  H  H444  1  0.208700  0.984300  0.621100  1.0
  H  H445  1  0.984300  0.208700  0.185900  1.0
  H  H446  1  0.185900  0.621100  0.984300  1.0
  H  H447  1  0.621100  0.208700  0.984300  1.0
  H  H448  1  0.208700  0.621100  0.185900  1.0
  H  H449  1  0.984300  0.185900  0.621100  1.0
  H  H450  1  0.185900  0.984300  0.208700  1.0
  H  H451  1  0.475600  0.799000  0.501600  1.0
  H  H452  1  0.223800  0.501600  0.799000  1.0
  H  H453  1  0.501600  0.223800  0.475600  1.0
  H  H454  1  0.799000  0.475600  0.223800  1.0
  H  H455  1  0.799000  0.501600  0.475600  1.0
  H  H456  1  0.501600  0.799000  0.223800  1.0
  H  H457  1  0.223800  0.475600  0.501600  1.0
  H  H458  1  0.475600  0.223800  0.799000  1.0
  H  H459  1  0.501600  0.475600  0.799000  1.0
  H  H460  1  0.799000  0.223800  0.501600  1.0
  H  H461  1  0.475600  0.501600  0.223800  1.0
  H  H462  1  0.223800  0.799000  0.475600  1.0
  H  H463  1  0.526200  0.951000  0.248400  1.0
  H  H464  1  0.274400  0.248400  0.951000  1.0
  H  H465  1  0.951000  0.526200  0.274400  1.0
  H  H466  1  0.248400  0.274400  0.526200  1.0
  H  H467  1  0.526200  0.248400  0.274400  1.0
  H  H468  1  0.274400  0.951000  0.526200  1.0
  H  H469  1  0.951000  0.274400  0.248400  1.0
  H  H470  1  0.248400  0.526200  0.951000  1.0
  H  H471  1  0.526200  0.274400  0.951000  1.0
  H  H472  1  0.274400  0.526200  0.248400  1.0
  H  H473  1  0.951000  0.248400  0.526200  1.0
  H  H474  1  0.248400  0.951000  0.274400  1.0
  H  H475  1  0.631400  0.686400  0.386800  1.0
  H  H476  1  0.295400  0.386800  0.686400  1.0
  H  H477  1  0.386800  0.295400  0.631400  1.0
  H  H478  1  0.686400  0.631400  0.295400  1.0
  H  H479  1  0.686400  0.386800  0.631400  1.0
  H  H480  1  0.386800  0.686400  0.295400  1.0
  H  H481  1  0.295400  0.631400  0.386800  1.0
  H  H482  1  0.631400  0.295400  0.686400  1.0
  H  H483  1  0.386800  0.631400  0.686400  1.0
  H  H484  1  0.686400  0.295400  0.386800  1.0
  H  H485  1  0.631400  0.386800  0.295400  1.0
  H  H486  1  0.295400  0.686400  0.631400  1.0
  H  H487  1  0.454600  0.063600  0.363200  1.0
  H  H488  1  0.118600  0.363200  0.063600  1.0
  H  H489  1  0.063600  0.454600  0.118600  1.0
  H  H490  1  0.363200  0.118600  0.454600  1.0
  H  H491  1  0.454600  0.363200  0.118600  1.0
  H  H492  1  0.118600  0.063600  0.454600  1.0
  H  H493  1  0.063600  0.118600  0.363200  1.0
  H  H494  1  0.363200  0.454600  0.063600  1.0
  H  H495  1  0.454600  0.118600  0.063600  1.0
  H  H496  1  0.118600  0.454600  0.363200  1.0
  H  H497  1  0.063600  0.363200  0.454600  1.0
  H  H498  1  0.363200  0.063600  0.118600  1.0
  H  H499  1  0.697300  0.653100  0.449100  1.0
  H  H500  1  0.200500  0.449100  0.653100  1.0
  H  H501  1  0.449100  0.200500  0.697300  1.0
  H  H502  1  0.653100  0.697300  0.200500  1.0
  H  H503  1  0.653100  0.449100  0.697300  1.0
  H  H504  1  0.449100  0.653100  0.200500  1.0
  H  H505  1  0.200500  0.697300  0.449100  1.0
  H  H506  1  0.697300  0.200500  0.653100  1.0
  H  H507  1  0.449100  0.697300  0.653100  1.0
  H  H508  1  0.653100  0.200500  0.449100  1.0
  H  H509  1  0.697300  0.449100  0.200500  1.0
  H  H510  1  0.200500  0.653100  0.697300  1.0
  H  H511  1  0.549500  0.096900  0.300900  1.0
  H  H512  1  0.052700  0.300900  0.096900  1.0
  H  H513  1  0.096900  0.549500  0.052700  1.0
  H  H514  1  0.300900  0.052700  0.549500  1.0
  H  H515  1  0.549500  0.300900  0.052700  1.0
  H  H516  1  0.052700  0.096900  0.549500  1.0
  H  H517  1  0.096900  0.052700  0.300900  1.0
  H  H518  1  0.300900  0.549500  0.096900  1.0
  H  H519  1  0.549500  0.052700  0.096900  1.0
  H  H520  1  0.052700  0.549500  0.300900  1.0
  H  H521  1  0.096900  0.300900  0.549500  1.0
  H  H522  1  0.300900  0.096900  0.052700  1.0
  H  H523  1  0.531000  0.748000  0.361200  1.0
  H  H524  1  0.359800  0.361200  0.748000  1.0
  H  H525  1  0.361200  0.359800  0.531000  1.0
  H  H526  1  0.748000  0.531000  0.359800  1.0
  H  H527  1  0.748000  0.361200  0.531000  1.0
  H  H528  1  0.361200  0.748000  0.359800  1.0
  H  H529  1  0.359800  0.531000  0.361200  1.0
  H  H530  1  0.531000  0.359800  0.748000  1.0
  H  H531  1  0.361200  0.531000  0.748000  1.0
  H  H532  1  0.748000  0.359800  0.361200  1.0
  H  H533  1  0.531000  0.361200  0.359800  1.0
  H  H534  1  0.359800  0.748000  0.531000  1.0
  H  H535  1  0.390200  0.002000  0.388800  1.0
  H  H536  1  0.219000  0.388800  0.002000  1.0
  H  H537  1  0.002000  0.390200  0.219000  1.0
  H  H538  1  0.388800  0.219000  0.390200  1.0
  H  H539  1  0.390200  0.388800  0.219000  1.0
  H  H540  1  0.219000  0.002000  0.390200  1.0
  H  H541  1  0.002000  0.219000  0.388800  1.0
  H  H542  1  0.388800  0.390200  0.002000  1.0
  H  H543  1  0.390200  0.219000  0.002000  1.0
  H  H544  1  0.219000  0.390200  0.388800  1.0
  H  H545  1  0.002000  0.388800  0.390200  1.0
  H  H546  1  0.388800  0.002000  0.219000  1.0
  H  H547  1  0.491500  0.818100  0.374900  1.0
  H  H548  1  0.315500  0.374900  0.818100  1.0
  H  H549  1  0.374900  0.315500  0.491500  1.0
  H  H550  1  0.818100  0.491500  0.315500  1.0
  H  H551  1  0.818100  0.374900  0.491500  1.0
  H  H552  1  0.374900  0.818100  0.315500  1.0
  H  H553  1  0.315500  0.491500  0.374900  1.0
  H  H554  1  0.491500  0.315500  0.818100  1.0
  H  H555  1  0.374900  0.491500  0.818100  1.0
  H  H556  1  0.818100  0.315500  0.374900  1.0
  H  H557  1  0.491500  0.374900  0.315500  1.0
  H  H558  1  0.315500  0.818100  0.491500  1.0
  H  H559  1  0.434500  0.931900  0.375100  1.0
  H  H560  1  0.258500  0.375100  0.931900  1.0
  H  H561  1  0.931900  0.434500  0.258500  1.0
  H  H562  1  0.375100  0.258500  0.434500  1.0
  H  H563  1  0.434500  0.375100  0.258500  1.0
  H  H564  1  0.258500  0.931900  0.434500  1.0
  H  H565  1  0.931900  0.258500  0.375100  1.0
  H  H566  1  0.375100  0.434500  0.931900  1.0
  H  H567  1  0.434500  0.258500  0.931900  1.0
  H  H568  1  0.258500  0.434500  0.375100  1.0
  H  H569  1  0.931900  0.375100  0.434500  1.0
  H  H570  1  0.375100  0.931900  0.258500  1.0
  H  H571  1  0.464400  0.756200  0.425000  1.0
  H  H572  1  0.354400  0.425000  0.756200  1.0
  H  H573  1  0.425000  0.354400  0.464400  1.0
  H  H574  1  0.756200  0.464400  0.354400  1.0
  H  H575  1  0.756200  0.425000  0.464400  1.0
  H  H576  1  0.425000  0.756200  0.354400  1.0
  H  H577  1  0.354400  0.464400  0.425000  1.0
  H  H578  1  0.464400  0.354400  0.756200  1.0
  H  H579  1  0.425000  0.464400  0.756200  1.0
  H  H580  1  0.756200  0.354400  0.425000  1.0
  H  H581  1  0.464400  0.425000  0.354400  1.0
  H  H582  1  0.354400  0.756200  0.464400  1.0
  H  H583  1  0.395600  0.993800  0.325000  1.0
  H  H584  1  0.285600  0.325000  0.993800  1.0
  H  H585  1  0.993800  0.395600  0.285600  1.0
  H  H586  1  0.325000  0.285600  0.395600  1.0
  H  H587  1  0.395600  0.325000  0.285600  1.0
  H  H588  1  0.285600  0.993800  0.395600  1.0
  H  H589  1  0.993800  0.285600  0.325000  1.0
  H  H590  1  0.325000  0.395600  0.993800  1.0
  H  H591  1  0.395600  0.285600  0.993800  1.0
  H  H592  1  0.285600  0.395600  0.325000  1.0
  H  H593  1  0.993800  0.325000  0.395600  1.0
  H  H594  1  0.325000  0.993800  0.285600  1.0
  N  N595  1  0.661300  0.692100  0.549500  1.0
  N  N596  1  0.097100  0.549500  0.692100  1.0
  N  N597  1  0.549500  0.097100  0.661300  1.0
  N  N598  1  0.692100  0.661300  0.097100  1.0
  N  N599  1  0.692100  0.549500  0.661300  1.0
  N  N600  1  0.549500  0.692100  0.097100  1.0
  N  N601  1  0.097100  0.661300  0.549500  1.0
  N  N602  1  0.661300  0.097100  0.692100  1.0
  N  N603  1  0.549500  0.661300  0.692100  1.0
  N  N604  1  0.692100  0.097100  0.549500  1.0
  N  N605  1  0.661300  0.549500  0.097100  1.0
  N  N606  1  0.097100  0.692100  0.661300  1.0
  N  N607  1  0.652900  0.057900  0.200500  1.0
  N  N608  1  0.088700  0.200500  0.057900  1.0
  N  N609  1  0.057900  0.652900  0.088700  1.0
  N  N610  1  0.200500  0.088700  0.652900  1.0
  N  N611  1  0.652900  0.200500  0.088700  1.0
  N  N612  1  0.088700  0.057900  0.652900  1.0
  N  N613  1  0.057900  0.088700  0.200500  1.0
  N  N614  1  0.200500  0.652900  0.057900  1.0
  N  N615  1  0.652900  0.088700  0.057900  1.0
  N  N616  1  0.088700  0.652900  0.200500  1.0
  N  N617  1  0.057900  0.200500  0.652900  1.0
  N  N618  1  0.200500  0.057900  0.088700  1.0
  N  N619  1  0.749720  0.653580  0.603920  1.0
  N  N620  1  0.992780  0.603920  0.653580  1.0
  N  N621  1  0.603920  0.992780  0.749720  1.0
  N  N622  1  0.653580  0.749720  0.992780  1.0
  N  N623  1  0.653580  0.603920  0.749720  1.0
  N  N624  1  0.603920  0.653580  0.992780  1.0
  N  N625  1  0.992780  0.749720  0.603920  1.0
  N  N626  1  0.749720  0.992780  0.653580  1.0
  N  N627  1  0.603920  0.749720  0.653580  1.0
  N  N628  1  0.653580  0.992780  0.603920  1.0
  N  N629  1  0.749720  0.603920  0.992780  1.0
  N  N630  1  0.992780  0.653580  0.749720  1.0
  N  N631  1  0.757220  0.096420  0.146080  1.0
  N  N632  1  0.000280  0.146080  0.096420  1.0
  N  N633  1  0.096420  0.757220  0.000280  1.0
  N  N634  1  0.146080  0.000280  0.757220  1.0
  N  N635  1  0.757220  0.146080  0.000280  1.0
  N  N636  1  0.000280  0.096420  0.757220  1.0
  N  N637  1  0.096420  0.000280  0.146080  1.0
  N  N638  1  0.146080  0.757220  0.096420  1.0
  N  N639  1  0.757220  0.000280  0.096420  1.0
  N  N640  1  0.000280  0.757220  0.146080  1.0
  N  N641  1  0.096420  0.146080  0.757220  1.0
  N  N642  1  0.146080  0.096420  0.000280  1.0
