# generated using pymatgen
data_Co5.80952381Os2.19047619H264C336N72Cl18O74
_symmetry_space_group_name_H-M   'P 1'
_cell_length_a   24.26469993
_cell_length_b   24.26469993
_cell_length_c   24.26469993
_cell_angle_alpha   73.26903062
_cell_angle_beta   73.26903062
_cell_angle_gamma   73.26903062
_symmetry_Int_Tables_number   1
_chemical_formula_structural
Co5.80952381Os2.19047619H264C336N72Cl18O74
_chemical_formula_sum
'Co5.80952381 Os2.19047619 H264 C336 N72 Cl18 O74'
_cell_volume   12770.96153043
_cell_formula_units_Z   1
loop_
 _symmetry_equiv_pos_site_id
 _symmetry_equiv_pos_as_xyz
  1  'x, y, z'
loop_
 _atom_site_type_symbol
 _atom_site_label
 _atom_site_symmetry_multiplicity
 _atom_site_fract_x
 _atom_site_fract_y
 _atom_site_fract_z
 _atom_site_occupancy
  C  C1  1  0.166360  0.147560  0.554560  1.0
  C  C2  1  0.554560  0.166360  0.147560  1.0
  C  C3  1  0.147560  0.554560  0.166360  1.0
  C  C4  1  0.833640  0.852440  0.445440  1.0
  C  C5  1  0.445440  0.833640  0.852440  1.0
  C  C6  1  0.852440  0.445440  0.833640  1.0
  C  C7  1  0.161400  0.208300  0.540300  1.0
  C  C8  1  0.540300  0.161400  0.208300  1.0
  C  C9  1  0.208300  0.540300  0.161400  1.0
  C  C10  1  0.838600  0.791700  0.459700  1.0
  C  C11  1  0.459700  0.838600  0.791700  1.0
  C  C12  1  0.791700  0.459700  0.838600  1.0
  C  C13  1  0.210000  0.230800  0.533700  1.0
  C  C14  1  0.533700  0.210000  0.230800  1.0
  C  C15  1  0.230800  0.533700  0.210000  1.0
  C  C16  1  0.790000  0.769200  0.466300  1.0
  C  C17  1  0.466300  0.790000  0.769200  1.0
  C  C18  1  0.769200  0.466300  0.790000  1.0
  C  C19  1  0.263730  0.192630  0.541330  1.0
  C  C20  1  0.541330  0.263730  0.192630  1.0
  C  C21  1  0.192630  0.541330  0.263730  1.0
  C  C22  1  0.736270  0.807370  0.458670  1.0
  C  C23  1  0.458670  0.736270  0.807370  1.0
  C  C24  1  0.807370  0.458670  0.736270  1.0
  C  C25  1  0.268700  0.132000  0.555500  1.0
  C  C26  1  0.555500  0.268700  0.132000  1.0
  C  C27  1  0.132000  0.555500  0.268700  1.0
  C  C28  1  0.731300  0.868000  0.444500  1.0
  C  C29  1  0.444500  0.731300  0.868000  1.0
  C  C30  1  0.868000  0.444500  0.731300  1.0
  C  C31  1  0.122230  0.123330  0.557130  1.0
  C  C32  1  0.557130  0.122230  0.123330  1.0
  C  C33  1  0.123330  0.557130  0.122230  1.0
  C  C34  1  0.877770  0.876670  0.442870  1.0
  C  C35  1  0.442870  0.877770  0.876670  1.0
  C  C36  1  0.876670  0.442870  0.877770  1.0
  C  C37  1  0.064500  0.146300  0.546500  1.0
  C  C38  1  0.546500  0.064500  0.146300  1.0
  C  C39  1  0.146300  0.546500  0.064500  1.0
  C  C40  1  0.935500  0.853700  0.453500  1.0
  C  C41  1  0.453500  0.935500  0.853700  1.0
  C  C42  1  0.853700  0.453500  0.935500  1.0
  C  C43  1  0.038200  0.097800  0.556800  1.0
  C  C44  1  0.556800  0.038200  0.097800  1.0
  C  C45  1  0.097800  0.556800  0.038200  1.0
  C  C46  1  0.961800  0.902200  0.443200  1.0
  C  C47  1  0.443200  0.961800  0.902200  1.0
  C  C48  1  0.902200  0.443200  0.961800  1.0
  C  C49  1  0.072400  0.982300  0.593100  1.0
  C  C50  1  0.593100  0.072400  0.982300  1.0
  C  C51  1  0.982300  0.593100  0.072400  1.0
  C  C52  1  0.927600  0.017700  0.406900  1.0
  C  C53  1  0.406900  0.927600  0.017700  1.0
  C  C54  1  0.017700  0.406900  0.927600  1.0
  C  C55  1  0.845080  0.694280  0.883980  1.0
  C  C56  1  0.883980  0.845080  0.694280  1.0
  C  C57  1  0.694280  0.883980  0.845080  1.0
  C  C58  1  0.154920  0.305720  0.116020  1.0
  C  C59  1  0.116020  0.154920  0.305720  1.0
  C  C60  1  0.305720  0.116020  0.154920  1.0
  C  C61  1  0.835000  0.637900  0.909700  1.0
  C  C62  1  0.909700  0.835000  0.637900  1.0
  C  C63  1  0.637900  0.909700  0.835000  1.0
  C  C64  1  0.165000  0.362100  0.090300  1.0
  C  C65  1  0.090300  0.165000  0.362100  1.0
  C  C66  1  0.362100  0.090300  0.165000  1.0
  C  C67  1  0.780300  0.626900  0.915100  1.0
  C  C68  1  0.915100  0.780300  0.626900  1.0
  C  C69  1  0.626900  0.915100  0.780300  1.0
  C  C70  1  0.219700  0.373100  0.084900  1.0
  C  C71  1  0.084900  0.219700  0.373100  1.0
  C  C72  1  0.373100  0.084900  0.219700  1.0
  C  C73  1  0.735790  0.672190  0.894790  1.0
  C  C74  1  0.894790  0.735790  0.672190  1.0
  C  C75  1  0.672190  0.894790  0.735790  1.0
  C  C76  1  0.264210  0.327810  0.105210  1.0
  C  C77  1  0.105210  0.264210  0.327810  1.0
  C  C78  1  0.327810  0.105210  0.264210  1.0
  C  C79  1  0.745900  0.728600  0.869100  1.0
  C  C80  1  0.869100  0.745900  0.728600  1.0
  C  C81  1  0.728600  0.869100  0.745900  1.0
  C  C82  1  0.254100  0.271400  0.130900  1.0
  C  C83  1  0.130900  0.254100  0.271400  1.0
  C  C84  1  0.271400  0.130900  0.254100  1.0
  C  C85  1  0.897240  0.708740  0.878740  1.0
  C  C86  1  0.878740  0.897240  0.708740  1.0
  C  C87  1  0.708740  0.878740  0.897240  1.0
  C  C88  1  0.102760  0.291260  0.121260  1.0
  C  C89  1  0.121260  0.102760  0.291260  1.0
  C  C90  1  0.291260  0.121260  0.102760  1.0
  C  C91  1  0.952380  0.677980  0.893180  1.0
  C  C92  1  0.893180  0.952380  0.677980  1.0
  C  C93  1  0.677980  0.893180  0.952380  1.0
  C  C94  1  0.047620  0.322020  0.106820  1.0
  C  C95  1  0.106820  0.047620  0.322020  1.0
  C  C96  1  0.322020  0.106820  0.047620  1.0
  C  C97  1  0.987750  0.719650  0.880250  1.0
  C  C98  1  0.880250  0.987750  0.719650  1.0
  C  C99  1  0.719650  0.880250  0.987750  1.0
  C  C100  1  0.012250  0.280350  0.119750  1.0
  C  C101  1  0.119750  0.012250  0.280350  1.0
  C  C102  1  0.280350  0.119750  0.012250  1.0
  C  C103  1  0.974200  0.829000  0.837400  1.0
  C  C104  1  0.837400  0.974200  0.829000  1.0
  C  C105  1  0.829000  0.837400  0.974200  1.0
  C  C106  1  0.025800  0.171000  0.162600  1.0
  C  C107  1  0.162600  0.025800  0.171000  1.0
  C  C108  1  0.171000  0.162600  0.025800  1.0
  C  C109  1  0.048610  0.967910  0.658610  1.0
  C  C110  1  0.658610  0.048610  0.967910  1.0
  C  C111  1  0.967910  0.658610  0.048610  1.0
  C  C112  1  0.951390  0.032090  0.341390  1.0
  C  C113  1  0.341390  0.951390  0.032090  1.0
  C  C114  1  0.032090  0.341390  0.951390  1.0
  C  C115  1  0.035150  0.009650  0.692250  1.0
  C  C116  1  0.692250  0.035150  0.009650  1.0
  C  C117  1  0.009650  0.692250  0.035150  1.0
  C  C118  1  0.964850  0.990350  0.307750  1.0
  C  C119  1  0.307750  0.964850  0.990350  1.0
  C  C120  1  0.990350  0.307750  0.964850  1.0
  C  C121  1  0.010510  0.995710  0.752310  1.0
  C  C122  1  0.752310  0.010510  0.995710  1.0
  C  C123  1  0.995710  0.752310  0.010510  1.0
  C  C124  1  0.989490  0.004290  0.247690  1.0
  C  C125  1  0.247690  0.989490  0.004290  1.0
  C  C126  1  0.004290  0.247690  0.989490  1.0
  C  C127  1  0.999220  0.939920  0.778920  1.0
  C  C128  1  0.778920  0.999220  0.939920  1.0
  C  C129  1  0.939920  0.778920  0.999220  1.0
  C  C130  1  0.000780  0.060080  0.221080  1.0
  C  C131  1  0.221080  0.000780  0.060080  1.0
  C  C132  1  0.060080  0.221080  0.000780  1.0
  C  C133  1  0.012780  0.897980  0.745380  1.0
  C  C134  1  0.745380  0.012780  0.897980  1.0
  C  C135  1  0.897980  0.745380  0.012780  1.0
  C  C136  1  0.987220  0.102020  0.254620  1.0
  C  C137  1  0.254620  0.987220  0.102020  1.0
  C  C138  1  0.102020  0.254620  0.987220  1.0
  C  C139  1  0.037430  0.912030  0.685230  1.0
  C  C140  1  0.685230  0.037430  0.912030  1.0
  C  C141  1  0.912030  0.685230  0.037430  1.0
  C  C142  1  0.962570  0.087970  0.314770  1.0
  C  C143  1  0.314770  0.962570  0.087970  1.0
  C  C144  1  0.087970  0.314770  0.962570  1.0
  C  C145  1  0.050890  0.870290  0.651590  1.0
  C  C146  1  0.651590  0.050890  0.870290  1.0
  C  C147  1  0.870290  0.651590  0.050890  1.0
  C  C148  1  0.949110  0.129710  0.348410  1.0
  C  C149  1  0.348410  0.949110  0.129710  1.0
  C  C150  1  0.129710  0.348410  0.949110  1.0
  C  C151  1  0.039700  0.814400  0.678200  1.0
  C  C152  1  0.678200  0.039700  0.814400  1.0
  C  C153  1  0.814400  0.678200  0.039700  1.0
  C  C154  1  0.960300  0.185600  0.321800  1.0
  C  C155  1  0.321800  0.960300  0.185600  1.0
  C  C156  1  0.185600  0.321800  0.960300  1.0
  C  C157  1  0.015060  0.800360  0.738360  1.0
  C  C158  1  0.738360  0.015060  0.800360  1.0
  C  C159  1  0.800360  0.738360  0.015060  1.0
  C  C160  1  0.984940  0.199640  0.261640  1.0
  C  C161  1  0.261640  0.984940  0.199640  1.0
  C  C162  1  0.199640  0.261640  0.984940  1.0
  C  C163  1  0.001500  0.842300  0.771900  1.0
  C  C164  1  0.771900  0.001500  0.842300  1.0
  C  C165  1  0.842300  0.771900  0.001500  1.0
  C  C166  1  0.998500  0.157700  0.228100  1.0
  C  C167  1  0.228100  0.998500  0.157700  1.0
  C  C168  1  0.157700  0.228100  0.998500  1.0
  C  C169  1  0.305140  0.996240  0.471340  1.0
  C  C170  1  0.471340  0.305140  0.996240  1.0
  C  C171  1  0.996240  0.471340  0.305140  1.0
  C  C172  1  0.694860  0.003760  0.528660  1.0
  C  C173  1  0.528660  0.694860  0.003760  1.0
  C  C174  1  0.003760  0.528660  0.694860  1.0
  C  C175  1  0.326500  0.987600  0.414100  1.0
  C  C176  1  0.414100  0.326500  0.987600  1.0
  C  C177  1  0.987600  0.414100  0.326500  1.0
  C  C178  1  0.673500  0.012400  0.585900  1.0
  C  C179  1  0.585900  0.673500  0.012400  1.0
  C  C180  1  0.012400  0.585900  0.673500  1.0
  C  C181  1  0.287500  0.997600  0.378300  1.0
  C  C182  1  0.378300  0.287500  0.997600  1.0
  C  C183  1  0.997600  0.378300  0.287500  1.0
  C  C184  1  0.712500  0.002400  0.621700  1.0
  C  C185  1  0.621700  0.712500  0.002400  1.0
  C  C186  1  0.002400  0.621700  0.712500  1.0
  C  C187  1  0.227130  0.016030  0.399630  1.0
  C  C188  1  0.399630  0.227130  0.016030  1.0
  C  C189  1  0.016030  0.399630  0.227130  1.0
  C  C190  1  0.772870  0.983970  0.600370  1.0
  C  C191  1  0.600370  0.772870  0.983970  1.0
  C  C192  1  0.983970  0.600370  0.772870  1.0
  C  C193  1  0.205900  0.024500  0.457000  1.0
  C  C194  1  0.457000  0.205900  0.024500  1.0
  C  C195  1  0.024500  0.457000  0.205900  1.0
  C  C196  1  0.794100  0.975500  0.543000  1.0
  C  C197  1  0.543000  0.794100  0.975500  1.0
  C  C198  1  0.975500  0.543000  0.794100  1.0
  C  C199  1  0.338800  0.985300  0.507600  1.0
  C  C200  1  0.507600  0.338800  0.985300  1.0
  C  C201  1  0.985300  0.507600  0.338800  1.0
  C  C202  1  0.661200  0.014700  0.492400  1.0
  C  C203  1  0.492400  0.661200  0.014700  1.0
  C  C204  1  0.014700  0.492400  0.661200  1.0
  C  C205  1  0.401000  0.970700  0.501400  1.0
  C  C206  1  0.501400  0.401000  0.970700  1.0
  C  C207  1  0.970700  0.501400  0.401000  1.0
  C  C208  1  0.599000  0.029300  0.498600  1.0
  C  C209  1  0.498600  0.599000  0.029300  1.0
  C  C210  1  0.029300  0.498600  0.599000  1.0
  C  C211  1  0.412600  0.967000  0.556500  1.0
  C  C212  1  0.556500  0.412600  0.967000  1.0
  C  C213  1  0.967000  0.556500  0.412600  1.0
  C  C214  1  0.587400  0.033000  0.443500  1.0
  C  C215  1  0.443500  0.587400  0.033000  1.0
  C  C216  1  0.033000  0.443500  0.587400  1.0
  C  C217  1  0.344700  0.981600  0.656600  1.0
  C  C218  1  0.656600  0.344700  0.981600  1.0
  C  C219  1  0.981600  0.656600  0.344700  1.0
  C  C220  1  0.655300  0.018400  0.343400  1.0
  C  C221  1  0.343400  0.655300  0.018400  1.0
  C  C222  1  0.018400  0.343400  0.655300  1.0
  C  C223  1  0.326260  0.805560  0.090360  1.0
  C  C224  1  0.090360  0.326260  0.805560  1.0
  C  C225  1  0.805560  0.090360  0.326260  1.0
  C  C226  1  0.673740  0.194440  0.909640  1.0
  C  C227  1  0.909640  0.673740  0.194440  1.0
  C  C228  1  0.194440  0.909640  0.673740  1.0
  C  C229  1  0.302000  0.813400  0.147700  1.0
  C  C230  1  0.147700  0.302000  0.813400  1.0
  C  C231  1  0.813400  0.147700  0.302000  1.0
  C  C232  1  0.698000  0.186600  0.852300  1.0
  C  C233  1  0.852300  0.698000  0.186600  1.0
  C  C234  1  0.186600  0.852300  0.698000  1.0
  C  C235  1  0.338500  0.801600  0.186600  1.0
  C  C236  1  0.186600  0.338500  0.801600  1.0
  C  C237  1  0.801600  0.186600  0.338500  1.0
  C  C238  1  0.661500  0.198400  0.813400  1.0
  C  C239  1  0.813400  0.661500  0.198400  1.0
  C  C240  1  0.198400  0.813400  0.661500  1.0
  C  C241  1  0.399170  0.781770  0.168170  1.0
  C  C242  1  0.168170  0.399170  0.781770  1.0
  C  C243  1  0.781770  0.168170  0.399170  1.0
  C  C244  1  0.600830  0.218230  0.831830  1.0
  C  C245  1  0.831830  0.600830  0.218230  1.0
  C  C246  1  0.218230  0.831830  0.600830  1.0
  C  C247  1  0.423300  0.773900  0.110900  1.0
  C  C248  1  0.110900  0.423300  0.773900  1.0
  C  C249  1  0.773900  0.110900  0.423300  1.0
  C  C250  1  0.576700  0.226100  0.889100  1.0
  C  C251  1  0.889100  0.576700  0.226100  1.0
  C  C252  1  0.226100  0.889100  0.576700  1.0
  C  C253  1  0.294190  0.811190  0.051190  1.0
  C  C254  1  0.051190  0.294190  0.811190  1.0
  C  C255  1  0.811190  0.051190  0.294190  1.0
  C  C256  1  0.705810  0.188810  0.948810  1.0
  C  C257  1  0.948810  0.705810  0.188810  1.0
  C  C258  1  0.188810  0.948810  0.705810  1.0
  C  C259  1  0.232300  0.826300  0.055100  1.0
  C  C260  1  0.055100  0.232300  0.826300  1.0
  C  C261  1  0.826300  0.055100  0.232300  1.0
  C  C262  1  0.767700  0.173700  0.944900  1.0
  C  C263  1  0.944900  0.767700  0.173700  1.0
  C  C264  1  0.173700  0.944900  0.767700  1.0
  C  C265  1  0.222710  0.825410  0.000510  1.0
  C  C266  1  0.000510  0.222710  0.825410  1.0
  C  C267  1  0.825410  0.000510  0.222710  1.0
  C  C268  1  0.777290  0.174590  0.999490  1.0
  C  C269  1  0.999490  0.777290  0.174590  1.0
  C  C270  1  0.174590  0.999490  0.777290  1.0
  C  C271  1  0.293300  0.808000  0.905000  1.0
  C  C272  1  0.905000  0.293300  0.808000  1.0
  C  C273  1  0.808000  0.905000  0.293300  1.0
  C  C274  1  0.706700  0.192000  0.095000  1.0
  C  C275  1  0.095000  0.706700  0.192000  1.0
  C  C276  1  0.192000  0.095000  0.706700  1.0
  C  C277  1  0.335910  0.922310  0.699510  1.0
  C  C278  1  0.699510  0.335910  0.922310  1.0
  C  C279  1  0.922310  0.699510  0.335910  1.0
  C  C280  1  0.664090  0.077690  0.300490  1.0
  C  C281  1  0.300490  0.664090  0.077690  1.0
  C  C282  1  0.077690  0.300490  0.664090  1.0
  C  C283  1  0.341620  0.872920  0.678420  1.0
  C  C284  1  0.678420  0.341620  0.872920  1.0
  C  C285  1  0.872920  0.678420  0.341620  1.0
  C  C286  1  0.658380  0.127080  0.321580  1.0
  C  C287  1  0.321580  0.658380  0.127080  1.0
  C  C288  1  0.127080  0.321580  0.658380  1.0
  C  C289  1  0.333060  0.820160  0.717660  1.0
  C  C290  1  0.717660  0.333060  0.820160  1.0
  C  C291  1  0.820160  0.717660  0.333060  1.0
  C  C292  1  0.666940  0.179840  0.282340  1.0
  C  C293  1  0.282340  0.666940  0.179840  1.0
  C  C294  1  0.179840  0.282340  0.666940  1.0
  C  C295  1  0.318910  0.816610  0.778110  1.0
  C  C296  1  0.778110  0.318910  0.816610  1.0
  C  C297  1  0.816610  0.778110  0.318910  1.0
  C  C298  1  0.681090  0.183390  0.221890  1.0
  C  C299  1  0.221890  0.681090  0.183390  1.0
  C  C300  1  0.183390  0.221890  0.681090  1.0
  C  C301  1  0.313200  0.865900  0.799300  1.0
  C  C302  1  0.799300  0.313200  0.865900  1.0
  C  C303  1  0.865900  0.799300  0.313200  1.0
  C  C304  1  0.686800  0.134100  0.200700  1.0
  C  C305  1  0.200700  0.686800  0.134100  1.0
  C  C306  1  0.134100  0.200700  0.686800  1.0
  C  C307  1  0.321760  0.918660  0.760060  1.0
  C  C308  1  0.760060  0.321760  0.918660  1.0
  C  C309  1  0.918660  0.760060  0.321760  1.0
  C  C310  1  0.678240  0.081340  0.239940  1.0
  C  C311  1  0.239940  0.678240  0.081340  1.0
  C  C312  1  0.081340  0.239940  0.678240  1.0
  C  C313  1  0.316050  0.968050  0.781150  1.0
  C  C314  1  0.781150  0.316050  0.968050  1.0
  C  C315  1  0.968050  0.781150  0.316050  1.0
  C  C316  1  0.683950  0.031950  0.218850  1.0
  C  C317  1  0.218850  0.683950  0.031950  1.0
  C  C318  1  0.031950  0.218850  0.683950  1.0
  C  C319  1  0.301900  0.964400  0.841700  1.0
  C  C320  1  0.841700  0.301900  0.964400  1.0
  C  C321  1  0.964400  0.841700  0.301900  1.0
  C  C322  1  0.698100  0.035600  0.158300  1.0
  C  C323  1  0.158300  0.698100  0.035600  1.0
  C  C324  1  0.035600  0.158300  0.698100  1.0
  C  C325  1  0.293350  0.911650  0.880950  1.0
  C  C326  1  0.880950  0.293350  0.911650  1.0
  C  C327  1  0.911650  0.880950  0.293350  1.0
  C  C328  1  0.706650  0.088350  0.119050  1.0
  C  C329  1  0.119050  0.706650  0.088350  1.0
  C  C330  1  0.088350  0.119050  0.706650  1.0
  C  C331  1  0.299050  0.862350  0.859750  1.0
  C  C332  1  0.859750  0.299050  0.862350  1.0
  C  C333  1  0.862350  0.859750  0.299050  1.0
  C  C334  1  0.700950  0.137650  0.140250  1.0
  C  C335  1  0.140250  0.700950  0.137650  1.0
  C  C336  1  0.137650  0.140250  0.700950  1.0
  Cl  Cl337  1  0.490160  0.010660  0.326260  1
  Cl  Cl338  1  0.326260  0.490160  0.010660  1
  Cl  Cl339  1  0.010660  0.326260  0.490160  1
  Cl  Cl340  1  0.509840  0.989340  0.673740  1
  Cl  Cl341  1  0.673740  0.509840  0.989340  1
  Cl  Cl342  1  0.989340  0.673740  0.509840  1
  Cl  Cl343  1  0.894330  0.087430  0.539530  1
  Cl  Cl344  1  0.539530  0.894330  0.087430  1
  Cl  Cl345  1  0.087430  0.539530  0.894330  1
  Cl  Cl346  1  0.105670  0.912570  0.460470  1
  Cl  Cl347  1  0.460470  0.105670  0.912570  1
  Cl  Cl348  1  0.912570  0.460470  0.105670  1
  Cl  Cl349  1  0.218610  0.130310  0.864410  1
  Cl  Cl350  1  0.864410  0.218610  0.130310  1
  Cl  Cl351  1  0.130310  0.864410  0.218610  1
  Cl  Cl352  1  0.781390  0.869690  0.135590  1
  Cl  Cl353  1  0.135590  0.781390  0.869690  1
  Cl  Cl354  1  0.869690  0.135590  0.781390  1
  Co  Co355  1  0.823230  0.823230  0.823230  0.3333333333333333
  Os  Os356  1  0.823230  0.823230  0.823230  0.6666666666666666
  Co  Co357  1  0.176770  0.176770  0.176770  0.3333333333333333
  Os  Os358  1  0.176770  0.176770  0.176770  0.6666666666666666
  Co  Co359  1  0.219460  0.018770  0.583930  0.8571428571428571
  Os  Os360  1  0.219460  0.018770  0.583930  0.14285714285714285
  Co  Co361  1  0.583930  0.219460  0.018770  0.8571428571428571
  Os  Os362  1  0.583930  0.219460  0.018770  0.14285714285714285
  Co  Co363  1  0.018770  0.583930  0.219460  0.8571428571428571
  Os  Os364  1  0.018770  0.583930  0.219460  0.14285714285714285
  Co  Co365  1  0.780540  0.981230  0.416070  0.8571428571428571
  Os  Os366  1  0.780540  0.981230  0.416070  0.14285714285714285
  Co  Co367  1  0.416070  0.780540  0.981230  0.8571428571428571
  Os  Os368  1  0.416070  0.780540  0.981230  0.14285714285714285
  Co  Co369  1  0.981230  0.416070  0.780540  0.8571428571428571
  Os  Os370  1  0.981230  0.416070  0.780540  0.14285714285714285
  H  H371  1  0.124700  0.234300  0.535100  1.0
  H  H372  1  0.535100  0.124700  0.234300  1.0
  H  H373  1  0.234300  0.535100  0.124700  1.0
  H  H374  1  0.875300  0.765700  0.464900  1.0
  H  H375  1  0.464900  0.875300  0.765700  1.0
  H  H376  1  0.765700  0.464900  0.875300  1.0
  H  H377  1  0.206600  0.272300  0.524100  1.0
  H  H378  1  0.524100  0.206600  0.272300  1.0
  H  H379  1  0.272300  0.524100  0.206600  1.0
  H  H380  1  0.793400  0.727700  0.475900  1.0
  H  H381  1  0.475900  0.793400  0.727700  1.0
  H  H382  1  0.727700  0.475900  0.793400  1.0
  H  H383  1  0.297000  0.208100  0.536900  1.0
  H  H384  1  0.536900  0.297000  0.208100  1.0
  H  H385  1  0.208100  0.536900  0.297000  1.0
  H  H386  1  0.703000  0.791900  0.463100  1.0
  H  H387  1  0.463100  0.703000  0.791900  1.0
  H  H388  1  0.791900  0.463100  0.703000  1.0
  H  H389  1  0.305300  0.105800  0.560700  1.0
  H  H390  1  0.560700  0.305300  0.105800  1.0
  H  H391  1  0.105800  0.560700  0.305300  1.0
  H  H392  1  0.694700  0.894200  0.439300  1.0
  H  H393  1  0.439300  0.694700  0.894200  1.0
  H  H394  1  0.894200  0.439300  0.694700  1.0
  H  H395  1  0.046600  0.186700  0.534500  1.0
  H  H396  1  0.534500  0.046600  0.186700  1.0
  H  H397  1  0.186700  0.534500  0.046600  1.0
  H  H398  1  0.953400  0.813300  0.465500  1.0
  H  H399  1  0.465500  0.953400  0.813300  1.0
  H  H400  1  0.813300  0.465500  0.953400  1.0
  H  H401  1  0.999600  0.100400  0.552900  1.0
  H  H402  1  0.552900  0.999600  0.100400  1.0
  H  H403  1  0.100400  0.552900  0.999600  1.0
  H  H404  1  0.000400  0.899600  0.447100  1.0
  H  H405  1  0.447100  0.000400  0.899600  1.0
  H  H406  1  0.899600  0.447100  0.000400  1.0
  H  H407  1  0.044800  0.977300  0.572600  1.0
  H  H408  1  0.572600  0.044800  0.977300  1.0
  H  H409  1  0.977300  0.572600  0.044800  1.0
  H  H410  1  0.955200  0.022700  0.427400  1.0
  H  H411  1  0.427400  0.955200  0.022700  1.0
  H  H412  1  0.022700  0.427400  0.955200  1.0
  H  H413  1  0.110900  0.955000  0.582500  1.0
  H  H414  1  0.582500  0.110900  0.955000  1.0
  H  H415  1  0.955000  0.582500  0.110900  1.0
  H  H416  1  0.889100  0.045000  0.417500  1.0
  H  H417  1  0.417500  0.889100  0.045000  1.0
  H  H418  1  0.045000  0.417500  0.889100  1.0
  H  H419  1  0.865500  0.607000  0.923600  1.0
  H  H420  1  0.923600  0.865500  0.607000  1.0
  H  H421  1  0.607000  0.923600  0.865500  1.0
  H  H422  1  0.134500  0.393000  0.076400  1.0
  H  H423  1  0.076400  0.134500  0.393000  1.0
  H  H424  1  0.393000  0.076400  0.134500  1.0
  H  H425  1  0.773500  0.588400  0.932800  1.0
  H  H426  1  0.932800  0.773500  0.588400  1.0
  H  H427  1  0.588400  0.932800  0.773500  1.0
  H  H428  1  0.226500  0.411600  0.067200  1.0
  H  H429  1  0.067200  0.226500  0.411600  1.0
  H  H430  1  0.411600  0.067200  0.226500  1.0
  H  H431  1  0.698400  0.664700  0.898600  1.0
  H  H432  1  0.898600  0.698400  0.664700  1.0
  H  H433  1  0.664700  0.898600  0.698400  1.0
  H  H434  1  0.301600  0.335300  0.101400  1.0
  H  H435  1  0.101400  0.301600  0.335300  1.0
  H  H436  1  0.335300  0.101400  0.301600  1.0
  H  H437  1  0.715400  0.759500  0.855200  1.0
  H  H438  1  0.855200  0.715400  0.759500  1.0
  H  H439  1  0.759500  0.855200  0.715400  1.0
  H  H440  1  0.284600  0.240500  0.144800  1.0
  H  H441  1  0.144800  0.284600  0.240500  1.0
  H  H442  1  0.240500  0.144800  0.284600  1.0
  H  H443  1  0.963700  0.636800  0.908700  1.0
  H  H444  1  0.908700  0.963700  0.636800  1.0
  H  H445  1  0.636800  0.908700  0.963700  1.0
  H  H446  1  0.036300  0.363200  0.091300  1.0
  H  H447  1  0.091300  0.036300  0.363200  1.0
  H  H448  1  0.363200  0.091300  0.036300  1.0
  H  H449  1  0.026800  0.711300  0.885700  1.0
  H  H450  1  0.885700  0.026800  0.711300  1.0
  H  H451  1  0.711300  0.885700  0.026800  1.0
  H  H452  1  0.973200  0.288700  0.114300  1.0
  H  H453  1  0.114300  0.973200  0.288700  1.0
  H  H454  1  0.288700  0.114300  0.973200  1.0
  H  H455  1  0.003700  0.826800  0.859300  1.0
  H  H456  1  0.859300  0.003700  0.826800  1.0
  H  H457  1  0.826800  0.859300  0.003700  1.0
  H  H458  1  0.996300  0.173200  0.140700  1.0
  H  H459  1  0.140700  0.996300  0.173200  1.0
  H  H460  1  0.173200  0.140700  0.996300  1.0
  H  H461  1  0.940400  0.862000  0.846300  1.0
  H  H462  1  0.846300  0.940400  0.862000  1.0
  H  H463  1  0.862000  0.846300  0.940400  1.0
  H  H464  1  0.059600  0.138000  0.153700  1.0
  H  H465  1  0.153700  0.059600  0.138000  1.0
  H  H466  1  0.138000  0.153700  0.059600  1.0
  H  H467  1  0.042900  0.047800  0.674100  1.0
  H  H468  1  0.674100  0.042900  0.047800  1.0
  H  H469  1  0.047800  0.674100  0.042900  1.0
  H  H470  1  0.957100  0.952200  0.325900  1.0
  H  H471  1  0.325900  0.957100  0.952200  1.0
  H  H472  1  0.952200  0.325900  0.957100  1.0
  H  H473  1  0.001300  0.024200  0.775300  1.0
  H  H474  1  0.775300  0.001300  0.024200  1.0
  H  H475  1  0.024200  0.775300  0.001300  1.0
  H  H476  1  0.998700  0.975800  0.224700  1.0
  H  H477  1  0.224700  0.998700  0.975800  1.0
  H  H478  1  0.975800  0.224700  0.998700  1.0
  H  H479  1  0.982400  0.930300  0.820000  1.0
  H  H480  1  0.820000  0.982400  0.930300  1.0
  H  H481  1  0.930300  0.820000  0.982400  1.0
  H  H482  1  0.017600  0.069700  0.180000  1.0
  H  H483  1  0.180000  0.017600  0.069700  1.0
  H  H484  1  0.069700  0.180000  0.017600  1.0
  H  H485  1  0.067800  0.879800  0.610500  1.0
  H  H486  1  0.610500  0.067800  0.879800  1.0
  H  H487  1  0.879800  0.610500  0.067800  1.0
  H  H488  1  0.932200  0.120200  0.389500  1.0
  H  H489  1  0.389500  0.932200  0.120200  1.0
  H  H490  1  0.120200  0.389500  0.932200  1.0
  H  H491  1  0.048900  0.785800  0.655300  1.0
  H  H492  1  0.655300  0.048900  0.785800  1.0
  H  H493  1  0.785800  0.655300  0.048900  1.0
  H  H494  1  0.951100  0.214200  0.344700  1.0
  H  H495  1  0.344700  0.951100  0.214200  1.0
  H  H496  1  0.214200  0.344700  0.951100  1.0
  H  H497  1  0.007300  0.762200  0.756500  1.0
  H  H498  1  0.756500  0.007300  0.762200  1.0
  H  H499  1  0.762200  0.756500  0.007300  1.0
  H  H500  1  0.992700  0.237800  0.243500  1.0
  H  H501  1  0.243500  0.992700  0.237800  1.0
  H  H502  1  0.237800  0.243500  0.992700  1.0
  H  H503  1  0.367700  0.975100  0.399500  1.0
  H  H504  1  0.399500  0.367700  0.975100  1.0
  H  H505  1  0.975100  0.399500  0.367700  1.0
  H  H506  1  0.632300  0.024900  0.600500  1.0
  H  H507  1  0.600500  0.632300  0.024900  1.0
  H  H508  1  0.024900  0.600500  0.632300  1.0
  H  H509  1  0.302100  0.991600  0.339100  1.0
  H  H510  1  0.339100  0.302100  0.991600  1.0
  H  H511  1  0.991600  0.339100  0.302100  1.0
  H  H512  1  0.697900  0.008400  0.660900  1.0
  H  H513  1  0.660900  0.697900  0.008400  1.0
  H  H514  1  0.008400  0.660900  0.697900  1.0
  H  H515  1  0.200500  0.022700  0.375100  1.0
  H  H516  1  0.375100  0.200500  0.022700  1.0
  H  H517  1  0.022700  0.375100  0.200500  1.0
  H  H518  1  0.799500  0.977300  0.624900  1.0
  H  H519  1  0.624900  0.799500  0.977300  1.0
  H  H520  1  0.977300  0.624900  0.799500  1.0
  H  H521  1  0.164600  0.037100  0.471600  1.0
  H  H522  1  0.471600  0.164600  0.037100  1.0
  H  H523  1  0.037100  0.471600  0.164600  1.0
  H  H524  1  0.835400  0.962900  0.528400  1.0
  H  H525  1  0.528400  0.835400  0.962900  1.0
  H  H526  1  0.962900  0.528400  0.835400  1.0
  H  H527  1  0.429800  0.964200  0.466500  1.0
  H  H528  1  0.466500  0.429800  0.964200  1.0
  H  H529  1  0.964200  0.466500  0.429800  1.0
  H  H530  1  0.570200  0.035800  0.533500  1.0
  H  H531  1  0.533500  0.570200  0.035800  1.0
  H  H532  1  0.035800  0.533500  0.570200  1.0
  H  H533  1  0.450600  0.958000  0.565000  1.0
  H  H534  1  0.565000  0.450600  0.958000  1.0
  H  H535  1  0.958000  0.565000  0.450600  1.0
  H  H536  1  0.549400  0.042000  0.435000  1.0
  H  H537  1  0.435000  0.549400  0.042000  1.0
  H  H538  1  0.042000  0.435000  0.549400  1.0
  H  H539  1  0.308300  0.012500  0.664800  1.0
  H  H540  1  0.664800  0.308300  0.012500  1.0
  H  H541  1  0.012500  0.664800  0.308300  1.0
  H  H542  1  0.691700  0.987500  0.335200  1.0
  H  H543  1  0.335200  0.691700  0.987500  1.0
  H  H544  1  0.987500  0.335200  0.691700  1.0
  H  H545  1  0.377300  0.993300  0.664200  1.0
  H  H546  1  0.664200  0.377300  0.993300  1.0
  H  H547  1  0.993300  0.664200  0.377300  1.0
  H  H548  1  0.622700  0.006700  0.335800  1.0
  H  H549  1  0.335800  0.622700  0.006700  1.0
  H  H550  1  0.006700  0.335800  0.622700  1.0
  H  H551  1  0.260600  0.827000  0.160200  1.0
  H  H552  1  0.160200  0.260600  0.827000  1.0
  H  H553  1  0.827000  0.160200  0.260600  1.0
  H  H554  1  0.739400  0.173000  0.839800  1.0
  H  H555  1  0.839800  0.739400  0.173000  1.0
  H  H556  1  0.173000  0.839800  0.739400  1.0
  H  H557  1  0.322000  0.807000  0.225600  1.0
  H  H558  1  0.225600  0.322000  0.807000  1.0
  H  H559  1  0.807000  0.225600  0.322000  1.0
  H  H560  1  0.678000  0.193000  0.774400  1.0
  H  H561  1  0.774400  0.678000  0.193000  1.0
  H  H562  1  0.193000  0.774400  0.678000  1.0
  H  H563  1  0.424000  0.773700  0.194700  1.0
  H  H564  1  0.194700  0.424000  0.773700  1.0
  H  H565  1  0.773700  0.194700  0.424000  1.0
  H  H566  1  0.576000  0.226300  0.805300  1.0
  H  H567  1  0.805300  0.576000  0.226300  1.0
  H  H568  1  0.226300  0.805300  0.576000  1.0
  H  H569  1  0.464700  0.760400  0.098300  1.0
  H  H570  1  0.098300  0.464700  0.760400  1.0
  H  H571  1  0.760400  0.098300  0.464700  1.0
  H  H572  1  0.535300  0.239600  0.901700  1.0
  H  H573  1  0.901700  0.535300  0.239600  1.0
  H  H574  1  0.239600  0.901700  0.535300  1.0
  H  H575  1  0.202600  0.835400  0.088600  1.0
  H  H576  1  0.088600  0.202600  0.835400  1.0
  H  H577  1  0.835400  0.088600  0.202600  1.0
  H  H578  1  0.797400  0.164600  0.911400  1.0
  H  H579  1  0.911400  0.797400  0.164600  1.0
  H  H580  1  0.164600  0.911400  0.797400  1.0
  H  H581  1  0.185400  0.833900  0.990900  1.0
  H  H582  1  0.990900  0.185400  0.833900  1.0
  H  H583  1  0.833900  0.990900  0.185400  1.0
  H  H584  1  0.814600  0.166100  0.009100  1.0
  H  H585  1  0.009100  0.814600  0.166100  1.0
  H  H586  1  0.166100  0.009100  0.814600  1.0
  H  H587  1  0.331500  0.779100  0.898400  1.0
  H  H588  1  0.898400  0.331500  0.779100  1.0
  H  H589  1  0.779100  0.898400  0.331500  1.0
  H  H590  1  0.668500  0.220900  0.101600  1.0
  H  H591  1  0.101600  0.668500  0.220900  1.0
  H  H592  1  0.220900  0.101600  0.668500  1.0
  H  H593  1  0.263400  0.792000  0.898100  1.0
  H  H594  1  0.898100  0.263400  0.792000  1.0
  H  H595  1  0.792000  0.898100  0.263400  1.0
  H  H596  1  0.736600  0.208000  0.101900  1.0
  H  H597  1  0.101900  0.736600  0.208000  1.0
  H  H598  1  0.208000  0.101900  0.736600  1.0
  H  H599  1  0.351300  0.875400  0.637100  1.0
  H  H600  1  0.637100  0.351300  0.875400  1.0
  H  H601  1  0.875400  0.637100  0.351300  1.0
  H  H602  1  0.648700  0.124600  0.362900  1.0
  H  H603  1  0.362900  0.648700  0.124600  1.0
  H  H604  1  0.124600  0.362900  0.648700  1.0
  H  H605  1  0.337000  0.786400  0.703200  1.0
  H  H606  1  0.703200  0.337000  0.786400  1.0
  H  H607  1  0.786400  0.703200  0.337000  1.0
  H  H608  1  0.663000  0.213600  0.296800  1.0
  H  H609  1  0.296800  0.663000  0.213600  1.0
  H  H610  1  0.213600  0.296800  0.663000  1.0
  H  H611  1  0.313100  0.780500  0.805000  1.0
  H  H612  1  0.805000  0.313100  0.780500  1.0
  H  H613  1  0.780500  0.805000  0.313100  1.0
  H  H614  1  0.686900  0.219500  0.195000  1.0
  H  H615  1  0.195000  0.686900  0.219500  1.0
  H  H616  1  0.219500  0.195000  0.686900  1.0
  H  H617  1  0.321900  0.004100  0.754400  1.0
  H  H618  1  0.754400  0.321900  0.004100  1.0
  H  H619  1  0.004100  0.754400  0.321900  1.0
  H  H620  1  0.678100  0.995900  0.245600  1.0
  H  H621  1  0.245600  0.678100  0.995900  1.0
  H  H622  1  0.995900  0.245600  0.678100  1.0
  H  H623  1  0.298000  0.998200  0.856200  1.0
  H  H624  1  0.856200  0.298000  0.998200  1.0
  H  H625  1  0.998200  0.856200  0.298000  1.0
  H  H626  1  0.702000  0.001800  0.143800  1.0
  H  H627  1  0.143800  0.702000  0.001800  1.0
  H  H628  1  0.001800  0.143800  0.702000  1.0
  H  H629  1  0.283700  0.909200  0.922300  1.0
  H  H630  1  0.922300  0.283700  0.909200  1.0
  H  H631  1  0.909200  0.922300  0.283700  1.0
  H  H632  1  0.716300  0.090800  0.077700  1.0
  H  H633  1  0.077700  0.716300  0.090800  1.0
  H  H634  1  0.090800  0.077700  0.716300  1.0
  N  N635  1  0.220050  0.109350  0.562150  1.0
  N  N636  1  0.562150  0.220050  0.109350  1.0
  N  N637  1  0.109350  0.562150  0.220050  1.0
  N  N638  1  0.779950  0.890650  0.437850  1.0
  N  N639  1  0.437850  0.779950  0.890650  1.0
  N  N640  1  0.890650  0.437850  0.779950  1.0
  N  N641  1  0.079740  0.045040  0.573840  1.0
  N  N642  1  0.573840  0.079740  0.045040  1.0
  N  N643  1  0.045040  0.573840  0.079740  1.0
  N  N644  1  0.920260  0.954960  0.426160  1.0
  N  N645  1  0.426160  0.920260  0.954960  1.0
  N  N646  1  0.954960  0.426160  0.920260  1.0
  N  N647  1  0.131700  0.060900  0.574000  1.0
  N  N648  1  0.574000  0.131700  0.060900  1.0
  N  N649  1  0.060900  0.574000  0.131700  1.0
  N  N650  1  0.868300  0.939100  0.426000  1.0
  N  N651  1  0.426000  0.868300  0.939100  1.0
  N  N652  1  0.939100  0.426000  0.868300  1.0
  N  N653  1  0.800450  0.739650  0.863650  1.0
  N  N654  1  0.863650  0.800450  0.739650  1.0
  N  N655  1  0.739650  0.863650  0.800450  1.0
  N  N656  1  0.199550  0.260350  0.136350  1.0
  N  N657  1  0.136350  0.199550  0.260350  1.0
  N  N658  1  0.260350  0.136350  0.199550  1.0
  N  N659  1  0.954310  0.776210  0.857910  1.0
  N  N660  1  0.857910  0.954310  0.776210  1.0
  N  N661  1  0.776210  0.857910  0.954310  1.0
  N  N662  1  0.045690  0.223790  0.142090  1.0
  N  N663  1  0.142090  0.045690  0.223790  1.0
  N  N664  1  0.223790  0.142090  0.045690  1.0
  N  N665  1  0.898410  0.769410  0.857010  1.0
  N  N666  1  0.857010  0.898410  0.769410  1.0
  N  N667  1  0.769410  0.857010  0.898410  1.0
  N  N668  1  0.101590  0.230590  0.142990  1.0
  N  N669  1  0.142990  0.101590  0.230590  1.0
  N  N670  1  0.230590  0.142990  0.101590  1.0
  N  N671  1  0.244820  0.014720  0.492720  1.0
  N  N672  1  0.492720  0.244820  0.014720  1.0
  N  N673  1  0.014720  0.492720  0.244820  1.0
  N  N674  1  0.755180  0.985280  0.507280  1.0
  N  N675  1  0.507280  0.755180  0.985280  1.0
  N  N676  1  0.985280  0.507280  0.755180  1.0
  N  N677  1  0.357630  0.979630  0.596830  1.0
  N  N678  1  0.596830  0.357630  0.979630  1.0
  N  N679  1  0.979630  0.596830  0.357630  1.0
  N  N680  1  0.642370  0.020370  0.403170  1.0
  N  N681  1  0.403170  0.642370  0.020370  1.0
  N  N682  1  0.020370  0.403170  0.642370  1.0
  N  N683  1  0.312000  0.990900  0.566600  1.0
  N  N684  1  0.566600  0.312000  0.990900  1.0
  N  N685  1  0.990900  0.566600  0.312000  1.0
  N  N686  1  0.688000  0.009100  0.433400  1.0
  N  N687  1  0.433400  0.688000  0.009100  1.0
  N  N688  1  0.009100  0.433400  0.688000  1.0
  N  N689  1  0.386840  0.785740  0.072040  1.0
  N  N690  1  0.072040  0.386840  0.785740  1.0
  N  N691  1  0.785740  0.072040  0.386840  1.0
  N  N692  1  0.613160  0.214260  0.927960  1.0
  N  N693  1  0.927960  0.613160  0.214260  1.0
  N  N694  1  0.214260  0.927960  0.613160  1.0
  N  N695  1  0.278610  0.809810  0.962610  1.0
  N  N696  1  0.962610  0.278610  0.809810  1.0
  N  N697  1  0.809810  0.962610  0.278610  1.0
  N  N698  1  0.721390  0.190190  0.037390  1.0
  N  N699  1  0.037390  0.721390  0.190190  1.0
  N  N700  1  0.190190  0.037390  0.721390  1.0
  N  N701  1  0.322750  0.801050  0.993950  1.0
  N  N702  1  0.993950  0.322750  0.801050  1.0
  N  N703  1  0.801050  0.993950  0.322750  1.0
  N  N704  1  0.677250  0.198950  0.006050  1.0
  N  N705  1  0.006050  0.677250  0.198950  1.0
  N  N706  1  0.198950  0.006050  0.677250  1.0
  O  O707  1  0.498800  0.000500  0.383400  1
  O  O708  1  0.383400  0.498800  0.000500  1
  O  O709  1  0.000500  0.383400  0.498800  1
  O  O710  1  0.501200  0.999500  0.616600  1
  O  O711  1  0.616600  0.501200  0.999500  1
  O  O712  1  0.999500  0.616600  0.501200  1
  O  O713  1  0.545800  0.005700  0.285300  1
  O  O714  1  0.285300  0.545800  0.005700  1
  O  O715  1  0.005700  0.285300  0.545800  1
  O  O716  1  0.454200  0.994300  0.714700  1
  O  O717  1  0.714700  0.454200  0.994300  1
  O  O718  1  0.994300  0.714700  0.454200  1
  O  O719  1  0.461600  0.969600  0.323100  1
  O  O720  1  0.323100  0.461600  0.969600  1
  O  O721  1  0.969600  0.323100  0.461600  1
  O  O722  1  0.538400  0.030400  0.676900  1
  O  O723  1  0.676900  0.538400  0.030400  1
  O  O724  1  0.030400  0.676900  0.538400  1
  O  O725  1  0.456100  0.068600  0.311200  1
  O  O726  1  0.311200  0.456100  0.068600  1
  O  O727  1  0.068600  0.311200  0.456100  1
  O  O728  1  0.543900  0.931400  0.688800  1
  O  O729  1  0.688800  0.543900  0.931400  1
  O  O730  1  0.931400  0.688800  0.543900  1
  O  O731  1  0.930800  0.930800  0.930800  1
  O  O732  1  0.069200  0.069200  0.069200  1
  O  O733  1  0.889600  0.090200  0.597500  1
  O  O734  1  0.597500  0.889600  0.090200  1
  O  O735  1  0.090200  0.597500  0.889600  1
  O  O736  1  0.110400  0.909800  0.402500  1
  O  O737  1  0.402500  0.110400  0.909800  1
  O  O738  1  0.909800  0.402500  0.110400  1
  O  O739  1  0.920600  0.028100  0.533500  1
  O  O740  1  0.533500  0.920600  0.028100  1
  O  O741  1  0.028100  0.533500  0.920600  1
  O  O742  1  0.079400  0.971900  0.466500  1
  O  O743  1  0.466500  0.079400  0.971900  1
  O  O744  1  0.971900  0.466500  0.079400  1
  O  O745  1  0.839500  0.104800  0.524700  1
  O  O746  1  0.524700  0.839500  0.104800  1
  O  O747  1  0.104800  0.524700  0.839500  1
  O  O748  1  0.160500  0.895200  0.475300  1
  O  O749  1  0.475300  0.160500  0.895200  1
  O  O750  1  0.895200  0.475300  0.160500  1
  O  O751  1  0.932100  0.123900  0.500000  1
  O  O752  1  0.500000  0.932100  0.123900  1
  O  O753  1  0.123900  0.500000  0.932100  1
  O  O754  1  0.067900  0.876100  0.500000  1
  O  O755  1  0.500000  0.067900  0.876100  1
  O  O756  1  0.876100  0.500000  0.067900  1
  O  O757  1  0.178500  0.094500  0.874600  1
  O  O758  1  0.874600  0.178500  0.094500  1
  O  O759  1  0.094500  0.874600  0.178500  1
  O  O760  1  0.821500  0.905500  0.125400  1
  O  O761  1  0.125400  0.821500  0.905500  1
  O  O762  1  0.905500  0.125400  0.821500  1
  O  O763  1  0.264500  0.098100  0.894200  1
  O  O764  1  0.894200  0.264500  0.098100  1
  O  O765  1  0.098100  0.894200  0.264500  1
  O  O766  1  0.735500  0.901900  0.105800  1
  O  O767  1  0.105800  0.735500  0.901900  1
  O  O768  1  0.901900  0.105800  0.735500  1
  O  O769  1  0.241900  0.148600  0.804800  1
  O  O770  1  0.804800  0.241900  0.148600  1
  O  O771  1  0.148600  0.804800  0.241900  1
  O  O772  1  0.758100  0.851400  0.195200  1
  O  O773  1  0.195200  0.758100  0.851400  1
  O  O774  1  0.851400  0.195200  0.758100  1
  O  O775  1  0.187800  0.180100  0.889200  1
  O  O776  1  0.889200  0.187800  0.180100  1
  O  O777  1  0.180100  0.889200  0.187800  1
  O  O778  1  0.812200  0.819900  0.110800  1
  O  O779  1  0.110800  0.812200  0.819900  1
  O  O780  1  0.819900  0.110800  0.812200  1
