# generated using pymatgen
data_Co5.80952381B12Ru2.19047619H282C342N78O12F48
_symmetry_space_group_name_H-M   'P 1'
_cell_length_a   22.96721169
_cell_length_b   22.96721169
_cell_length_c   22.96721169
_cell_angle_alpha   95.83262960
_cell_angle_beta   95.83262960
_cell_angle_gamma   95.83262960
_symmetry_Int_Tables_number   1
_chemical_formula_structural
Co5.80952381B12Ru2.19047619H282C342N78O12F48
_chemical_formula_sum
'Co5.80952381 B12 Ru2.19047619 H282 C342 N78 O12 F48'
_cell_volume   11912.96763465
_cell_formula_units_Z   1
loop_
 _symmetry_equiv_pos_site_id
 _symmetry_equiv_pos_as_xyz
  1  'x, y, z'
loop_
 _atom_site_type_symbol
 _atom_site_label
 _atom_site_symmetry_multiplicity
 _atom_site_fract_x
 _atom_site_fract_y
 _atom_site_fract_z
 _atom_site_occupancy
  B  B1  1  0.656200  0.018200  0.604000  1
  B  B2  1  0.604000  0.656200  0.018200  1
  B  B3  1  0.018200  0.604000  0.656200  1
  B  B4  1  0.343800  0.981800  0.396000  1
  B  B5  1  0.396000  0.343800  0.981800  1
  B  B6  1  0.981800  0.396000  0.343800  1
  B  B7  1  0.215400  0.388400  0.551600  1
  B  B8  1  0.551600  0.215400  0.388400  1
  B  B9  1  0.388400  0.551600  0.215400  1
  B  B10  1  0.784600  0.611600  0.448400  1
  B  B11  1  0.448400  0.784600  0.611600  1
  B  B12  1  0.611600  0.448400  0.784600  1
  C  C13  1  0.548600  0.387100  0.903500  1
  C  C14  1  0.903500  0.548600  0.387100  1
  C  C15  1  0.387100  0.903500  0.548600  1
  C  C16  1  0.451400  0.612900  0.096500  1
  C  C17  1  0.096500  0.451400  0.612900  1
  C  C18  1  0.612900  0.096500  0.451400  1
  C  C19  1  0.690640  0.500950  0.114230  1.0
  C  C20  1  0.114230  0.690640  0.500950  1.0
  C  C21  1  0.500950  0.114230  0.690640  1.0
  C  C22  1  0.309360  0.499050  0.885770  1.0
  C  C23  1  0.885770  0.309360  0.499050  1.0
  C  C24  1  0.499050  0.885770  0.309360  1.0
  C  C25  1  0.707090  0.558970  0.105130  1.0
  C  C26  1  0.105130  0.707090  0.558970  1.0
  C  C27  1  0.558970  0.105130  0.707090  1.0
  C  C28  1  0.292910  0.441030  0.894870  1.0
  C  C29  1  0.894870  0.292910  0.441030  1.0
  C  C30  1  0.441030  0.894870  0.292910  1.0
  C  C31  1  0.765240  0.583530  0.119650  1.0
  C  C32  1  0.119650  0.765240  0.583530  1.0
  C  C33  1  0.583530  0.119650  0.765240  1.0
  C  C34  1  0.234760  0.416470  0.880350  1.0
  C  C35  1  0.880350  0.234760  0.416470  1.0
  C  C36  1  0.416470  0.880350  0.234760  1.0
  C  C37  1  0.806980  0.550050  0.143250  1.0
  C  C38  1  0.143250  0.806980  0.550050  1.0
  C  C39  1  0.550050  0.143250  0.806980  1.0
  C  C40  1  0.193020  0.449950  0.856750  1.0
  C  C41  1  0.856750  0.193020  0.449950  1.0
  C  C42  1  0.449950  0.856750  0.193020  1.0
  C  C43  1  0.790540  0.492040  0.152360  1.0
  C  C44  1  0.152360  0.790540  0.492040  1.0
  C  C45  1  0.492040  0.152360  0.790540  1.0
  C  C46  1  0.209460  0.507960  0.847640  1.0
  C  C47  1  0.847640  0.209460  0.507960  1.0
  C  C48  1  0.507960  0.847640  0.209460  1.0
  C  C49  1  0.636500  0.472680  0.098420  1.0
  C  C50  1  0.098420  0.636500  0.472680  1.0
  C  C51  1  0.472680  0.098420  0.636500  1.0
  C  C52  1  0.363500  0.527320  0.901580  1.0
  C  C53  1  0.901580  0.363500  0.527320  1.0
  C  C54  1  0.527320  0.901580  0.363500  1.0
  C  C55  1  0.584560  0.487830  0.067290  1.0
  C  C56  1  0.067290  0.584560  0.487830  1.0
  C  C57  1  0.487830  0.067290  0.584560  1.0
  C  C58  1  0.415440  0.512170  0.932710  1.0
  C  C59  1  0.932710  0.415440  0.512170  1.0
  C  C60  1  0.512170  0.932710  0.415440  1.0
  C  C61  1  0.540850  0.438620  0.062110  1.0
  C  C62  1  0.062110  0.540850  0.438620  1.0
  C  C63  1  0.438620  0.062110  0.540850  1.0
  C  C64  1  0.459150  0.561380  0.937890  1.0
  C  C65  1  0.937890  0.459150  0.561380  1.0
  C  C66  1  0.561380  0.937890  0.459150  1.0
  C  C67  1  0.536980  0.339680  0.101680  1.0
  C  C68  1  0.101680  0.536980  0.339680  1.0
  C  C69  1  0.339680  0.101680  0.536980  1.0
  C  C70  1  0.463020  0.660320  0.898320  1.0
  C  C71  1  0.898320  0.463020  0.660320  1.0
  C  C72  1  0.660320  0.898320  0.463020  1.0
  C  C73  1  0.215070  0.125810  0.295460  1.0
  C  C74  1  0.295460  0.215070  0.125810  1.0
  C  C75  1  0.125810  0.295460  0.215070  1.0
  C  C76  1  0.784930  0.874190  0.704540  1.0
  C  C77  1  0.704540  0.784930  0.874190  1.0
  C  C78  1  0.874190  0.704540  0.784930  1.0
  C  C79  1  0.186030  0.075790  0.313470  1.0
  C  C80  1  0.313470  0.186030  0.075790  1.0
  C  C81  1  0.075790  0.313470  0.186030  1.0
  C  C82  1  0.813970  0.924210  0.686530  1.0
  C  C83  1  0.686530  0.813970  0.924210  1.0
  C  C84  1  0.924210  0.686530  0.813970  1.0
  C  C85  1  0.125970  0.061160  0.296780  1.0
  C  C86  1  0.296780  0.125970  0.061160  1.0
  C  C87  1  0.061160  0.296780  0.125970  1.0
  C  C88  1  0.874030  0.938840  0.703220  1.0
  C  C89  1  0.703220  0.874030  0.938840  1.0
  C  C90  1  0.938840  0.703220  0.874030  1.0
  C  C91  1  0.095060  0.096460  0.262060  1.0
  C  C92  1  0.262060  0.095060  0.096460  1.0
  C  C93  1  0.096460  0.262060  0.095060  1.0
  C  C94  1  0.904940  0.903540  0.737940  1.0
  C  C95  1  0.737940  0.904940  0.903540  1.0
  C  C96  1  0.903540  0.737940  0.904940  1.0
  C  C97  1  0.124110  0.146410  0.244110  1.0
  C  C98  1  0.244110  0.124110  0.146410  1.0
  C  C99  1  0.146410  0.244110  0.124110  1.0
  C  C100  1  0.875890  0.853590  0.755890  1.0
  C  C101  1  0.755890  0.875890  0.853590  1.0
  C  C102  1  0.853590  0.755890  0.875890  1.0
  C  C103  1  0.271980  0.144150  0.310630  1.0
  C  C104  1  0.310630  0.271980  0.144150  1.0
  C  C105  1  0.144150  0.310630  0.271980  1.0
  C  C106  1  0.728020  0.855850  0.689370  1.0
  C  C107  1  0.689370  0.728020  0.855850  1.0
  C  C108  1  0.855850  0.689370  0.728020  1.0
  C  C109  1  0.318640  0.122250  0.344190  1.0
  C  C110  1  0.344190  0.318640  0.122250  1.0
  C  C111  1  0.122250  0.344190  0.318640  1.0
  C  C112  1  0.681360  0.877750  0.655810  1.0
  C  C113  1  0.655810  0.681360  0.877750  1.0
  C  C114  1  0.877750  0.655810  0.681360  1.0
  C  C115  1  0.370220  0.162280  0.345460  1.0
  C  C116  1  0.345460  0.370220  0.162280  1.0
  C  C117  1  0.162280  0.345460  0.370220  1.0
  C  C118  1  0.629780  0.837720  0.654540  1.0
  C  C119  1  0.654540  0.629780  0.837720  1.0
  C  C120  1  0.837720  0.654540  0.629780  1.0
  C  C121  1  0.391770  0.258470  0.302870  1.0
  C  C122  1  0.302870  0.391770  0.258470  1.0
  C  C123  1  0.258470  0.302870  0.391770  1.0
  C  C124  1  0.608230  0.741530  0.697130  1.0
  C  C125  1  0.697130  0.608230  0.741530  1.0
  C  C126  1  0.741530  0.697130  0.608230  1.0
  C  C127  1  0.508320  0.343350  0.158710  1.0
  C  C128  1  0.158710  0.508320  0.343350  1.0
  C  C129  1  0.343350  0.158710  0.508320  1.0
  C  C130  1  0.491680  0.656650  0.841290  1.0
  C  C131  1  0.841290  0.491680  0.656650  1.0
  C  C132  1  0.656650  0.841290  0.491680  1.0
  C  C133  1  0.511840  0.398000  0.191770  1.0
  C  C134  1  0.191770  0.511840  0.398000  1.0
  C  C135  1  0.398000  0.191770  0.511840  1.0
  C  C136  1  0.488160  0.602000  0.808230  1.0
  C  C137  1  0.808230  0.488160  0.602000  1.0
  C  C138  1  0.602000  0.808230  0.488160  1.0
  C  C139  1  0.485550  0.403510  0.243660  1.0
  C  C140  1  0.243660  0.485550  0.403510  1.0
  C  C141  1  0.403510  0.243660  0.485550  1.0
  C  C142  1  0.514450  0.596490  0.756340  1.0
  C  C143  1  0.756340  0.514450  0.596490  1.0
  C  C144  1  0.596490  0.756340  0.514450  1.0
  C  C145  1  0.455740  0.354370  0.262490  1.0
  C  C146  1  0.262490  0.455740  0.354370  1.0
  C  C147  1  0.354370  0.262490  0.455740  1.0
  C  C148  1  0.544260  0.645630  0.737510  1.0
  C  C149  1  0.737510  0.544260  0.645630  1.0
  C  C150  1  0.645630  0.737510  0.544260  1.0
  C  C151  1  0.452220  0.299720  0.229430  1.0
  C  C152  1  0.229430  0.452220  0.299720  1.0
  C  C153  1  0.299720  0.229430  0.452220  1.0
  C  C154  1  0.547780  0.700280  0.770570  1.0
  C  C155  1  0.770570  0.547780  0.700280  1.0
  C  C156  1  0.700280  0.770570  0.547780  1.0
  C  C157  1  0.478500  0.294200  0.177530  1.0
  C  C158  1  0.177530  0.478500  0.294200  1.0
  C  C159  1  0.294200  0.177530  0.478500  1.0
  C  C160  1  0.521500  0.705800  0.822470  1.0
  C  C161  1  0.822470  0.521500  0.705800  1.0
  C  C162  1  0.705800  0.822470  0.521500  1.0
  C  C163  1  0.474980  0.239540  0.144480  1.0
  C  C164  1  0.144480  0.474980  0.239540  1.0
  C  C165  1  0.239540  0.144480  0.474980  1.0
  C  C166  1  0.525020  0.760460  0.855520  1.0
  C  C167  1  0.855520  0.525020  0.760460  1.0
  C  C168  1  0.760460  0.855520  0.525020  1.0
  C  C169  1  0.445170  0.190400  0.163310  1.0
  C  C170  1  0.163310  0.445170  0.190400  1.0
  C  C171  1  0.190400  0.163310  0.445170  1.0
  C  C172  1  0.554830  0.809600  0.836690  1.0
  C  C173  1  0.836690  0.554830  0.809600  1.0
  C  C174  1  0.809600  0.836690  0.554830  1.0
  C  C175  1  0.418880  0.195910  0.215200  1.0
  C  C176  1  0.215200  0.418880  0.195910  1.0
  C  C177  1  0.195910  0.215200  0.418880  1.0
  C  C178  1  0.581120  0.804090  0.784800  1.0
  C  C179  1  0.784800  0.581120  0.804090  1.0
  C  C180  1  0.804090  0.784800  0.581120  1.0
  C  C181  1  0.422400  0.250570  0.248250  1.0
  C  C182  1  0.248250  0.422400  0.250570  1.0
  C  C183  1  0.250570  0.248250  0.422400  1.0
  C  C184  1  0.577600  0.749430  0.751750  1.0
  C  C185  1  0.751750  0.577600  0.749430  1.0
  C  C186  1  0.749430  0.751750  0.577600  1.0
  C  C187  1  0.638660  0.293290  0.216820  1.0
  C  C188  1  0.216820  0.638660  0.293290  1.0
  C  C189  1  0.293290  0.216820  0.638660  1.0
  C  C190  1  0.361340  0.706710  0.783180  1.0
  C  C191  1  0.783180  0.361340  0.706710  1.0
  C  C192  1  0.706710  0.783180  0.361340  1.0
  C  C193  1  0.612170  0.239780  0.229950  1.0
  C  C194  1  0.229950  0.612170  0.239780  1.0
  C  C195  1  0.239780  0.229950  0.612170  1.0
  C  C196  1  0.387830  0.760220  0.770050  1.0
  C  C197  1  0.770050  0.387830  0.760220  1.0
  C  C198  1  0.760220  0.770050  0.387830  1.0
  C  C199  1  0.609610  0.189500  0.190120  1.0
  C  C200  1  0.190120  0.609610  0.189500  1.0
  C  C201  1  0.189500  0.190120  0.609610  1.0
  C  C202  1  0.390390  0.810500  0.809880  1.0
  C  C203  1  0.809880  0.390390  0.810500  1.0
  C  C204  1  0.810500  0.809880  0.390390  1.0
  C  C205  1  0.633450  0.192870  0.137110  1.0
  C  C206  1  0.137110  0.633450  0.192870  1.0
  C  C207  1  0.192870  0.137110  0.633450  1.0
  C  C208  1  0.366550  0.807130  0.862890  1.0
  C  C209  1  0.862890  0.366550  0.807130  1.0
  C  C210  1  0.807130  0.862890  0.366550  1.0
  C  C211  1  0.659930  0.246340  0.124030  1.0
  C  C212  1  0.124030  0.659930  0.246340  1.0
  C  C213  1  0.246340  0.124030  0.659930  1.0
  C  C214  1  0.340070  0.753660  0.875970  1.0
  C  C215  1  0.875970  0.340070  0.753660  1.0
  C  C216  1  0.753660  0.875970  0.340070  1.0
  C  C217  1  0.646400  0.343760  0.254220  1.0
  C  C218  1  0.254220  0.646400  0.343760  1.0
  C  C219  1  0.343760  0.254220  0.646400  1.0
  C  C220  1  0.353600  0.656240  0.745780  1.0
  C  C221  1  0.745780  0.353600  0.656240  1.0
  C  C222  1  0.656240  0.745780  0.353600  1.0
  C  C223  1  0.632600  0.358450  0.312400  1.0
  C  C224  1  0.312400  0.632600  0.358450  1.0
  C  C225  1  0.358450  0.312400  0.632600  1.0
  C  C226  1  0.367400  0.641550  0.687600  1.0
  C  C227  1  0.687600  0.367400  0.641550  1.0
  C  C228  1  0.641550  0.687600  0.367400  1.0
  C  C229  1  0.654760  0.418260  0.330360  1.0
  C  C230  1  0.330360  0.654760  0.418260  1.0
  C  C231  1  0.418260  0.330360  0.654760  1.0
  C  C232  1  0.345240  0.581740  0.669640  1.0
  C  C233  1  0.669640  0.345240  0.581740  1.0
  C  C234  1  0.581740  0.669640  0.345240  1.0
  C  C235  1  0.709040  0.498040  0.281440  1.0
  C  C236  1  0.281440  0.709040  0.498040  1.0
  C  C237  1  0.498040  0.281440  0.709040  1.0
  C  C238  1  0.290960  0.501960  0.718560  1.0
  C  C239  1  0.718560  0.290960  0.501960  1.0
  C  C240  1  0.501960  0.718560  0.290960  1.0
  C  C241  1  0.667730  0.936330  0.222830  1.0
  C  C242  1  0.222830  0.667730  0.936330  1.0
  C  C243  1  0.936330  0.222830  0.667730  1.0
  C  C244  1  0.332270  0.063670  0.777170  1.0
  C  C245  1  0.777170  0.332270  0.063670  1.0
  C  C246  1  0.063670  0.777170  0.332270  1.0
  C  C247  1  0.685880  0.989880  0.203300  1.0
  C  C248  1  0.203300  0.685880  0.989880  1.0
  C  C249  1  0.989880  0.203300  0.685880  1.0
  C  C250  1  0.314120  0.010120  0.796700  1.0
  C  C251  1  0.796700  0.314120  0.010120  1.0
  C  C252  1  0.010120  0.796700  0.314120  1.0
  C  C253  1  0.683260  0.042300  0.238460  1.0
  C  C254  1  0.238460  0.683260  0.042300  1.0
  C  C255  1  0.042300  0.238460  0.683260  1.0
  C  C256  1  0.316740  0.957700  0.761540  1.0
  C  C257  1  0.761540  0.316740  0.957700  1.0
  C  C258  1  0.957700  0.761540  0.316740  1.0
  C  C259  1  0.662480  0.041180  0.293180  1.0
  C  C260  1  0.293180  0.662480  0.041180  1.0
  C  C261  1  0.041180  0.293180  0.662480  1.0
  C  C262  1  0.337520  0.958820  0.706820  1.0
  C  C263  1  0.706820  0.337520  0.958820  1.0
  C  C264  1  0.958820  0.706820  0.337520  1.0
  C  C265  1  0.644350  0.987660  0.312690  1.0
  C  C266  1  0.312690  0.644350  0.987660  1.0
  C  C267  1  0.987660  0.312690  0.644350  1.0
  C  C268  1  0.355650  0.012340  0.687310  1.0
  C  C269  1  0.687310  0.355650  0.012340  1.0
  C  C270  1  0.012340  0.687310  0.355650  1.0
  C  C271  1  0.667310  0.883230  0.191120  1.0
  C  C272  1  0.191120  0.667310  0.883230  1.0
  C  C273  1  0.883230  0.191120  0.667310  1.0
  C  C274  1  0.332690  0.116770  0.808880  1.0
  C  C275  1  0.808880  0.332690  0.116770  1.0
  C  C276  1  0.116770  0.808880  0.332690  1.0
  C  C277  1  0.682350  0.864400  0.134370  1.0
  C  C278  1  0.134370  0.682350  0.864400  1.0
  C  C279  1  0.864400  0.134370  0.682350  1.0
  C  C280  1  0.317650  0.135600  0.865630  1.0
  C  C281  1  0.865630  0.317650  0.135600  1.0
  C  C282  1  0.135600  0.865630  0.317650  1.0
  C  C283  1  0.669300  0.802130  0.124280  1.0
  C  C284  1  0.124280  0.669300  0.802130  1.0
  C  C285  1  0.802130  0.124280  0.669300  1.0
  C  C286  1  0.330700  0.197870  0.875720  1.0
  C  C287  1  0.875720  0.330700  0.197870  1.0
  C  C288  1  0.197870  0.875720  0.330700  1.0
  C  C289  1  0.623300  0.726500  0.183900  1.0
  C  C290  1  0.183900  0.623300  0.726500  1.0
  C  C291  1  0.726500  0.183900  0.623300  1.0
  C  C292  1  0.376700  0.273500  0.816100  1.0
  C  C293  1  0.816100  0.376700  0.273500  1.0
  C  C294  1  0.273500  0.816100  0.376700  1.0
  C  C295  1  0.666540  0.540780  0.260020  1.0
  C  C296  1  0.260020  0.666540  0.540780  1.0
  C  C297  1  0.540780  0.260020  0.666540  1.0
  C  C298  1  0.333460  0.459220  0.739980  1.0
  C  C299  1  0.739980  0.333460  0.459220  1.0
  C  C300  1  0.459220  0.739980  0.333460  1.0
  C  C301  1  0.607600  0.519030  0.245220  1.0
  C  C302  1  0.245220  0.607600  0.519030  1.0
  C  C303  1  0.519030  0.245220  0.607600  1.0
  C  C304  1  0.392400  0.480970  0.754780  1.0
  C  C305  1  0.754780  0.392400  0.480970  1.0
  C  C306  1  0.480970  0.754780  0.392400  1.0
  C  C307  1  0.568530  0.553880  0.219380  1.0
  C  C308  1  0.219380  0.568530  0.553880  1.0
  C  C309  1  0.553880  0.219380  0.568530  1.0
  C  C310  1  0.431470  0.446120  0.780620  1.0
  C  C311  1  0.780620  0.431470  0.446120  1.0
  C  C312  1  0.446120  0.780620  0.431470  1.0
  C  C313  1  0.588400  0.610480  0.208340  1.0
  C  C314  1  0.208340  0.588400  0.610480  1.0
  C  C315  1  0.610480  0.208340  0.588400  1.0
  C  C316  1  0.411600  0.389520  0.791660  1.0
  C  C317  1  0.791660  0.411600  0.389520  1.0
  C  C318  1  0.389520  0.791660  0.411600  1.0
  C  C319  1  0.647350  0.632220  0.223140  1.0
  C  C320  1  0.223140  0.647350  0.632220  1.0
  C  C321  1  0.632220  0.223140  0.647350  1.0
  C  C322  1  0.352650  0.367780  0.776860  1.0
  C  C323  1  0.776860  0.352650  0.367780  1.0
  C  C324  1  0.367780  0.776860  0.352650  1.0
  C  C325  1  0.686420  0.597370  0.248980  1.0
  C  C326  1  0.248980  0.686420  0.597370  1.0
  C  C327  1  0.597370  0.248980  0.686420  1.0
  C  C328  1  0.313580  0.402630  0.751020  1.0
  C  C329  1  0.751020  0.313580  0.402630  1.0
  C  C330  1  0.402630  0.751020  0.313580  1.0
  C  C331  1  0.745360  0.619120  0.263780  1.0
  C  C332  1  0.263780  0.745360  0.619120  1.0
  C  C333  1  0.619120  0.263780  0.745360  1.0
  C  C334  1  0.254640  0.380880  0.736220  1.0
  C  C335  1  0.736220  0.254640  0.380880  1.0
  C  C336  1  0.380880  0.736220  0.254640  1.0
  C  C337  1  0.765240  0.675710  0.252740  1.0
  C  C338  1  0.252740  0.765240  0.675710  1.0
  C  C339  1  0.675710  0.252740  0.765240  1.0
  C  C340  1  0.234760  0.324290  0.747260  1.0
  C  C341  1  0.747260  0.234760  0.324290  1.0
  C  C342  1  0.324290  0.747260  0.234760  1.0
  C  C343  1  0.726170  0.710560  0.226900  1.0
  C  C344  1  0.226900  0.726170  0.710560  1.0
  C  C345  1  0.710560  0.226900  0.726170  1.0
  C  C346  1  0.273830  0.289440  0.773100  1.0
  C  C347  1  0.773100  0.273830  0.289440  1.0
  C  C348  1  0.289440  0.773100  0.273830  1.0
  C  C349  1  0.667230  0.688810  0.212100  1.0
  C  C350  1  0.212100  0.667230  0.688810  1.0
  C  C351  1  0.688810  0.212100  0.667230  1.0
  C  C352  1  0.332770  0.311190  0.787900  1.0
  C  C353  1  0.787900  0.332770  0.311190  1.0
  C  C354  1  0.311190  0.787900  0.332770  1.0
  Co  Co355  1  0.234363  0.234363  0.234363  0.3333333333333333
  Ru  Ru356  1  0.234363  0.234363  0.234363  0.6666666666666666
  Co  Co357  1  0.765637  0.765637  0.765637  0.3333333333333333
  Ru  Ru358  1  0.765637  0.765637  0.765637  0.6666666666666666
  Co  Co359  1  0.700060  0.380650  0.149360  0.8571428571428571
  Ru  Ru360  1  0.700060  0.380650  0.149360  0.14285714285714285
  Co  Co361  1  0.149360  0.700060  0.380650  0.8571428571428571
  Ru  Ru362  1  0.149360  0.700060  0.380650  0.14285714285714285
  Co  Co363  1  0.380650  0.149360  0.700060  0.8571428571428571
  Ru  Ru364  1  0.380650  0.149360  0.700060  0.14285714285714285
  Co  Co365  1  0.299940  0.619350  0.850640  0.8571428571428571
  Ru  Ru366  1  0.299940  0.619350  0.850640  0.14285714285714285
  Co  Co367  1  0.850640  0.299940  0.619350  0.8571428571428571
  Ru  Ru368  1  0.850640  0.299940  0.619350  0.14285714285714285
  Co  Co369  1  0.619350  0.850640  0.299940  0.8571428571428571
  Ru  Ru370  1  0.619350  0.850640  0.299940  0.14285714285714285
  F  F371  1  0.610220  0.975170  0.599650  1
  F  F372  1  0.599650  0.610220  0.975170  1
  F  F373  1  0.975170  0.599650  0.610220  1
  F  F374  1  0.389780  0.024830  0.400350  1
  F  F375  1  0.400350  0.389780  0.024830  1
  F  F376  1  0.024830  0.400350  0.389780  1
  F  F377  1  0.704490  0.997690  0.584290  1
  F  F378  1  0.584290  0.704490  0.997690  1
  F  F379  1  0.997690  0.584290  0.704490  1
  F  F380  1  0.295510  0.002310  0.415710  1
  F  F381  1  0.415710  0.295510  0.002310  1
  F  F382  1  0.002310  0.415710  0.295510  1
  F  F383  1  0.670890  0.042090  0.660790  1
  F  F384  1  0.660790  0.670890  0.042090  1
  F  F385  1  0.042090  0.660790  0.670890  1
  F  F386  1  0.329110  0.957910  0.339210  1
  F  F387  1  0.339210  0.329110  0.957910  1
  F  F388  1  0.957910  0.339210  0.329110  1
  F  F389  1  0.637220  0.061220  0.573420  1
  F  F390  1  0.573420  0.637220  0.061220  1
  F  F391  1  0.061220  0.573420  0.637220  1
  F  F392  1  0.362780  0.938780  0.426580  1
  F  F393  1  0.426580  0.362780  0.938780  1
  F  F394  1  0.938780  0.426580  0.362780  1
  F  F395  1  0.181890  0.409390  0.508890  1
  F  F396  1  0.508890  0.181890  0.409390  1
  F  F397  1  0.409390  0.508890  0.181890  1
  F  F398  1  0.818110  0.590610  0.491110  1
  F  F399  1  0.491110  0.818110  0.590610  1
  F  F400  1  0.590610  0.491110  0.818110  1
  F  F401  1  0.254520  0.353920  0.526920  1
  F  F402  1  0.526920  0.254520  0.353920  1
  F  F403  1  0.353920  0.526920  0.254520  1
  F  F404  1  0.745480  0.646080  0.473080  1
  F  F405  1  0.473080  0.745480  0.646080  1
  F  F406  1  0.646080  0.473080  0.745480  1
  F  F407  1  0.243330  0.428130  0.589630  1
  F  F408  1  0.589630  0.243330  0.428130  1
  F  F409  1  0.428130  0.589630  0.243330  1
  F  F410  1  0.756670  0.571870  0.410370  1
  F  F411  1  0.410370  0.756670  0.571870  1
  F  F412  1  0.571870  0.410370  0.756670  1
  F  F413  1  0.178000  0.350700  0.582900  1
  F  F414  1  0.582900  0.178000  0.350700  1
  F  F415  1  0.350700  0.582900  0.178000  1
  F  F416  1  0.822000  0.649300  0.417100  1
  F  F417  1  0.417100  0.822000  0.649300  1
  F  F418  1  0.649300  0.417100  0.822000  1
  H  H419  1  0.514700  0.397900  0.879200  1
  H  H420  1  0.879200  0.514700  0.397900  1
  H  H421  1  0.397900  0.879200  0.514700  1
  H  H422  1  0.485300  0.602100  0.120800  1
  H  H423  1  0.120800  0.485300  0.602100  1
  H  H424  1  0.602100  0.120800  0.485300  1
  H  H425  1  0.584500  0.396300  0.885100  1
  H  H426  1  0.885100  0.584500  0.396300  1
  H  H427  1  0.396300  0.885100  0.584500  1
  H  H428  1  0.415500  0.603700  0.114900  1
  H  H429  1  0.114900  0.415500  0.603700  1
  H  H430  1  0.603700  0.114900  0.415500  1
  H  H431  1  0.552100  0.409200  0.942700  1
  H  H432  1  0.942700  0.552100  0.409200  1
  H  H433  1  0.409200  0.942700  0.552100  1
  H  H434  1  0.447900  0.590800  0.057300  1
  H  H435  1  0.057300  0.447900  0.590800  1
  H  H436  1  0.590800  0.057300  0.447900  1
  H  H437  1  0.678600  0.581900  0.089000  1.0
  H  H438  1  0.089000  0.678600  0.581900  1.0
  H  H439  1  0.581900  0.089000  0.678600  1.0
  H  H440  1  0.321400  0.418100  0.911000  1.0
  H  H441  1  0.911000  0.321400  0.418100  1.0
  H  H442  1  0.418100  0.911000  0.321400  1.0
  H  H443  1  0.776500  0.623100  0.113400  1.0
  H  H444  1  0.113400  0.776500  0.623100  1.0
  H  H445  1  0.623100  0.113400  0.776500  1.0
  H  H446  1  0.223500  0.376900  0.886600  1.0
  H  H447  1  0.886600  0.223500  0.376900  1.0
  H  H448  1  0.376900  0.886600  0.223500  1.0
  H  H449  1  0.846700  0.566800  0.153200  1.0
  H  H450  1  0.153200  0.846700  0.566800  1.0
  H  H451  1  0.566800  0.153200  0.846700  1.0
  H  H452  1  0.153300  0.433200  0.846800  1.0
  H  H453  1  0.846800  0.153300  0.433200  1.0
  H  H454  1  0.433200  0.846800  0.153300  1.0
  H  H455  1  0.819000  0.469100  0.168500  1.0
  H  H456  1  0.168500  0.819000  0.469100  1.0
  H  H457  1  0.469100  0.168500  0.819000  1.0
  H  H458  1  0.181000  0.530900  0.831500  1.0
  H  H459  1  0.831500  0.181000  0.530900  1.0
  H  H460  1  0.530900  0.831500  0.181000  1.0
  H  H461  1  0.579900  0.524500  0.052500  1.0
  H  H462  1  0.052500  0.579900  0.524500  1.0
  H  H463  1  0.524500  0.052500  0.579900  1.0
  H  H464  1  0.420100  0.475500  0.947500  1.0
  H  H465  1  0.947500  0.420100  0.475500  1.0
  H  H466  1  0.475500  0.947500  0.420100  1.0
  H  H467  1  0.501800  0.436600  0.043300  1.0
  H  H468  1  0.043300  0.501800  0.436600  1.0
  H  H469  1  0.436600  0.043300  0.501800  1.0
  H  H470  1  0.498200  0.563400  0.956700  1.0
  H  H471  1  0.956700  0.498200  0.563400  1.0
  H  H472  1  0.563400  0.956700  0.498200  1.0
  H  H473  1  0.565700  0.310400  0.103500  1.0
  H  H474  1  0.103500  0.565700  0.310400  1.0
  H  H475  1  0.310400  0.103500  0.565700  1.0
  H  H476  1  0.434300  0.689600  0.896500  1.0
  H  H477  1  0.896500  0.434300  0.689600  1.0
  H  H478  1  0.689600  0.896500  0.434300  1.0
  H  H479  1  0.506300  0.325200  0.068600  1.0
  H  H480  1  0.068600  0.506300  0.325200  1.0
  H  H481  1  0.325200  0.068600  0.506300  1.0
  H  H482  1  0.493700  0.674800  0.931400  1.0
  H  H483  1  0.931400  0.493700  0.674800  1.0
  H  H484  1  0.674800  0.931400  0.493700  1.0
  H  H485  1  0.207100  0.051700  0.337100  1.0
  H  H486  1  0.337100  0.207100  0.051700  1.0
  H  H487  1  0.051700  0.337100  0.207100  1.0
  H  H488  1  0.792900  0.948300  0.662900  1.0
  H  H489  1  0.662900  0.792900  0.948300  1.0
  H  H490  1  0.948300  0.662900  0.792900  1.0
  H  H491  1  0.106200  0.027000  0.309100  1.0
  H  H492  1  0.309100  0.106200  0.027000  1.0
  H  H493  1  0.027000  0.309100  0.106200  1.0
  H  H494  1  0.893800  0.973000  0.690900  1.0
  H  H495  1  0.690900  0.893800  0.973000  1.0
  H  H496  1  0.973000  0.690900  0.893800  1.0
  H  H497  1  0.054000  0.086400  0.250600  1.0
  H  H498  1  0.250600  0.054000  0.086400  1.0
  H  H499  1  0.086400  0.250600  0.054000  1.0
  H  H500  1  0.946000  0.913600  0.749400  1.0
  H  H501  1  0.749400  0.946000  0.913600  1.0
  H  H502  1  0.913600  0.749400  0.946000  1.0
  H  H503  1  0.103000  0.170500  0.220400  1.0
  H  H504  1  0.220400  0.103000  0.170500  1.0
  H  H505  1  0.170500  0.220400  0.103000  1.0
  H  H506  1  0.897000  0.829500  0.779600  1.0
  H  H507  1  0.779600  0.897000  0.829500  1.0
  H  H508  1  0.829500  0.779600  0.897000  1.0
  H  H509  1  0.315800  0.087000  0.362600  1.0
  H  H510  1  0.362600  0.315800  0.087000  1.0
  H  H511  1  0.087000  0.362600  0.315800  1.0
  H  H512  1  0.684200  0.913000  0.637400  1.0
  H  H513  1  0.637400  0.684200  0.913000  1.0
  H  H514  1  0.913000  0.637400  0.684200  1.0
  H  H515  1  0.408000  0.158500  0.364800  1.0
  H  H516  1  0.364800  0.408000  0.158500  1.0
  H  H517  1  0.158500  0.364800  0.408000  1.0
  H  H518  1  0.592000  0.841500  0.635200  1.0
  H  H519  1  0.635200  0.592000  0.841500  1.0
  H  H520  1  0.841500  0.635200  0.592000  1.0
  H  H521  1  0.421900  0.269200  0.337400  1.0
  H  H522  1  0.337400  0.421900  0.269200  1.0
  H  H523  1  0.269200  0.337400  0.421900  1.0
  H  H524  1  0.578100  0.730800  0.662600  1.0
  H  H525  1  0.662600  0.578100  0.730800  1.0
  H  H526  1  0.730800  0.662600  0.578100  1.0
  H  H527  1  0.367700  0.291800  0.300000  1.0
  H  H528  1  0.300000  0.367700  0.291800  1.0
  H  H529  1  0.291800  0.300000  0.367700  1.0
  H  H530  1  0.632300  0.708200  0.700000  1.0
  H  H531  1  0.700000  0.632300  0.708200  1.0
  H  H532  1  0.708200  0.700000  0.632300  1.0
  H  H533  1  0.532200  0.431700  0.178900  1.0
  H  H534  1  0.178900  0.532200  0.431700  1.0
  H  H535  1  0.431700  0.178900  0.532200  1.0
  H  H536  1  0.467800  0.568300  0.821100  1.0
  H  H537  1  0.821100  0.467800  0.568300  1.0
  H  H538  1  0.568300  0.821100  0.467800  1.0
  H  H539  1  0.487900  0.440900  0.266200  1.0
  H  H540  1  0.266200  0.487900  0.440900  1.0
  H  H541  1  0.440900  0.266200  0.487900  1.0
  H  H542  1  0.512100  0.559100  0.733800  1.0
  H  H543  1  0.733800  0.512100  0.559100  1.0
  H  H544  1  0.559100  0.733800  0.512100  1.0
  H  H545  1  0.437800  0.358100  0.298000  1.0
  H  H546  1  0.298000  0.437800  0.358100  1.0
  H  H547  1  0.358100  0.298000  0.437800  1.0
  H  H548  1  0.562200  0.641900  0.702000  1.0
  H  H549  1  0.702000  0.562200  0.641900  1.0
  H  H550  1  0.641900  0.702000  0.562200  1.0
  H  H551  1  0.492900  0.235800  0.109000  1.0
  H  H552  1  0.109000  0.492900  0.235800  1.0
  H  H553  1  0.235800  0.109000  0.492900  1.0
  H  H554  1  0.507100  0.764200  0.891000  1.0
  H  H555  1  0.891000  0.507100  0.764200  1.0
  H  H556  1  0.764200  0.891000  0.507100  1.0
  H  H557  1  0.442800  0.153100  0.140700  1.0
  H  H558  1  0.140700  0.442800  0.153100  1.0
  H  H559  1  0.153100  0.140700  0.442800  1.0
  H  H560  1  0.557200  0.846900  0.859300  1.0
  H  H561  1  0.859300  0.557200  0.846900  1.0
  H  H562  1  0.846900  0.859300  0.557200  1.0
  H  H563  1  0.398500  0.162300  0.228000  1.0
  H  H564  1  0.228000  0.398500  0.162300  1.0
  H  H565  1  0.162300  0.228000  0.398500  1.0
  H  H566  1  0.601500  0.837700  0.772000  1.0
  H  H567  1  0.772000  0.601500  0.837700  1.0
  H  H568  1  0.837700  0.772000  0.601500  1.0
  H  H569  1  0.595900  0.237500  0.266200  1.0
  H  H570  1  0.266200  0.595900  0.237500  1.0
  H  H571  1  0.237500  0.266200  0.595900  1.0
  H  H572  1  0.404100  0.762500  0.733800  1.0
  H  H573  1  0.733800  0.404100  0.762500  1.0
  H  H574  1  0.762500  0.733800  0.404100  1.0
  H  H575  1  0.591500  0.153000  0.199100  1.0
  H  H576  1  0.199100  0.591500  0.153000  1.0
  H  H577  1  0.153000  0.199100  0.591500  1.0
  H  H578  1  0.408500  0.847000  0.800900  1.0
  H  H579  1  0.800900  0.408500  0.847000  1.0
  H  H580  1  0.847000  0.800900  0.408500  1.0
  H  H581  1  0.631700  0.158500  0.109900  1.0
  H  H582  1  0.109900  0.631700  0.158500  1.0
  H  H583  1  0.158500  0.109900  0.631700  1.0
  H  H584  1  0.368300  0.841500  0.890100  1.0
  H  H585  1  0.890100  0.368300  0.841500  1.0
  H  H586  1  0.841500  0.890100  0.368300  1.0
  H  H587  1  0.676200  0.248600  0.087800  1.0
  H  H588  1  0.087800  0.676200  0.248600  1.0
  H  H589  1  0.248600  0.087800  0.676200  1.0
  H  H590  1  0.323800  0.751400  0.912200  1.0
  H  H591  1  0.912200  0.323800  0.751400  1.0
  H  H592  1  0.751400  0.912200  0.323800  1.0
  H  H593  1  0.612100  0.332800  0.335300  1.0
  H  H594  1  0.335300  0.612100  0.332800  1.0
  H  H595  1  0.332800  0.335300  0.612100  1.0
  H  H596  1  0.387900  0.667200  0.664700  1.0
  H  H597  1  0.664700  0.387900  0.667200  1.0
  H  H598  1  0.667200  0.664700  0.387900  1.0
  H  H599  1  0.651700  0.439600  0.367400  1.0
  H  H600  1  0.367400  0.651700  0.439600  1.0
  H  H601  1  0.439600  0.367400  0.651700  1.0
  H  H602  1  0.348300  0.560400  0.632600  1.0
  H  H603  1  0.632600  0.348300  0.560400  1.0
  H  H604  1  0.560400  0.632600  0.348300  1.0
  H  H605  1  0.740500  0.496400  0.255100  1.0
  H  H606  1  0.255100  0.740500  0.496400  1.0
  H  H607  1  0.496400  0.255100  0.740500  1.0
  H  H608  1  0.259500  0.503600  0.744900  1.0
  H  H609  1  0.744900  0.259500  0.503600  1.0
  H  H610  1  0.503600  0.744900  0.259500  1.0
  H  H611  1  0.727800  0.513800  0.321500  1.0
  H  H612  1  0.321500  0.727800  0.513800  1.0
  H  H613  1  0.513800  0.321500  0.727800  1.0
  H  H614  1  0.272200  0.486200  0.678500  1.0
  H  H615  1  0.678500  0.272200  0.486200  1.0
  H  H616  1  0.486200  0.678500  0.272200  1.0
  H  H617  1  0.700000  0.990600  0.165900  1.0
  H  H618  1  0.165900  0.700000  0.990600  1.0
  H  H619  1  0.990600  0.165900  0.700000  1.0
  H  H620  1  0.300000  0.009400  0.834100  1.0
  H  H621  1  0.834100  0.300000  0.009400  1.0
  H  H622  1  0.009400  0.834100  0.300000  1.0
  H  H623  1  0.695700  0.078800  0.225100  1.0
  H  H624  1  0.225100  0.695700  0.078800  1.0
  H  H625  1  0.078800  0.225100  0.695700  1.0
  H  H626  1  0.304300  0.921200  0.774900  1.0
  H  H627  1  0.774900  0.304300  0.921200  1.0
  H  H628  1  0.921200  0.774900  0.304300  1.0
  H  H629  1  0.660700  0.076900  0.317200  1.0
  H  H630  1  0.317200  0.660700  0.076900  1.0
  H  H631  1  0.076900  0.317200  0.660700  1.0
  H  H632  1  0.339300  0.923100  0.682800  1.0
  H  H633  1  0.682800  0.339300  0.923100  1.0
  H  H634  1  0.923100  0.682800  0.339300  1.0
  H  H635  1  0.630100  0.986800  0.350000  1.0
  H  H636  1  0.350000  0.630100  0.986800  1.0
  H  H637  1  0.986800  0.350000  0.630100  1.0
  H  H638  1  0.369900  0.013200  0.650000  1.0
  H  H639  1  0.650000  0.369900  0.013200  1.0
  H  H640  1  0.013200  0.650000  0.369900  1.0
  H  H641  1  0.698400  0.888900  0.107800  1.0
  H  H642  1  0.107800  0.698400  0.888900  1.0
  H  H643  1  0.888900  0.107800  0.698400  1.0
  H  H644  1  0.301600  0.111100  0.892200  1.0
  H  H645  1  0.892200  0.301600  0.111100  1.0
  H  H646  1  0.111100  0.892200  0.301600  1.0
  H  H647  1  0.675100  0.777800  0.089800  1.0
  H  H648  1  0.089800  0.675100  0.777800  1.0
  H  H649  1  0.777800  0.089800  0.675100  1.0
  H  H650  1  0.324900  0.222200  0.910200  1.0
  H  H651  1  0.910200  0.324900  0.222200  1.0
  H  H652  1  0.222200  0.910200  0.324900  1.0
  H  H653  1  0.591200  0.730000  0.209200  1.0
  H  H654  1  0.209200  0.591200  0.730000  1.0
  H  H655  1  0.730000  0.209200  0.591200  1.0
  H  H656  1  0.408800  0.270000  0.790800  1.0
  H  H657  1  0.790800  0.408800  0.270000  1.0
  H  H658  1  0.270000  0.790800  0.408800  1.0
  H  H659  1  0.605600  0.705300  0.145400  1.0
  H  H660  1  0.145400  0.605600  0.705300  1.0
  H  H661  1  0.705300  0.145400  0.605600  1.0
  H  H662  1  0.394400  0.294700  0.854600  1.0
  H  H663  1  0.854600  0.394400  0.294700  1.0
  H  H664  1  0.294700  0.854600  0.394400  1.0
  H  H665  1  0.594000  0.480300  0.252700  1.0
  H  H666  1  0.252700  0.594000  0.480300  1.0
  H  H667  1  0.480300  0.252700  0.594000  1.0
  H  H668  1  0.406000  0.519700  0.747300  1.0
  H  H669  1  0.747300  0.406000  0.519700  1.0
  H  H670  1  0.519700  0.747300  0.406000  1.0
  H  H671  1  0.528300  0.539000  0.209300  1.0
  H  H672  1  0.209300  0.528300  0.539000  1.0
  H  H673  1  0.539000  0.209300  0.528300  1.0
  H  H674  1  0.471700  0.461000  0.790700  1.0
  H  H675  1  0.790700  0.471700  0.461000  1.0
  H  H676  1  0.461000  0.790700  0.471700  1.0
  H  H677  1  0.561700  0.634300  0.190700  1.0
  H  H678  1  0.190700  0.561700  0.634300  1.0
  H  H679  1  0.634300  0.190700  0.561700  1.0
  H  H680  1  0.438300  0.365700  0.809300  1.0
  H  H681  1  0.809300  0.438300  0.365700  1.0
  H  H682  1  0.365700  0.809300  0.438300  1.0
  H  H683  1  0.772100  0.595300  0.281500  1.0
  H  H684  1  0.281500  0.772100  0.595300  1.0
  H  H685  1  0.595300  0.281500  0.772100  1.0
  H  H686  1  0.227900  0.404700  0.718500  1.0
  H  H687  1  0.718500  0.227900  0.404700  1.0
  H  H688  1  0.404700  0.718500  0.227900  1.0
  H  H689  1  0.805500  0.690600  0.262900  1.0
  H  H690  1  0.262900  0.805500  0.690600  1.0
  H  H691  1  0.690600  0.262900  0.805500  1.0
  H  H692  1  0.194500  0.309400  0.737100  1.0
  H  H693  1  0.737100  0.194500  0.309400  1.0
  H  H694  1  0.309400  0.737100  0.194500  1.0
  H  H695  1  0.739700  0.749300  0.219300  1.0
  H  H696  1  0.219300  0.739700  0.749300  1.0
  H  H697  1  0.749300  0.219300  0.739700  1.0
  H  H698  1  0.260300  0.250700  0.780700  1.0
  H  H699  1  0.780700  0.260300  0.250700  1.0
  H  H700  1  0.250700  0.780700  0.260300  1.0
  N  N701  1  0.540200  0.324000  0.909000  1
  N  N702  1  0.909000  0.540200  0.324000  1
  N  N703  1  0.324000  0.909000  0.540200  1
  N  N704  1  0.459800  0.676000  0.091000  1
  N  N705  1  0.091000  0.459800  0.676000  1
  N  N706  1  0.676000  0.091000  0.459800  1
  N  N707  1  0.732370  0.467480  0.137830  1.0
  N  N708  1  0.137830  0.732370  0.467480  1.0
  N  N709  1  0.467480  0.137830  0.732370  1.0
  N  N710  1  0.267630  0.532520  0.862170  1.0
  N  N711  1  0.862170  0.267630  0.532520  1.0
  N  N712  1  0.532520  0.862170  0.267630  1.0
  N  N713  1  0.565760  0.393080  0.090030  1.0
  N  N714  1  0.090030  0.565760  0.393080  1.0
  N  N715  1  0.393080  0.090030  0.565760  1.0
  N  N716  1  0.434240  0.606920  0.909970  1.0
  N  N717  1  0.909970  0.434240  0.606920  1.0
  N  N718  1  0.606920  0.909970  0.434240  1.0
  N  N719  1  0.624880  0.414120  0.112470  1.0
  N  N720  1  0.112470  0.624880  0.414120  1.0
  N  N721  1  0.414120  0.112470  0.624880  1.0
  N  N722  1  0.375120  0.585880  0.887530  1.0
  N  N723  1  0.887530  0.375120  0.585880  1.0
  N  N724  1  0.585880  0.887530  0.375120  1.0
  N  N725  1  0.184120  0.161130  0.260760  1.0
  N  N726  1  0.260760  0.184120  0.161130  1.0
  N  N727  1  0.161130  0.260760  0.184120  1.0
  N  N728  1  0.815880  0.838870  0.739240  1.0
  N  N729  1  0.739240  0.815880  0.838870  1.0
  N  N730  1  0.838870  0.739240  0.815880  1.0
  N  N731  1  0.355440  0.208940  0.312680  1.0
  N  N732  1  0.312680  0.355440  0.208940  1.0
  N  N733  1  0.208940  0.312680  0.355440  1.0
  N  N734  1  0.644560  0.791060  0.687320  1.0
  N  N735  1  0.687320  0.644560  0.791060  1.0
  N  N736  1  0.791060  0.687320  0.644560  1.0
  N  N737  1  0.294720  0.197740  0.291150  1.0
  N  N738  1  0.291150  0.294720  0.197740  1.0
  N  N739  1  0.197740  0.291150  0.294720  1.0
  N  N740  1  0.705280  0.802260  0.708850  1.0
  N  N741  1  0.708850  0.705280  0.802260  1.0
  N  N742  1  0.802260  0.708850  0.705280  1.0
  N  N743  1  0.662540  0.296570  0.163860  1.0
  N  N744  1  0.163860  0.662540  0.296570  1.0
  N  N745  1  0.296570  0.163860  0.662540  1.0
  N  N746  1  0.337460  0.703430  0.836140  1.0
  N  N747  1  0.836140  0.337460  0.703430  1.0
  N  N748  1  0.703430  0.836140  0.337460  1.0
  N  N749  1  0.682260  0.440550  0.283270  1.0
  N  N750  1  0.283270  0.682260  0.440550  1.0
  N  N751  1  0.440550  0.283270  0.682260  1.0
  N  N752  1  0.317740  0.559450  0.716730  1.0
  N  N753  1  0.716730  0.317740  0.559450  1.0
  N  N754  1  0.559450  0.716730  0.317740  1.0
  N  N755  1  0.677090  0.394500  0.236210  1.0
  N  N756  1  0.236210  0.677090  0.394500  1.0
  N  N757  1  0.394500  0.236210  0.677090  1.0
  N  N758  1  0.322910  0.605500  0.763790  1.0
  N  N759  1  0.763790  0.322910  0.605500  1.0
  N  N760  1  0.605500  0.763790  0.322910  1.0
  N  N761  1  0.646930  0.935260  0.277520  1.0
  N  N762  1  0.277520  0.646930  0.935260  1.0
  N  N763  1  0.935260  0.277520  0.646930  1.0
  N  N764  1  0.353070  0.064740  0.722480  1.0
  N  N765  1  0.722480  0.353070  0.064740  1.0
  N  N766  1  0.064740  0.722480  0.353070  1.0
  N  N767  1  0.646020  0.782620  0.174810  1.0
  N  N768  1  0.174810  0.646020  0.782620  1.0
  N  N769  1  0.782620  0.174810  0.646020  1.0
  N  N770  1  0.353980  0.217380  0.825190  1.0
  N  N771  1  0.825190  0.353980  0.217380  1.0
  N  N772  1  0.217380  0.825190  0.353980  1.0
  N  N773  1  0.644790  0.832740  0.216130  1.0
  N  N774  1  0.216130  0.644790  0.832740  1.0
  N  N775  1  0.832740  0.216130  0.644790  1.0
  N  N776  1  0.355210  0.167260  0.783870  1.0
  N  N777  1  0.783870  0.355210  0.167260  1.0
  N  N778  1  0.167260  0.783870  0.355210  1.0
  O  O779  1  0.552600  0.307200  0.957800  1
  O  O780  1  0.957800  0.552600  0.307200  1
  O  O781  1  0.307200  0.957800  0.552600  1
  O  O782  1  0.447400  0.692800  0.042200  1
  O  O783  1  0.042200  0.447400  0.692800  1
  O  O784  1  0.692800  0.042200  0.447400  1
  O  O785  1  0.516400  0.292600  0.865500  1
  O  O786  1  0.865500  0.516400  0.292600  1
  O  O787  1  0.292600  0.865500  0.516400  1
  O  O788  1  0.483600  0.707400  0.134500  1
  O  O789  1  0.134500  0.483600  0.707400  1
  O  O790  1  0.707400  0.134500  0.483600  1
