# generated using pymatgen
data_MnH19C26N2(OF3)4
_symmetry_space_group_name_H-M   'P 1'
_cell_length_a   10.27190000
_cell_length_b   12.99460000
_cell_length_c   13.06120000
_cell_angle_alpha   61.49400000
_cell_angle_beta   83.55000000
_cell_angle_gamma   81.01700000
_symmetry_Int_Tables_number   1
_chemical_formula_structural   MnH19C26N2(OF3)4
_chemical_formula_sum   'Mn2 H38 C52 N4 O8 F24'
_cell_volume   1511.81380907
_cell_formula_units_Z   2
loop_
 _symmetry_equiv_pos_site_id
 _symmetry_equiv_pos_as_xyz
  1  'x, y, z'
loop_
 _atom_site_type_symbol
 _atom_site_label
 _atom_site_symmetry_multiplicity
 _atom_site_fract_x
 _atom_site_fract_y
 _atom_site_fract_z
 _atom_site_occupancy
  Mn  Mn1  1  0.014650  0.996490  0.243830  1.0
  Mn  Mn2  1  0.985350  0.003510  0.756170  1.0
  H  H3  1  0.998600  0.882300  0.077000  1.0
  H  H4  1  0.001400  0.117700  0.923000  1.0
  H  H5  1  0.101900  0.733600  0.037400  1.0
  H  H6  1  0.898100  0.266400  0.962600  1.0
  H  H7  1  0.276700  0.827900  0.286500  1.0
  H  H8  1  0.723300  0.172100  0.713500  1.0
  H  H9  1  0.385600  0.676300  0.253400  1.0
  H  H10  1  0.614400  0.323700  0.746600  1.0
  H  H11  1  0.411500  0.579500  0.119200  1.0
  H  H12  1  0.588500  0.420500  0.880800  1.0
  H  H13  1  0.280600  0.581400  0.061800  1.0
  H  H14  1  0.719400  0.418600  0.938200  1.0
  H  H15  1  0.328200  0.396000  0.231000  1.0
  H  H16  1  0.671800  0.604000  0.769000  1.0
  H  H17  1  0.318400  0.461900  0.309000  1.0
  H  H18  1  0.681600  0.538100  0.691000  1.0
  H  H19  1  0.090300  0.528000  0.261500  1.0
  H  H20  1  0.909700  0.472000  0.738500  1.0
  H  H21  1  0.102800  0.450600  0.194800  1.0
  H  H22  1  0.897200  0.549400  0.805200  1.0
  H  H23  1  0.015500  0.267400  0.305000  1.0
  H  H24  1  0.984500  0.732600  0.695000  1.0
  H  H25  1  0.038200  0.888800  0.520200  1.0
  H  H26  1  0.961800  0.111200  0.479800  1.0
  H  H27  1  0.878200  0.766900  0.346900  1.0
  H  H28  1  0.121800  0.233100  0.653100  1.0
  H  H29  1  0.173400  0.395700  0.483200  1.0
  H  H30  1  0.826600  0.604300  0.516800  1.0
  H  H31  1  0.598200  0.169500  0.162000  1.0
  H  H32  1  0.401800  0.830500  0.838000  1.0
  H  H33  1  0.335100  0.223200  0.177400  1.0
  H  H34  1  0.664900  0.776800  0.822600  1.0
  H  H35  1  0.633300  0.639500  0.371600  1.0
  H  H36  1  0.366700  0.360500  0.628400  1.0
  H  H37  1  0.661000  0.454500  0.387100  1.0
  H  H38  1  0.339000  0.545500  0.612900  1.0
  H  H39  1  0.476400  0.683800  0.493800  1.0
  H  H40  1  0.523600  0.316200  0.506200  1.0
  C  C41  1  0.078200  0.839500  0.114100  1.0
  C  C42  1  0.921800  0.160500  0.885900  1.0
  C  C43  1  0.139100  0.750200  0.090600  1.0
  C  C44  1  0.860900  0.249800  0.909400  1.0
  C  C45  1  0.253400  0.685100  0.143800  1.0
  C  C46  1  0.746600  0.314900  0.856200  1.0
  C  C47  1  0.239600  0.807700  0.236000  1.0
  C  C48  1  0.760400  0.192300  0.764000  1.0
  C  C49  1  0.305200  0.716900  0.216700  1.0
  C  C50  1  0.694800  0.283100  0.783300  1.0
  C  C51  1  0.314700  0.578700  0.131100  1.0
  C  C52  1  0.685300  0.421300  0.868900  1.0
  C  C53  1  0.283400  0.464600  0.240000  1.0
  C  C54  1  0.716600  0.535400  0.760000  1.0
  C  C55  1  0.135900  0.455400  0.260500  1.0
  C  C56  1  0.864100  0.544600  0.739500  1.0
  C  C57  1  0.101700  0.349900  0.373100  1.0
  C  C58  1  0.898300  0.650100  0.626900  1.0
  C  C59  1  0.037900  0.262800  0.375700  1.0
  C  C60  1  0.962100  0.737200  0.624300  1.0
  C  C61  1  0.993200  0.830700  0.519400  1.0
  C  C62  1  0.006800  0.169300  0.480600  1.0
  C  C63  1  0.901200  0.759600  0.418700  1.0
  C  C64  1  0.098800  0.240400  0.581300  1.0
  C  C65  1  0.131100  0.337300  0.480100  1.0
  C  C66  1  0.868900  0.662700  0.519900  1.0
  C  C67  1  0.730600  0.038100  0.158400  1.0
  C  C68  1  0.269400  0.961900  0.841600  1.0
  C  C69  1  0.685800  0.132300  0.180500  1.0
  C  C70  1  0.314200  0.867700  0.819500  1.0
  C  C71  1  0.764600  0.173900  0.228600  1.0
  C  C72  1  0.235400  0.826100  0.771400  1.0
  C  C73  1  0.633400  0.993200  0.112900  1.0
  C  C74  1  0.366600  0.006800  0.887100  1.0
  C  C75  1  0.708300  0.281400  0.244700  1.0
  C  C76  1  0.291700  0.718600  0.755300  1.0
  C  C77  1  0.190400  0.200000  0.098300  1.0
  C  C78  1  0.809600  0.800000  0.901700  1.0
  C  C79  1  0.269600  0.173800  0.190000  1.0
  C  C80  1  0.730400  0.826200  0.810000  1.0
  C  C81  1  0.255000  0.077300  0.298900  1.0
  C  C82  1  0.745000  0.922700  0.701100  1.0
  C  C83  1  0.212500  0.311600  0.985100  1.0
  C  C84  1  0.787500  0.688400  0.014900  1.0
  C  C85  1  0.351100  0.051000  0.392200  1.0
  C  C86  1  0.648900  0.949000  0.607800  1.0
  C  C87  1  0.579000  0.582100  0.425300  1.0
  C  C88  1  0.421000  0.417900  0.574700  1.0
  C  C89  1  0.593200  0.473400  0.433300  1.0
  C  C90  1  0.406800  0.526600  0.566700  1.0
  C  C91  1  0.485400  0.609100  0.495500  1.0
  C  C92  1  0.514600  0.390900  0.504500  1.0
  N  N93  1  0.125800  0.868800  0.186600  1.0
  N  N94  1  0.874200  0.131200  0.813400  1.0
  N  N95  1  0.963500  0.844300  0.415700  1.0
  N  N96  1  0.036500  0.155700  0.584300  1.0
  O  O97  1  0.843400  0.983300  0.170580  1.0
  O  O98  1  0.156600  0.016700  0.829420  1.0
  O  O99  1  0.880200  0.135000  0.261500  1.0
  O  O100  1  0.119800  0.865000  0.738500  1.0
  O  O101  1  0.100400  0.146700  0.097250  1.0
  O  O102  1  0.899600  0.853300  0.902750  1.0
  O  O103  1  0.173200  0.005130  0.332570  1.0
  O  O104  1  0.826800  0.994870  0.667430  1.0
  F  F105  1  0.590200  0.899800  0.194600  1.0
  F  F106  1  0.409800  0.100200  0.805400  1.0
  F  F107  1  0.530100  0.069900  0.068600  1.0
  F  F108  1  0.469900  0.930100  0.931400  1.0
  F  F109  1  0.685600  0.970300  0.029700  1.0
  F  F110  1  0.314400  0.029700  0.970300  1.0
  F  F111  1  0.588500  0.327500  0.203600  1.0
  F  F112  1  0.411500  0.672500  0.796400  1.0
  F  F113  1  0.784700  0.366700  0.189800  1.0
  F  F114  1  0.215300  0.633300  0.810200  1.0
  F  F115  1  0.703100  0.255900  0.355100  1.0
  F  F116  1  0.296900  0.744100  0.644900  1.0
  F  F117  1  0.190900  0.304400  0.892800  1.0
  F  F118  1  0.809100  0.695600  0.107200  1.0
  F  F119  1  0.120600  0.397600  0.977900  1.0
  F  F120  1  0.879400  0.602400  0.022100  1.0
  F  F121  1  0.322400  0.349900  0.971500  1.0
  F  F122  1  0.677600  0.650100  0.028500  1.0
  F  F123  1  0.415900  0.141700  0.367600  1.0
  F  F124  1  0.584100  0.858300  0.632400  1.0
  F  F125  1  0.442300  0.963800  0.401800  1.0
  F  F126  1  0.557700  0.036200  0.598200  1.0
  F  F127  1  0.291800  0.019900  0.495560  1.0
  F  F128  1  0.708200  0.980100  0.504440  1.0
