# generated using pymatgen
data_ZnH18C26S2N2(O4F3)2
_symmetry_space_group_name_H-M   'P 1'
_cell_length_a   10.02800000
_cell_length_b   14.93100000
_cell_length_c   19.34200000
_cell_angle_alpha   90.00000000
_cell_angle_beta   90.00000000
_cell_angle_gamma   90.00000000
_symmetry_Int_Tables_number   1
_chemical_formula_structural   ZnH18C26S2N2(O4F3)2
_chemical_formula_sum   'Zn4 H72 C104 S8 N8 O32 F24'
_cell_volume   2896.04029126
_cell_formula_units_Z   4
loop_
 _symmetry_equiv_pos_site_id
 _symmetry_equiv_pos_as_xyz
  1  'x, y, z'
loop_
 _atom_site_type_symbol
 _atom_site_label
 _atom_site_symmetry_multiplicity
 _atom_site_fract_x
 _atom_site_fract_y
 _atom_site_fract_z
 _atom_site_occupancy
  Zn  Zn1  1  0.000000  0.000000  0.000000  1
  Zn  Zn2  1  0.500000  0.000000  0.500000  1
  Zn  Zn3  1  0.000000  0.500000  0.500000  1
  Zn  Zn4  1  0.500000  0.500000  0.000000  1
  H  H5  1  0.595000  0.945600  0.133200  1.0
  H  H6  1  0.905000  0.054400  0.633200  1.0
  H  H7  1  0.405000  0.445600  0.366800  1.0
  H  H8  1  0.095000  0.554400  0.866800  1.0
  H  H9  1  0.405000  0.054400  0.866800  1.0
  H  H10  1  0.095000  0.945600  0.366800  1.0
  H  H11  1  0.595000  0.554400  0.633200  1.0
  H  H12  1  0.905000  0.445600  0.133200  1.0
  H  H13  1  0.543900  0.802400  0.091900  1.0
  H  H14  1  0.956100  0.197600  0.591900  1.0
  H  H15  1  0.456100  0.302400  0.408100  1.0
  H  H16  1  0.043900  0.697600  0.908100  1.0
  H  H17  1  0.456100  0.197600  0.908100  1.0
  H  H18  1  0.043900  0.802400  0.408100  1.0
  H  H19  1  0.543900  0.697600  0.591900  1.0
  H  H20  1  0.956100  0.302400  0.091900  1.0
  H  H21  1  0.673800  0.740800  0.006300  1.0
  H  H22  1  0.826200  0.259200  0.506300  1.0
  H  H23  1  0.326200  0.240800  0.493700  1.0
  H  H24  1  0.173800  0.759200  0.993700  1.0
  H  H25  1  0.326200  0.259200  0.993700  1.0
  H  H26  1  0.173800  0.740800  0.493700  1.0
  H  H27  1  0.673800  0.759200  0.506300  1.0
  H  H28  1  0.826200  0.240800  0.006300  1.0
  H  H29  1  0.861400  0.816300  0.968400  1.0
  H  H30  1  0.638600  0.183700  0.468400  1.0
  H  H31  1  0.138600  0.316300  0.531600  1.0
  H  H32  1  0.361400  0.683700  0.031600  1.0
  H  H33  1  0.138600  0.183700  0.031600  1.0
  H  H34  1  0.361400  0.816300  0.531600  1.0
  H  H35  1  0.861400  0.683700  0.468400  1.0
  H  H36  1  0.638600  0.316300  0.968400  1.0
  H  H37  1  0.541900  0.088900  0.080100  1.0
  H  H38  1  0.958100  0.911100  0.580100  1.0
  H  H39  1  0.458100  0.588900  0.419900  1.0
  H  H40  1  0.041900  0.411100  0.919900  1.0
  H  H41  1  0.458100  0.911100  0.919900  1.0
  H  H42  1  0.041900  0.088900  0.419900  1.0
  H  H43  1  0.541900  0.411100  0.580100  1.0
  H  H44  1  0.958100  0.588900  0.080100  1.0
  H  H45  1  0.417500  0.201800  0.132000  1.0
  H  H46  1  0.082500  0.798200  0.632000  1.0
  H  H47  1  0.582500  0.701800  0.368000  1.0
  H  H48  1  0.917500  0.298200  0.868000  1.0
  H  H49  1  0.582500  0.798200  0.868000  1.0
  H  H50  1  0.917500  0.201800  0.368000  1.0
  H  H51  1  0.417500  0.298200  0.632000  1.0
  H  H52  1  0.082500  0.701800  0.132000  1.0
  H  H53  1  0.508300  0.286900  0.218100  1.0
  H  H54  1  0.991700  0.713100  0.718100  1.0
  H  H55  1  0.491700  0.786900  0.281900  1.0
  H  H56  1  0.008300  0.213100  0.781900  1.0
  H  H57  1  0.491700  0.713100  0.781900  1.0
  H  H58  1  0.008300  0.286900  0.281900  1.0
  H  H59  1  0.508300  0.213100  0.718100  1.0
  H  H60  1  0.991700  0.786900  0.218100  1.0
  H  H61  1  0.724400  0.264800  0.253300  1.0
  H  H62  1  0.775600  0.735200  0.753300  1.0
  H  H63  1  0.275600  0.764800  0.246700  1.0
  H  H64  1  0.224400  0.235200  0.746700  1.0
  H  H65  1  0.275600  0.735200  0.746700  1.0
  H  H66  1  0.224400  0.264800  0.246700  1.0
  H  H67  1  0.724400  0.235200  0.753300  1.0
  H  H68  1  0.775600  0.764800  0.253300  1.0
  H  H69  1  0.856400  0.160400  0.197200  1.0
  H  H70  1  0.643600  0.839600  0.697200  1.0
  H  H71  1  0.143600  0.660400  0.302800  1.0
  H  H72  1  0.356400  0.339600  0.802800  1.0
  H  H73  1  0.143600  0.839600  0.802800  1.0
  H  H74  1  0.356400  0.160400  0.302800  1.0
  H  H75  1  0.856400  0.339600  0.697200  1.0
  H  H76  1  0.643600  0.660400  0.197200  1.0
  C  C77  1  0.757800  0.961800  0.073000  1.0
  C  C78  1  0.742200  0.038200  0.573000  1.0
  C  C79  1  0.242200  0.461800  0.427000  1.0
  C  C80  1  0.257800  0.538200  0.927000  1.0
  C  C81  1  0.242200  0.038200  0.927000  1.0
  C  C82  1  0.257800  0.961800  0.427000  1.0
  C  C83  1  0.757800  0.538200  0.573000  1.0
  C  C84  1  0.742200  0.461800  0.073000  1.0
  C  C85  1  0.647400  0.918700  0.099400  1.0
  C  C86  1  0.852600  0.081300  0.599400  1.0
  C  C87  1  0.352600  0.418700  0.400600  1.0
  C  C88  1  0.147400  0.581300  0.900600  1.0
  C  C89  1  0.352600  0.081300  0.900600  1.0
  C  C90  1  0.147400  0.918700  0.400600  1.0
  C  C91  1  0.647400  0.581300  0.599400  1.0
  C  C92  1  0.852600  0.418700  0.099400  1.0
  C  C93  1  0.616700  0.833700  0.074400  1.0
  C  C94  1  0.883300  0.166300  0.574400  1.0
  C  C95  1  0.383300  0.333700  0.425600  1.0
  C  C96  1  0.116700  0.666300  0.925600  1.0
  C  C97  1  0.383300  0.166300  0.925600  1.0
  C  C98  1  0.116700  0.833700  0.425600  1.0
  C  C99  1  0.616700  0.666300  0.574400  1.0
  C  C100  1  0.883300  0.333700  0.074400  1.0
  C  C101  1  0.695300  0.796300  0.025000  1.0
  C  C102  1  0.804700  0.203700  0.525000  1.0
  C  C103  1  0.304700  0.296300  0.475000  1.0
  C  C104  1  0.195300  0.703700  0.975000  1.0
  C  C105  1  0.304700  0.203700  0.975000  1.0
  C  C106  1  0.195300  0.796300  0.475000  1.0
  C  C107  1  0.695300  0.703700  0.525000  1.0
  C  C108  1  0.804700  0.296300  0.025000  1.0
  C  C109  1  0.806300  0.842700  0.001300  1.0
  C  C110  1  0.693700  0.157300  0.501300  1.0
  C  C111  1  0.193700  0.342700  0.498700  1.0
  C  C112  1  0.306300  0.657300  0.998700  1.0
  C  C113  1  0.193700  0.157300  0.998700  1.0
  C  C114  1  0.306300  0.842700  0.498700  1.0
  C  C115  1  0.806300  0.657300  0.501300  1.0
  C  C116  1  0.693700  0.342700  0.001300  1.0
  C  C117  1  0.801800  0.053200  0.094970  1.0
  C  C118  1  0.698200  0.946800  0.594970  1.0
  C  C119  1  0.198200  0.553200  0.405030  1.0
  C  C120  1  0.301800  0.446800  0.905030  1.0
  C  C121  1  0.198200  0.946800  0.905030  1.0
  C  C122  1  0.301800  0.053200  0.405030  1.0
  C  C123  1  0.801800  0.446800  0.594970  1.0
  C  C124  1  0.698200  0.553200  0.094970  1.0
  C  C125  1  0.713000  0.114600  0.133100  1.0
  C  C126  1  0.787000  0.885400  0.633100  1.0
  C  C127  1  0.287000  0.614600  0.366900  1.0
  C  C128  1  0.213000  0.385400  0.866900  1.0
  C  C129  1  0.287000  0.885400  0.866900  1.0
  C  C130  1  0.213000  0.114600  0.366900  1.0
  C  C131  1  0.713000  0.385400  0.633100  1.0
  C  C132  1  0.787000  0.614600  0.133100  1.0
  C  C133  1  0.580100  0.125500  0.113600  1.0
  C  C134  1  0.919900  0.874500  0.613600  1.0
  C  C135  1  0.419900  0.625500  0.386400  1.0
  C  C136  1  0.080100  0.374500  0.886400  1.0
  C  C137  1  0.419900  0.874500  0.886400  1.0
  C  C138  1  0.080100  0.125500  0.386400  1.0
  C  C139  1  0.580100  0.374500  0.613600  1.0
  C  C140  1  0.919900  0.625500  0.113600  1.0
  C  C141  1  0.505100  0.191100  0.145600  1.0
  C  C142  1  0.994900  0.808900  0.645600  1.0
  C  C143  1  0.494900  0.691100  0.354400  1.0
  C  C144  1  0.005100  0.308900  0.854400  1.0
  C  C145  1  0.494900  0.808900  0.854400  1.0
  C  C146  1  0.005100  0.191100  0.354400  1.0
  C  C147  1  0.505100  0.308900  0.645600  1.0
  C  C148  1  0.994900  0.691100  0.145600  1.0
  C  C149  1  0.559300  0.243200  0.196400  1.0
  C  C150  1  0.940700  0.756800  0.696400  1.0
  C  C151  1  0.440700  0.743200  0.303600  1.0
  C  C152  1  0.059300  0.256800  0.803600  1.0
  C  C153  1  0.440700  0.756800  0.803600  1.0
  C  C154  1  0.059300  0.243200  0.303600  1.0
  C  C155  1  0.559300  0.256800  0.696400  1.0
  C  C156  1  0.940700  0.743200  0.196400  1.0
  C  C157  1  0.689400  0.231000  0.217100  1.0
  C  C158  1  0.810600  0.769000  0.717100  1.0
  C  C159  1  0.310600  0.731000  0.282900  1.0
  C  C160  1  0.189400  0.269000  0.782900  1.0
  C  C161  1  0.310600  0.769000  0.782900  1.0
  C  C162  1  0.189400  0.231000  0.282900  1.0
  C  C163  1  0.689400  0.269000  0.717100  1.0
  C  C164  1  0.810600  0.731000  0.217100  1.0
  C  C165  1  0.767500  0.167600  0.184600  1.0
  C  C166  1  0.732500  0.832400  0.684600  1.0
  C  C167  1  0.232500  0.667600  0.315400  1.0
  C  C168  1  0.267500  0.332400  0.815400  1.0
  C  C169  1  0.232500  0.832400  0.815400  1.0
  C  C170  1  0.267500  0.167600  0.315400  1.0
  C  C171  1  0.767500  0.332400  0.684600  1.0
  C  C172  1  0.732500  0.667600  0.184600  1.0
  C  C173  1  0.231400  0.979700  0.177800  1.0
  C  C174  1  0.268600  0.020300  0.677800  1.0
  C  C175  1  0.768600  0.479700  0.322200  1.0
  C  C176  1  0.731400  0.520300  0.822200  1.0
  C  C177  1  0.768600  0.020300  0.822200  1.0
  C  C178  1  0.731400  0.979700  0.322200  1.0
  C  C179  1  0.231400  0.520300  0.677800  1.0
  C  C180  1  0.268600  0.479700  0.177800  1.0
  S  S181  1  0.246030  0.912120  0.100770  1.0
  S  S182  1  0.253970  0.087880  0.600770  1.0
  S  S183  1  0.753970  0.412120  0.399230  1.0
  S  S184  1  0.746030  0.587880  0.899230  1.0
  S  S185  1  0.753970  0.087880  0.899230  1.0
  S  S186  1  0.746030  0.912120  0.399230  1.0
  S  S187  1  0.246030  0.587880  0.600770  1.0
  S  S188  1  0.253970  0.412120  0.100770  1.0
  N  N189  1  0.836900  0.924000  0.025130  1.0
  N  N190  1  0.663100  0.076000  0.525130  1.0
  N  N191  1  0.163100  0.424000  0.474870  1.0
  N  N192  1  0.336900  0.576000  0.974870  1.0
  N  N193  1  0.163100  0.076000  0.974870  1.0
  N  N194  1  0.336900  0.924000  0.474870  1.0
  N  N195  1  0.836900  0.576000  0.525130  1.0
  N  N196  1  0.663100  0.424000  0.025130  1.0
  O  O197  1  0.915100  0.078050  0.080090  1.0
  O  O198  1  0.584900  0.921950  0.580090  1.0
  O  O199  1  0.084900  0.578050  0.419910  1.0
  O  O200  1  0.415100  0.421950  0.919910  1.0
  O  O201  1  0.084900  0.921950  0.919910  1.0
  O  O202  1  0.415100  0.078050  0.419910  1.0
  O  O203  1  0.915100  0.421950  0.580090  1.0
  O  O204  1  0.584900  0.578050  0.080090  1.0
  O  O205  1  0.112400  0.915940  0.071830  1.0
  O  O206  1  0.387600  0.084060  0.571830  1.0
  O  O207  1  0.887600  0.415940  0.428170  1.0
  O  O208  1  0.612400  0.584060  0.928170  1.0
  O  O209  1  0.887600  0.084060  0.928170  1.0
  O  O210  1  0.612400  0.915940  0.428170  1.0
  O  O211  1  0.112400  0.584060  0.571830  1.0
  O  O212  1  0.387600  0.415940  0.071830  1.0
  O  O213  1  0.345100  0.956800  0.060530  1.0
  O  O214  1  0.154900  0.043200  0.560530  1.0
  O  O215  1  0.654900  0.456800  0.439470  1.0
  O  O216  1  0.845100  0.543200  0.939470  1.0
  O  O217  1  0.654900  0.043200  0.939470  1.0
  O  O218  1  0.845100  0.956800  0.439470  1.0
  O  O219  1  0.345100  0.543200  0.560530  1.0
  O  O220  1  0.154900  0.456800  0.060530  1.0
  O  O221  1  0.281600  0.825100  0.125950  1.0
  O  O222  1  0.218400  0.174900  0.625950  1.0
  O  O223  1  0.718400  0.325100  0.374050  1.0
  O  O224  1  0.781600  0.674900  0.874050  1.0
  O  O225  1  0.718400  0.174900  0.874050  1.0
  O  O226  1  0.781600  0.825100  0.374050  1.0
  O  O227  1  0.281600  0.674900  0.625950  1.0
  O  O228  1  0.218400  0.325100  0.125950  1.0
  F  F229  1  0.139300  0.949000  0.220010  1.0
  F  F230  1  0.360700  0.051000  0.720010  1.0
  F  F231  1  0.860700  0.449000  0.279990  1.0
  F  F232  1  0.639300  0.551000  0.779990  1.0
  F  F233  1  0.860700  0.051000  0.779990  1.0
  F  F234  1  0.639300  0.949000  0.279990  1.0
  F  F235  1  0.139300  0.551000  0.720010  1.0
  F  F236  1  0.360700  0.449000  0.220010  1.0
  F  F237  1  0.344900  0.981500  0.212540  1.0
  F  F238  1  0.155100  0.018500  0.712540  1.0
  F  F239  1  0.655100  0.481500  0.287460  1.0
  F  F240  1  0.844900  0.518500  0.787460  1.0
  F  F241  1  0.655100  0.018500  0.787460  1.0
  F  F242  1  0.844900  0.981500  0.287460  1.0
  F  F243  1  0.344900  0.518500  0.712540  1.0
  F  F244  1  0.155100  0.481500  0.212540  1.0
  F  F245  1  0.199200  0.063400  0.161990  1.0
  F  F246  1  0.300800  0.936600  0.661990  1.0
  F  F247  1  0.800800  0.563400  0.338010  1.0
  F  F248  1  0.699200  0.436600  0.838010  1.0
  F  F249  1  0.800800  0.936600  0.838010  1.0
  F  F250  1  0.699200  0.063400  0.338010  1.0
  F  F251  1  0.199200  0.436600  0.661990  1.0
  F  F252  1  0.300800  0.563400  0.161990  1.0
