# generated using pymatgen
data_AgPH20C19N5F6
_symmetry_space_group_name_H-M   'P 1'
_cell_length_a   8.79900000
_cell_length_b   9.90700000
_cell_length_c   13.85300000
_cell_angle_alpha   98.37000000
_cell_angle_beta   101.74000000
_cell_angle_gamma   102.62000000
_symmetry_Int_Tables_number   1
_chemical_formula_structural   AgPH20C19N5F6
_chemical_formula_sum   'Ag2 P2 H40 C38 N10 F12'
_cell_volume   1130.71457890
_cell_formula_units_Z   2
loop_
 _symmetry_equiv_pos_site_id
 _symmetry_equiv_pos_as_xyz
  1  'x, y, z'
loop_
 _atom_site_type_symbol
 _atom_site_label
 _atom_site_symmetry_multiplicity
 _atom_site_fract_x
 _atom_site_fract_y
 _atom_site_fract_z
 _atom_site_occupancy
  Ag  Ag1  1  0.000110  0.450120  0.217460  1.0
  Ag  Ag2  1  0.999890  0.549880  0.782540  1.0
  P  P3  1  0.000000  0.500000  0.500000  1
  P  P4  1  0.500000  0.000000  0.000000  1
  H  H5  1  0.546400  0.660300  0.063500  1.0
  H  H6  1  0.453600  0.339700  0.936500  1.0
  H  H7  1  0.888200  0.127600  0.507300  1.0
  H  H8  1  0.111800  0.872400  0.492700  1.0
  H  H9  1  0.797200  0.639000  0.333500  1.0
  H  H10  1  0.202800  0.361000  0.666500  1.0
  H  H11  1  0.447800  0.708800  0.259900  1.0
  H  H12  1  0.552200  0.291200  0.740100  1.0
  H  H13  1  0.534000  0.838900  0.223500  1.0
  H  H14  1  0.466000  0.161100  0.776500  1.0
  H  H15  1  0.732300  0.512400  0.038100  1.0
  H  H16  1  0.267700  0.487600  0.961900  1.0
  H  H17  1  0.424500  0.606600  0.358100  1.0
  H  H18  1  0.575500  0.393400  0.641900  1.0
  H  H19  1  0.495800  0.590500  0.467900  1.0
  H  H20  1  0.504200  0.409500  0.532100  1.0
  H  H21  1  0.351500  0.659800  0.446200  1.0
  H  H22  1  0.648500  0.340200  0.553800  1.0
  H  H23  1  0.747300  0.044700  0.718300  1.0
  H  H24  1  0.252700  0.955300  0.281700  1.0
  H  H25  1  0.914700  0.102700  0.696200  1.0
  H  H26  1  0.085300  0.897300  0.303800  1.0
  H  H27  1  0.777900  0.179500  0.670900  1.0
  H  H28  1  0.222100  0.820500  0.329100  1.0
  H  H29  1  0.761700  0.962900  0.247800  1.0
  H  H30  1  0.238300  0.037100  0.752200  1.0
  H  H31  1  0.792600  0.117500  0.307300  1.0
  H  H32  1  0.207400  0.882500  0.692700  1.0
  H  H33  1  0.927200  0.036500  0.324300  1.0
  H  H34  1  0.072800  0.963500  0.675700  1.0
  H  H35  1  0.823800  0.736300  0.642600  1.0
  H  H36  1  0.176200  0.263700  0.357400  1.0
  H  H37  1  0.430900  0.773800  0.599500  1.0
  H  H38  1  0.569100  0.226200  0.400500  1.0
  H  H39  1  0.532500  0.912800  0.673300  1.0
  H  H40  1  0.467500  0.087200  0.326700  1.0
  H  H41  1  0.305400  0.400000  0.124200  1.0
  H  H42  1  0.694600  0.600000  0.875800  1.0
  H  H43  1  0.483100  0.706700  0.795500  1.0
  H  H44  1  0.516900  0.293300  0.204500  1.0
  C  C45  1  0.891900  0.279000  0.931800  1
  C  C46  1  0.108100  0.721000  0.068200  1
  C  C47  1  0.956800  0.162600  0.964500  1
  C  C48  1  0.043200  0.837400  0.035500  1
  C  C49  1  0.568200  0.791800  0.449300  1.0
  C  C50  1  0.431800  0.208200  0.550700  1.0
  C  C51  1  0.623700  0.639500  0.115100  1.0
  C  C52  1  0.376300  0.360500  0.884900  1.0
  C  C53  1  0.738800  0.997100  0.568200  1.0
  C  C54  1  0.261200  0.002900  0.431800  1.0
  C  C55  1  0.619900  0.872700  0.547900  1.0
  C  C56  1  0.380100  0.127300  0.452100  1.0
  C  C57  1  0.626800  0.843800  0.371700  1.0
  C  C58  1  0.373200  0.156200  0.628300  1.0
  C  C59  1  0.745700  0.968200  0.391700  1.0
  C  C60  1  0.254300  0.031800  0.608300  1.0
  C  C61  1  0.803400  0.042400  0.491500  1.0
  C  C62  1  0.196600  0.957600  0.508500  1.0
  C  C63  1  0.756400  0.624000  0.262000  1.0
  C  C64  1  0.243600  0.376000  0.738000  1.0
  C  C65  1  0.550900  0.769400  0.263200  1.0
  C  C66  1  0.449100  0.230600  0.736800  1.0
  C  C67  1  0.720400  0.554600  0.102100  1.0
  C  C68  1  0.279600  0.445400  0.897900  1.0
  C  C69  1  0.448600  0.649400  0.428100  1.0
  C  C70  1  0.551400  0.350600  0.571900  1.0
  C  C71  1  0.800900  0.089500  0.673100  1.0
  C  C72  1  0.199100  0.910500  0.326900  1.0
  C  C73  1  0.813500  0.027000  0.310700  1.0
  C  C74  1  0.186500  0.973000  0.689300  1.0
  C  C75  1  0.761300  0.712000  0.689800  1.0
  C  C76  1  0.238700  0.288000  0.310200  1.0
  C  C77  1  0.538400  0.829500  0.630600  1.0
  C  C78  1  0.461600  0.170500  0.369400  1.0
  C  C79  1  0.310800  0.362600  0.184700  1.0
  C  C80  1  0.689200  0.637400  0.815300  1.0
  C  C81  1  0.578400  0.699800  0.773600  1.0
  C  C82  1  0.421600  0.300200  0.226400  1.0
  N  N83  1  0.838400  0.363400  0.905800  1
  N  N84  1  0.161600  0.636600  0.094200  1
  N  N85  1  0.806700  0.545500  0.194600  1.0
  N  N86  1  0.193300  0.454500  0.805400  1.0
  N  N87  1  0.644800  0.683100  0.217000  1.0
  N  N88  1  0.355200  0.316900  0.783000  1.0
  N  N89  1  0.627100  0.749200  0.694200  1.0
  N  N90  1  0.372900  0.250800  0.305800  1.0
  N  N91  1  0.195600  0.354800  0.238600  1.0
  N  N92  1  0.804400  0.645200  0.761400  1.0
  F  F93  1  0.064500  0.592700  0.424200  1.0
  F  F94  1  0.935500  0.407300  0.575800  1.0
  F  F95  1  0.856200  0.571500  0.497100  1.0
  F  F96  1  0.143800  0.428500  0.502900  1.0
  F  F97  1  0.105700  0.616000  0.593400  1.0
  F  F98  1  0.894300  0.384000  0.406600  1.0
  F  F99  1  0.450900  0.988400  0.103600  1.0
  F  F100  1  0.549100  0.011600  0.896400  1.0
  F  F101  1  0.651900  0.944600  0.037300  1.0
  F  F102  1  0.348100  0.055400  0.962700  1.0
  F  F103  1  0.401200  0.842400  0.954800  1.0
  F  F104  1  0.598800  0.157600  0.045200  1.0
