# generated using pymatgen
data_ZrSi2H40C53
_symmetry_space_group_name_H-M   'P 1'
_cell_length_a   14.83620000
_cell_length_b   15.60778324
_cell_length_c   22.55750000
_cell_angle_alpha   84.74668553
_cell_angle_beta   78.89300000
_cell_angle_gamma   61.62228086
_symmetry_Int_Tables_number   1
_chemical_formula_structural   ZrSi2H40C53
_chemical_formula_sum   'Zr4 Si8 H160 C212'
_cell_volume   4509.65673431
_cell_formula_units_Z   4
loop_
 _symmetry_equiv_pos_site_id
 _symmetry_equiv_pos_as_xyz
  1  'x, y, z'
loop_
 _atom_site_type_symbol
 _atom_site_label
 _atom_site_symmetry_multiplicity
 _atom_site_fract_x
 _atom_site_fract_y
 _atom_site_fract_z
 _atom_site_occupancy
  C  C1  1  0.347000  0.004000  0.905000  1
  C  C2  1  0.649000  0.004000  0.595000  1
  C  C3  1  0.653000  0.996000  0.095000  1
  C  C4  1  0.351000  0.996000  0.405000  1
  C  C5  1  0.344400  0.033200  0.845000  1
  C  C6  1  0.622400  0.033200  0.655000  1
  C  C7  1  0.655600  0.966800  0.155000  1
  C  C8  1  0.377600  0.966800  0.345000  1
  C  C9  1  0.356000  0.970000  0.801300  1
  C  C10  1  0.674000  0.970000  0.698700  1
  C  C11  1  0.644000  0.030000  0.198700  1
  C  C12  1  0.326000  0.030000  0.301300  1
  C  C13  1  0.371000  0.876000  0.818000  1
  C  C14  1  0.753000  0.876000  0.682000  1
  C  C15  1  0.629000  0.124000  0.182000  1
  C  C16  1  0.247000  0.124000  0.318000  1
  C  C17  1  0.374000  0.846000  0.878000  1
  C  C18  1  0.780000  0.846000  0.622000  1
  C  C19  1  0.626000  0.154000  0.122000  1
  C  C20  1  0.220000  0.154000  0.378000  1
  C  C21  1  0.362000  0.910000  0.921600  1
  C  C22  1  0.728000  0.910000  0.578400  1
  C  C23  1  0.638000  0.090000  0.078400  1
  C  C24  1  0.272000  0.090000  0.421600  1
  C  C25  1  0.438000  0.124000  0.750000  1
  C  C26  1  0.562000  0.876000  0.250000  1
  C  C27  1  0.344000  0.312000  0.750000  1
  C  C28  1  0.656000  0.688000  0.250000  1
  C  C29  1  0.098000  0.804000  0.750000  1
  C  C30  1  0.902000  0.196000  0.250000  1
  C  C31  1  0.002000  0.996000  0.750000  1
  C  C32  1  0.998000  0.004000  0.250000  1
  C  C33  1  0.072500  0.403000  0.919000  1.0
  C  C34  1  0.524500  0.403000  0.581000  1.0
  C  C35  1  0.927500  0.597000  0.081000  1.0
  C  C36  1  0.475500  0.597000  0.419000  1.0
  C  C37  1  0.122700  0.330600  0.875200  1.0
  C  C38  1  0.546700  0.330600  0.624800  1.0
  C  C39  1  0.877300  0.669400  0.124800  1.0
  C  C40  1  0.453300  0.669400  0.375200  1.0
  C  C41  1  0.125500  0.247000  0.901100  1.0
  C  C42  1  0.627500  0.247000  0.598900  1.0
  C  C43  1  0.874500  0.753000  0.098900  1.0
  C  C44  1  0.372500  0.753000  0.401100  1.0
  C  C45  1  0.079700  0.266600  0.960100  1.0
  C  C46  1  0.653700  0.266600  0.539900  1.0
  C  C47  1  0.920300  0.733400  0.039900  1.0
  C  C48  1  0.346300  0.733400  0.460100  1.0
  C  C49  1  0.046200  0.363600  0.971600  1.0
  C  C50  1  0.590200  0.363600  0.528400  1.0
  C  C51  1  0.953800  0.636400  0.028400  1.0
  C  C52  1  0.409800  0.636400  0.471600  1.0
  C  C53  1  0.834900  0.338200  0.830100  1.0
  C  C54  1  0.826900  0.338200  0.669900  1.0
  C  C55  1  0.165100  0.661800  0.169900  1.0
  C  C56  1  0.173100  0.661800  0.330100  1.0
  C  C57  1  0.781800  0.339000  0.884700  1.0
  C  C58  1  0.879200  0.339000  0.615300  1.0
  C  C59  1  0.218200  0.661000  0.115300  1.0
  C  C60  1  0.120800  0.661000  0.384700  1.0
  C  C61  1  0.846800  0.254400  0.913200  1.0
  C  C62  1  0.898800  0.254400  0.586800  1.0
  C  C63  1  0.153200  0.745600  0.086800  1.0
  C  C64  1  0.101200  0.745600  0.413200  1.0
  C  C65  1  0.939000  0.204000  0.876800  1.0
  C  C66  1  0.857000  0.204000  0.623200  1.0
  C  C67  1  0.061000  0.796000  0.123200  1.0
  C  C68  1  0.143000  0.796000  0.376800  1.0
  C  C69  1  0.930800  0.258400  0.822800  1.0
  C  C70  1  0.810800  0.258400  0.677200  1.0
  C  C71  1  0.069200  0.741600  0.177200  1.0
  C  C72  1  0.189200  0.741600  0.322800  1.0
  C  C73  1  0.810900  0.458200  0.973700  1.0
  C  C74  1  0.730900  0.458200  0.526300  1.0
  C  C75  1  0.189100  0.541800  0.026300  1.0
  C  C76  1  0.269100  0.541800  0.473700  1.0
  C  C77  1  0.773400  0.547600  0.950000  1.0
  C  C78  1  0.679000  0.547600  0.550000  1.0
  C  C79  1  0.226600  0.452400  0.050000  1.0
  C  C80  1  0.321000  0.452400  0.450000  1.0
  C  C81  1  0.816400  0.573600  0.890100  1.0
  C  C82  1  0.610000  0.573600  0.609900  1.0
  C  C83  1  0.183600  0.426400  0.109900  1.0
  C  C84  1  0.390000  0.426400  0.390100  1.0
  C  C85  1  0.890600  0.502800  0.851000  1.0
  C  C86  1  0.606600  0.502800  0.649000  1.0
  C  C87  1  0.109400  0.497200  0.149000  1.0
  C  C88  1  0.393400  0.497200  0.351000  1.0
  C  C89  1  0.679200  0.632800  0.983600  1.0
  C  C90  1  0.688000  0.632800  0.516400  1.0
  C  C91  1  0.320800  0.367200  0.016400  1.0
  C  C92  1  0.312000  0.367200  0.483600  1.0
  C  C93  1  0.683800  0.704000  0.014800  1.0
  C  C94  1  0.612200  0.704000  0.485200  1.0
  C  C95  1  0.316200  0.296000  0.985200  1.0
  C  C96  1  0.387800  0.296000  0.514800  1.0
  C  C97  1  0.598900  0.774200  0.047600  1.0
  C  C98  1  0.626900  0.774200  0.452400  1.0
  C  C99  1  0.401100  0.225800  0.952400  1.0
  C  C100  1  0.373100  0.225800  0.547600  1.0
  C  C101  1  0.500200  0.777800  0.052800  1.0
  C  C102  1  0.722000  0.777800  0.447200  1.0
  C  C103  1  0.499800  0.222200  0.947200  1.0
  C  C104  1  0.278000  0.222200  0.552800  1.0
  C  C105  1  0.496800  0.707800  0.020100  1.0
  C  C106  1  0.795400  0.707800  0.479900  1.0
  C  C107  1  0.503200  0.292200  0.979900  1.0
  C  C108  1  0.204600  0.292200  0.520100  1.0
  C  C109  1  0.582700  0.637000  0.986700  1.0
  C  C110  1  0.780300  0.637000  0.513300  1.0
  C  C111  1  0.417300  0.363000  0.013300  1.0
  C  C112  1  0.219700  0.363000  0.486700  1.0
  C  C113  1  0.407100  0.850400  0.090700  1.0
  C  C114  1  0.742500  0.850400  0.409300  1.0
  C  C115  1  0.592900  0.149600  0.909300  1.0
  C  C116  1  0.257500  0.149600  0.590700  1.0
  C  C117  1  0.383700  0.947400  0.094000  1.0
  C  C118  1  0.668900  0.947400  0.406000  1.0
  C  C119  1  0.616300  0.052600  0.906000  1.0
  C  C120  1  0.331100  0.052600  0.594000  1.0
  C  C121  1  0.294500  0.015200  0.127000  1.0
  C  C122  1  0.690300  0.015200  0.373000  1.0
  C  C123  1  0.705500  0.984800  0.873000  1.0
  C  C124  1  0.309700  0.984800  0.627000  1.0
  C  C125  1  0.221300  0.987400  0.159500  1.0
  C  C126  1  0.791300  0.987400  0.340500  1.0
  C  C127  1  0.778700  0.012600  0.840500  1.0
  C  C128  1  0.208700  0.012600  0.659500  1.0
  C  C129  1  0.244300  0.891000  0.156800  1.0
  C  C130  1  0.864700  0.891000  0.343200  1.0
  C  C131  1  0.755700  0.109000  0.843200  1.0
  C  C132  1  0.135300  0.109000  0.656800  1.0
  C  C133  1  0.334700  0.822600  0.124000  1.0
  C  C134  1  0.842700  0.822600  0.376000  1.0
  C  C135  1  0.665300  0.177400  0.876000  1.0
  C  C136  1  0.157300  0.177400  0.624000  1.0
  C  C137  1  0.266100  0.119400  0.125500  1.0
  C  C138  1  0.614500  0.119400  0.374500  1.0
  C  C139  1  0.733900  0.880600  0.874500  1.0
  C  C140  1  0.385500  0.880600  0.625500  1.0
  C  C141  1  0.339000  0.152200  0.134100  1.0
  C  C142  1  0.508800  0.152200  0.365900  1.0
  C  C143  1  0.661000  0.847800  0.865900  1.0
  C  C144  1  0.491200  0.847800  0.634100  1.0
  C  C145  1  0.312500  0.248600  0.130700  1.0
  C  C146  1  0.438900  0.248600  0.369300  1.0
  C  C147  1  0.687500  0.751400  0.869300  1.0
  C  C148  1  0.561100  0.751400  0.630700  1.0
  C  C149  1  0.787600  0.680200  0.879200  1.0
  C  C150  1  0.532200  0.680200  0.620800  1.0
  C  C151  1  0.212400  0.319800  0.120800  1.0
  C  C152  1  0.467800  0.319800  0.379200  1.0
  C  C153  1  0.857800  0.711800  0.885700  1.0
  C  C154  1  0.430400  0.711800  0.614300  1.0
  C  C155  1  0.142200  0.288200  0.114300  1.0
  C  C156  1  0.569600  0.288200  0.385700  1.0
  C  C157  1  0.167000  0.193000  0.118600  1.0
  C  C158  1  0.640000  0.193000  0.381400  1.0
  C  C159  1  0.833000  0.807000  0.881400  1.0
  C  C160  1  0.360000  0.807000  0.618600  1.0
  C  C161  1  0.862300  0.313400  0.077800  1.0
  C  C162  1  0.824300  0.313400  0.422200  1.0
  C  C163  1  0.137700  0.686600  0.922200  1.0
  C  C164  1  0.175700  0.686600  0.577800  1.0
  C  C165  1  0.715700  0.516600  0.109900  1.0
  C  C166  1  0.767700  0.516600  0.390100  1.0
  C  C167  1  0.284300  0.483400  0.890100  1.0
  C  C168  1  0.232300  0.483400  0.609900  1.0
  C  C169  1  0.649900  0.398200  0.046100  1.0
  C  C170  1  0.951900  0.398200  0.453900  1.0
  C  C171  1  0.350100  0.601800  0.953900  1.0
  C  C172  1  0.048100  0.601800  0.546100  1.0
  C  C173  1  0.008700  0.418600  0.726000  1.0
  C  C174  1  0.572700  0.418600  0.774000  1.0
  C  C175  1  0.991300  0.581400  0.274000  1.0
  C  C176  1  0.427300  0.581400  0.226000  1.0
  C  C177  1  0.042800  0.570400  0.774000  1.0
  C  C178  1  0.386800  0.570400  0.726000  1.0
  C  C179  1  0.957200  0.429600  0.226000  1.0
  C  C180  1  0.613200  0.429600  0.274000  1.0
  C  C181  1  0.838000  0.620000  0.731000  1.0
  C  C182  1  0.542000  0.620000  0.769000  1.0
  C  C183  1  0.162000  0.380000  0.269000  1.0
  C  C184  1  0.458000  0.380000  0.231000  1.0
  C  C185  1  0.102600  0.988800  0.008000  1.0
  C  C186  1  0.908600  0.988800  0.492000  1.0
  C  C187  1  0.897400  0.011200  0.992000  1.0
  C  C188  1  0.091400  0.011200  0.508000  1.0
  C  C189  1  0.006900  0.038200  0.052000  1.0
  C  C190  1  0.954900  0.038200  0.448000  1.0
  C  C191  1  0.993100  0.961800  0.948000  1.0
  C  C192  1  0.045100  0.961800  0.552000  1.0
  C  C193  1  0.103000  0.948000  0.953000  1.0
  C  C194  1  0.949000  0.948000  0.547000  1.0
  C  C195  1  0.897000  0.052000  0.047000  1.0
  C  C196  1  0.051000  0.052000  0.453000  1.0
  C  C197  1  0.341000  0.194000  0.716000  1.0
  C  C198  1  0.465000  0.194000  0.784000  1.0
  C  C199  1  0.659000  0.806000  0.284000  1.0
  C  C200  1  0.535000  0.806000  0.216000  1.0
  C  C201  1  0.316000  0.270000  0.720000  1.0
  C  C202  1  0.414000  0.270000  0.780000  1.0
  C  C203  1  0.684000  0.730000  0.280000  1.0
  C  C204  1  0.586000  0.730000  0.220000  1.0
  C  C205  1  0.145000  0.846000  0.784000  1.0
  C  C206  1  0.009000  0.846000  0.716000  1.0
  C  C207  1  0.855000  0.154000  0.216000  1.0
  C  C208  1  0.991000  0.154000  0.284000  1.0
  C  C209  1  0.079000  0.954000  0.784000  1.0
  C  C210  1  0.967000  0.954000  0.716000  1.0
  C  C211  1  0.921000  0.046000  0.216000  1.0
  C  C212  1  0.033000  0.046000  0.284000  1.0
  H  H213  1  0.056600  0.470800  0.912900  1.0
  H  H214  1  0.472600  0.470800  0.587100  1.0
  H  H215  1  0.943400  0.529200  0.087100  1.0
  H  H216  1  0.527400  0.529200  0.412900  1.0
  H  H217  1  0.150300  0.340200  0.832700  1.0
  H  H218  1  0.509500  0.340200  0.667300  1.0
  H  H219  1  0.849700  0.659800  0.167300  1.0
  H  H220  1  0.490500  0.659800  0.332700  1.0
  H  H221  1  0.154200  0.184000  0.880800  1.0
  H  H222  1  0.661800  0.184000  0.619200  1.0
  H  H223  1  0.845800  0.816000  0.119200  1.0
  H  H224  1  0.338200  0.816000  0.380800  1.0
  H  H225  1  0.070600  0.220200  0.989600  1.0
  H  H226  1  0.709200  0.220200  0.510400  1.0
  H  H227  1  0.929400  0.779800  0.010400  1.0
  H  H228  1  0.290800  0.779800  0.489600  1.0
  H  H229  1  0.010200  0.400800  0.010600  1.0
  H  H230  1  0.589000  0.400800  0.489400  1.0
  H  H231  1  0.989800  0.599200  0.989400  1.0
  H  H232  1  0.411000  0.599200  0.510600  1.0
  H  H233  1  0.806800  0.391200  0.800500  1.0
  H  H234  1  0.802000  0.391200  0.699500  1.0
  H  H235  1  0.193200  0.608800  0.199500  1.0
  H  H236  1  0.198000  0.608800  0.300500  1.0
  H  H237  1  0.711500  0.389400  0.902100  1.0
  H  H238  1  0.899100  0.389400  0.597900  1.0
  H  H239  1  0.288500  0.610600  0.097900  1.0
  H  H240  1  0.100900  0.610600  0.402100  1.0
  H  H241  1  0.826800  0.235400  0.954200  1.0
  H  H242  1  0.937800  0.235400  0.545800  1.0
  H  H243  1  0.173200  0.764600  0.045800  1.0
  H  H244  1  0.062200  0.764600  0.454200  1.0
  H  H245  1  0.996700  0.144000  0.887800  1.0
  H  H246  1  0.859300  0.144000  0.612200  1.0
  H  H247  1  0.003300  0.856000  0.112200  1.0
  H  H248  1  0.140700  0.856000  0.387800  1.0
  H  H249  1  0.984000  0.240000  0.786300  1.0
  H  H250  1  0.776000  0.240000  0.713700  1.0
  H  H251  1  0.016000  0.760000  0.213700  1.0
  H  H252  1  0.224000  0.760000  0.286300  1.0
  H  H253  1  0.752200  0.701600  0.012500  1.0
  H  H254  1  0.546200  0.701600  0.487500  1.0
  H  H255  1  0.247800  0.298400  0.987500  1.0
  H  H256  1  0.453800  0.298400  0.512500  1.0
  H  H257  1  0.604300  0.825200  0.067500  1.0
  H  H258  1  0.570500  0.825200  0.432500  1.0
  H  H259  1  0.395700  0.174800  0.932500  1.0
  H  H260  1  0.429500  0.174800  0.567500  1.0
  H  H261  1  0.428300  0.710200  0.020400  1.0
  H  H262  1  0.861500  0.710200  0.479600  1.0
  H  H263  1  0.571700  0.289800  0.979600  1.0
  H  H264  1  0.138500  0.289800  0.520400  1.0
  H  H265  1  0.578600  0.587000  0.964600  1.0
  H  H266  1  0.834400  0.587000  0.535400  1.0
  H  H267  1  0.421400  0.413000  0.035400  1.0
  H  H268  1  0.165600  0.413000  0.464600  1.0
  H  H269  1  0.433100  0.969400  0.071300  1.0
  H  H270  1  0.597500  0.969400  0.428700  1.0
  H  H271  1  0.566900  0.030600  0.928700  1.0
  H  H272  1  0.402500  0.030600  0.571300  1.0
  H  H273  1  0.156000  0.036600  0.184600  1.0
  H  H274  1  0.807400  0.036600  0.315400  1.0
  H  H275  1  0.844000  0.963400  0.815400  1.0
  H  H276  1  0.192600  0.963400  0.684600  1.0
  H  H277  1  0.193000  0.871400  0.179900  1.0
  H  H278  1  0.935600  0.871400  0.320100  1.0
  H  H279  1  0.807000  0.128600  0.820100  1.0
  H  H280  1  0.064400  0.128600  0.679900  1.0
  H  H281  1  0.350300  0.753400  0.124100  1.0
  H  H282  1  0.896300  0.753400  0.375900  1.0
  H  H283  1  0.649700  0.246600  0.875900  1.0
  H  H284  1  0.103700  0.246600  0.624100  1.0
  H  H285  1  0.409800  0.103600  0.142900  1.0
  H  H286  1  0.486600  0.103600  0.357100  1.0
  H  H287  1  0.590200  0.896400  0.857100  1.0
  H  H288  1  0.513400  0.896400  0.642900  1.0
  H  H289  1  0.365000  0.268600  0.134100  1.0
  H  H290  1  0.366400  0.268600  0.365900  1.0
  H  H291  1  0.635000  0.731400  0.865900  1.0
  H  H292  1  0.633600  0.731400  0.634100  1.0
  H  H293  1  0.928200  0.662400  0.892300  1.0
  H  H294  1  0.409400  0.662400  0.607700  1.0
  H  H295  1  0.071800  0.337600  0.107700  1.0
  H  H296  1  0.590600  0.337600  0.392300  1.0
  H  H297  1  0.112700  0.173400  0.117300  1.0
  H  H298  1  0.713900  0.173400  0.382700  1.0
  H  H299  1  0.887300  0.826600  0.882700  1.0
  H  H300  1  0.286100  0.826600  0.617300  1.0
  H  H301  1  0.919100  0.320200  0.085000  1.0
  H  H302  1  0.760700  0.320200  0.415000  1.0
  H  H303  1  0.080900  0.679800  0.915000  1.0
  H  H304  1  0.239300  0.679800  0.585000  1.0
  H  H305  1  0.835300  0.289800  0.114800  1.0
  H  H306  1  0.874900  0.289800  0.385200  1.0
  H  H307  1  0.164700  0.710200  0.885200  1.0
  H  H308  1  0.125100  0.710200  0.614800  1.0
  H  H309  1  0.891100  0.258800  0.048900  1.0
  H  H310  1  0.850100  0.258800  0.451100  1.0
  H  H311  1  0.108900  0.741200  0.951100  1.0
  H  H312  1  0.149900  0.741200  0.548900  1.0
  H  H313  1  0.660700  0.580400  0.099400  1.0
  H  H314  1  0.758900  0.580400  0.400600  1.0
  H  H315  1  0.339300  0.419600  0.900600  1.0
  H  H316  1  0.241100  0.419600  0.599400  1.0
  H  H317  1  0.686100  0.498400  0.147600  1.0
  H  H318  1  0.815500  0.498400  0.352400  1.0
  H  H319  1  0.313900  0.501600  0.852400  1.0
  H  H320  1  0.184500  0.501600  0.647600  1.0
  H  H321  1  0.770200  0.528400  0.117600  1.0
  H  H322  1  0.701400  0.528400  0.382400  1.0
  H  H323  1  0.229800  0.471600  0.882400  1.0
  H  H324  1  0.298600  0.471600  0.617600  1.0
  H  H325  1  0.671600  0.342600  0.020300  1.0
  H  H326  1  0.985800  0.342600  0.479700  1.0
  H  H327  1  0.328400  0.657400  0.979700  1.0
  H  H328  1  0.014200  0.657400  0.520300  1.0
  H  H329  1  0.624100  0.379200  0.086300  1.0
  H  H330  1  0.996700  0.379200  0.413700  1.0
  H  H331  1  0.375900  0.620800  0.913700  1.0
  H  H332  1  0.003300  0.620800  0.586300  1.0
  H  H333  1  0.591500  0.451200  0.032900  1.0
  H  H334  1  0.957300  0.451200  0.467100  1.0
  H  H335  1  0.408500  0.548800  0.967100  1.0
  H  H336  1  0.042700  0.548800  0.532900  1.0
  H  H337  1  0.038300  0.430400  0.686000  1.0
  H  H338  1  0.531300  0.430400  0.814000  1.0
  H  H339  1  0.961700  0.569600  0.314000  1.0
  H  H340  1  0.468700  0.569600  0.186000  1.0
  H  H341  1  0.067100  0.367600  0.743500  1.0
  H  H342  1  0.565300  0.367600  0.756500  1.0
  H  H343  1  0.932900  0.632400  0.256500  1.0
  H  H344  1  0.434700  0.632400  0.243500  1.0
  H  H345  1  0.964000  0.392600  0.722000  1.0
  H  H346  1  0.643400  0.392600  0.778000  1.0
  H  H347  1  0.036000  0.607400  0.278000  1.0
  H  H348  1  0.356600  0.607400  0.222000  1.0
  H  H349  1  0.072700  0.580600  0.734400  1.0
  H  H350  1  0.346700  0.580600  0.765600  1.0
  H  H351  1  0.927300  0.419400  0.265600  1.0
  H  H352  1  0.653300  0.419400  0.234400  1.0
  H  H353  1  0.017700  0.625800  0.798000  1.0
  H  H354  1  0.356500  0.625800  0.702000  1.0
  H  H355  1  0.982300  0.374200  0.202000  1.0
  H  H356  1  0.643500  0.374200  0.298000  1.0
  H  H357  1  0.102500  0.517600  0.791700  1.0
  H  H358  1  0.379900  0.517600  0.708300  1.0
  H  H359  1  0.897500  0.482400  0.208300  1.0
  H  H360  1  0.620100  0.482400  0.291700  1.0
  H  H361  1  0.786900  0.598400  0.725700  1.0
  H  H362  1  0.614700  0.598400  0.774300  1.0
  H  H363  1  0.213100  0.401600  0.274300  1.0
  H  H364  1  0.385300  0.401600  0.225700  1.0
  H  H365  1  0.794600  0.683400  0.751100  1.0
  H  H366  1  0.522000  0.683400  0.748900  1.0
  H  H367  1  0.205400  0.316600  0.248900  1.0
  H  H368  1  0.478000  0.316600  0.251100  1.0
  H  H369  1  0.862800  0.634800  0.690300  1.0
  H  H370  1  0.502400  0.634800  0.809700  1.0
  H  H371  1  0.137200  0.365200  0.309700  1.0
  H  H372  1  0.497600  0.365200  0.190300  1.0
  Si  Si373  1  0.759800  0.425600  0.049200  1.0
  Si  Si374  1  0.814600  0.425600  0.450800  1.0
  Si  Si375  1  0.240200  0.574400  0.950800  1.0
  Si  Si376  1  0.185400  0.574400  0.549200  1.0
  Si  Si377  1  0.941800  0.529600  0.772800  1.0
  Si  Si378  1  0.528600  0.529600  0.727200  1.0
  Si  Si379  1  0.058200  0.470400  0.227200  1.0
  Si  Si380  1  0.471400  0.470400  0.272800  1.0
  Zr  Zr381  1  0.934610  0.361380  0.900420  1.0
  Zr  Zr382  1  0.704010  0.361380  0.599580  1.0
  Zr  Zr383  1  0.065390  0.638620  0.099580  1.0
  Zr  Zr384  1  0.295990  0.638620  0.400420  1.0
