# generated using pymatgen
data_P2H44PtC28N2(Cl2O)3
_symmetry_space_group_name_H-M   'P 1'
_cell_length_a   10.74550000
_cell_length_b   18.33380000
_cell_length_c   19.23550000
_cell_angle_alpha   78.11290000
_cell_angle_beta   86.56020000
_cell_angle_gamma   79.10680000
_symmetry_Int_Tables_number   1
_chemical_formula_structural   P2H44PtC28N2(Cl2O)3
_chemical_formula_sum   'P8 H176 Pt4 C112 N8 Cl24 O12'
_cell_volume   3640.54750037
_cell_formula_units_Z   4
loop_
 _symmetry_equiv_pos_site_id
 _symmetry_equiv_pos_as_xyz
  1  'x, y, z'
loop_
 _atom_site_type_symbol
 _atom_site_label
 _atom_site_symmetry_multiplicity
 _atom_site_fract_x
 _atom_site_fract_y
 _atom_site_fract_z
 _atom_site_occupancy
  P  P1  1  0.138920  0.379730  0.820560  1.0
  P  P2  1  0.861080  0.620270  0.179440  1.0
  P  P3  1  0.448140  0.511210  0.713240  1.0
  P  P4  1  0.551860  0.488790  0.286760  1.0
  P  P5  1  0.028860  0.126740  0.290050  1.0
  P  P6  1  0.971140  0.873260  0.709950  1.0
  P  P7  1  0.323280  0.233640  0.139990  1.0
  P  P8  1  0.676720  0.766360  0.860010  1.0
  H  H9  1  0.701500  0.126000  0.611000  1
  H  H10  1  0.298500  0.874000  0.389000  1
  H  H11  1  0.833800  0.148300  0.579300  1
  H  H12  1  0.166200  0.851700  0.420700  1
  H  H13  1  0.065800  0.607300  0.497000  1
  H  H14  1  0.934200  0.392700  0.503000  1
  H  H15  1  0.107200  0.571500  0.428100  1
  H  H16  1  0.892800  0.428500  0.571900  1
  H  H17  1  0.354000  0.026800  0.902400  1
  H  H18  1  0.646000  0.973200  0.097600  1
  H  H19  1  0.272500  0.067800  0.834000  1
  H  H20  1  0.727500  0.932200  0.166000  1
  H  H21  1  0.289600  0.126200  0.640600  1
  H  H22  1  0.710400  0.873800  0.359400  1
  H  H23  1  0.187600  0.193300  0.599000  1
  H  H24  1  0.812400  0.806700  0.401000  1
  H  H25  1  0.575000  0.110800  0.855900  1
  H  H26  1  0.425000  0.889200  0.144100  1
  H  H27  1  0.723400  0.078900  0.864500  1
  H  H28  1  0.276600  0.921100  0.135500  1
  H  H29  1  0.160900  0.557500  0.414300  1
  H  H30  1  0.839100  0.442500  0.585700  1
  H  H31  1  0.036600  0.621300  0.397600  1
  H  H32  1  0.963400  0.378700  0.602400  1
  H  H33  1  0.416700  0.412100  0.907500  1.0
  H  H34  1  0.583300  0.587900  0.092500  1.0
  H  H35  1  0.410900  0.468600  0.004800  1.0
  H  H36  1  0.589100  0.531400  0.995200  1.0
  H  H37  1  0.346900  0.581800  0.060200  1.0
  H  H38  1  0.653100  0.418200  0.939800  1.0
  H  H39  1  0.232000  0.700400  0.057800  1.0
  H  H40  1  0.768000  0.299600  0.942200  1.0
  H  H41  1  0.065900  0.807700  0.001700  1.0
  H  H42  1  0.934100  0.192300  0.998300  1.0
  H  H43  1  0.920200  0.861700  0.914400  1.0
  H  H44  1  0.079800  0.138300  0.085600  1.0
  H  H45  1  0.020600  0.680800  0.821200  1.0
  H  H46  1  0.979400  0.319200  0.178800  1.0
  H  H47  1  0.156800  0.587000  0.810300  1.0
  H  H48  1  0.843200  0.413000  0.189700  1.0
  H  H49  1  0.434700  0.306900  0.714000  1.0
  H  H50  1  0.565300  0.693100  0.286000  1.0
  H  H51  1  0.454300  0.243500  0.620500  1.0
  H  H52  1  0.545700  0.756500  0.379500  1.0
  H  H53  1  0.175200  0.406300  0.522200  1.0
  H  H54  1  0.824800  0.593700  0.477800  1.0
  H  H55  1  0.163200  0.463700  0.619800  1.0
  H  H56  1  0.836800  0.536300  0.380200  1.0
  H  H57  1  0.491400  0.104200  0.469800  1.0
  H  H58  1  0.508600  0.895800  0.530200  1.0
  H  H59  1  0.510500  0.021400  0.389900  1.0
  H  H60  1  0.489500  0.978600  0.610100  1.0
  H  H61  1  0.384400  0.054200  0.290800  1.0
  H  H62  1  0.615600  0.945800  0.709200  1.0
  H  H63  1  0.243600  0.254600  0.336100  1.0
  H  H64  1  0.756400  0.745400  0.663900  1.0
  H  H65  1  0.991900  0.489400  0.827800  1.0
  H  H66  1  0.008100  0.510600  0.172200  1.0
  H  H67  1  0.928100  0.416500  0.854700  1.0
  H  H68  1  0.071900  0.583500  0.145300  1.0
  H  H69  1  0.938500  0.477500  0.948000  1.0
  H  H70  1  0.061500  0.522500  0.052000  1.0
  H  H71  1  0.089100  0.468700  0.937800  1.0
  H  H72  1  0.910900  0.531300  0.062200  1.0
  H  H73  1  0.025800  0.395300  0.964800  1.0
  H  H74  1  0.974200  0.604700  0.035200  1.0
  H  H75  1  0.237500  0.328200  0.929700  1.0
  H  H76  1  0.762500  0.671800  0.070300  1.0
  H  H77  1  0.138400  0.277600  0.916500  1.0
  H  H78  1  0.861600  0.722400  0.083500  1.0
  H  H79  1  0.345600  0.211100  0.909000  1.0
  H  H80  1  0.654400  0.788900  0.091000  1.0
  H  H81  1  0.379300  0.277400  0.846600  1.0
  H  H82  1  0.620700  0.722600  0.153400  1.0
  H  H83  1  0.280200  0.226700  0.833500  1.0
  H  H84  1  0.719800  0.773300  0.166500  1.0
  H  H85  1  0.008500  0.371400  0.730200  1.0
  H  H86  1  0.991500  0.628600  0.269800  1.0
  H  H87  1  0.130300  0.305400  0.735900  1.0
  H  H88  1  0.869700  0.694600  0.264100  1.0
  H  H89  1  0.946700  0.252700  0.770100  1.0
  H  H90  1  0.053300  0.747300  0.229900  1.0
  H  H91  1  0.915100  0.301400  0.831100  1.0
  H  H92  1  0.084900  0.698600  0.168900  1.0
  H  H93  1  0.037100  0.235400  0.836900  1.0
  H  H94  1  0.962900  0.764600  0.163100  1.0
  H  H95  1  0.662900  0.508000  0.736100  1.0
  H  H96  1  0.337100  0.492000  0.263900  1.0
  H  H97  1  0.583800  0.496400  0.809300  1.0
  H  H98  1  0.416200  0.503600  0.190700  1.0
  H  H99  1  0.726000  0.385800  0.800600  1.0
  H  H100  1  0.274000  0.614200  0.199400  1.0
  H  H101  1  0.662700  0.382000  0.728600  1.0
  H  H102  1  0.337300  0.618000  0.271400  1.0
  H  H103  1  0.584000  0.370500  0.802100  1.0
  H  H104  1  0.416000  0.629500  0.197900  1.0
  H  H105  1  0.402300  0.618300  0.763200  1.0
  H  H106  1  0.597700  0.381700  0.236800  1.0
  H  H107  1  0.497000  0.631600  0.696200  1.0
  H  H108  1  0.503000  0.368400  0.303800  1.0
  H  H109  1  0.300300  0.706900  0.671900  1.0
  H  H110  1  0.699700  0.293100  0.328100  1.0
  H  H111  1  0.235600  0.633200  0.686800  1.0
  H  H112  1  0.764400  0.366800  0.313200  1.0
  H  H113  1  0.330600  0.647500  0.620100  1.0
  H  H114  1  0.669400  0.352500  0.379900  1.0
  H  H115  1  0.535000  0.449500  0.624200  1.0
  H  H116  1  0.465000  0.550500  0.375800  1.0
  H  H117  1  0.414600  0.511600  0.596100  1.0
  H  H118  1  0.585400  0.488400  0.403900  1.0
  H  H119  1  0.594600  0.541200  0.535100  1.0
  H  H120  1  0.405400  0.458800  0.464900  1.0
  H  H121  1  0.658300  0.543400  0.607500  1.0
  H  H122  1  0.341700  0.456600  0.392500  1.0
  H  H123  1  0.537300  0.605600  0.579000  1.0
  H  H124  1  0.462700  0.394400  0.421000  1.0
  H  H125  1  0.974700  0.098100  0.411400  1.0
  H  H126  1  0.025300  0.901900  0.588600  1.0
  H  H127  1  0.115600  0.115700  0.401700  1.0
  H  H128  1  0.884400  0.884300  0.598300  1.0
  H  H129  1  0.981700  0.211300  0.448500  1.0
  H  H130  1  0.018300  0.788700  0.551500  1.0
  H  H131  1  0.892300  0.229100  0.381200  1.0
  H  H132  1  0.107700  0.770900  0.618800  1.0
  H  H133  1  0.033400  0.246600  0.371500  1.0
  H  H134  1  0.966600  0.753400  0.628500  1.0
  H  H135  1  0.842200  0.212100  0.262000  1.0
  H  H136  1  0.157800  0.787900  0.738000  1.0
  H  H137  1  0.859900  0.148800  0.214700  1.0
  H  H138  1  0.140100  0.851200  0.785300  1.0
  H  H139  1  0.682700  0.138300  0.290700  1.0
  H  H140  1  0.317300  0.861700  0.709300  1.0
  H  H141  1  0.768100  0.127700  0.358700  1.0
  H  H142  1  0.231900  0.872300  0.641300  1.0
  H  H143  1  0.787500  0.063300  0.312000  1.0
  H  H144  1  0.212500  0.936700  0.688000  1.0
  H  H145  1  0.152100  0.006600  0.320800  1.0
  H  H146  1  0.847900  0.993400  0.679200  1.0
  H  H147  1  0.005300  0.000700  0.324600  1.0
  H  H148  1  0.994700  0.999300  0.675400  1.0
  H  H149  1  0.106800  0.946300  0.232700  1.0
  H  H150  1  0.893200  0.053700  0.767300  1.0
  H  H151  1  0.151300  0.024300  0.196900  1.0
  H  H152  1  0.848700  0.975700  0.803100  1.0
  H  H153  1  0.004100  0.018900  0.200400  1.0
  H  H154  1  0.995900  0.981100  0.799600  1.0
  H  H155  1  0.345600  0.345400  0.059800  1.0
  H  H156  1  0.654400  0.654600  0.940200  1.0
  H  H157  1  0.198700  0.340500  0.072800  1.0
  H  H158  1  0.801300  0.659500  0.927200  1.0
  H  H159  1  0.246100  0.438500  0.120900  1.0
  H  H160  1  0.753900  0.561500  0.879100  1.0
  H  H161  1  0.349900  0.379800  0.170500  1.0
  H  H162  1  0.650100  0.620200  0.829500  1.0
  H  H163  1  0.202800  0.375100  0.183100  1.0
  H  H164  1  0.797200  0.624900  0.816900  1.0
  H  H165  1  0.465600  0.252300  0.218300  1.0
  H  H166  1  0.534400  0.747700  0.781700  1.0
  H  H167  1  0.509900  0.171500  0.197100  1.0
  H  H168  1  0.490100  0.828500  0.802900  1.0
  H  H169  1  0.657500  0.250400  0.153000  1.0
  H  H170  1  0.342500  0.749600  0.847000  1.0
  H  H171  1  0.549500  0.311300  0.108600  1.0
  H  H172  1  0.450500  0.688700  0.891400  1.0
  H  H173  1  0.594500  0.230100  0.087800  1.0
  H  H174  1  0.405500  0.769900  0.912200  1.0
  H  H175  1  0.278800  0.196300  0.036400  1.0
  H  H176  1  0.721200  0.803700  0.963600  1.0
  H  H177  1  0.425000  0.203200  0.036100  1.0
  H  H178  1  0.575000  0.796800  0.963900  1.0
  H  H179  1  0.406000  0.075500  0.047500  1.0
  H  H180  1  0.594000  0.924500  0.952500  1.0
  H  H181  1  0.321400  0.079400  0.118500  1.0
  H  H182  1  0.678600  0.920600  0.881500  1.0
  H  H183  1  0.467800  0.086300  0.117500  1.0
  H  H184  1  0.532200  0.913700  0.882500  1.0
  Pt  Pt185  1  0.291910  0.444580  0.762569  1.0
  Pt  Pt186  1  0.708090  0.555420  0.237431  1.0
  Pt  Pt187  1  0.176260  0.186125  0.219154  1.0
  Pt  Pt188  1  0.823740  0.813875  0.780846  1.0
  C  C189  1  0.752100  0.137500  0.566600  1
  C  C190  1  0.247900  0.862500  0.433400  1
  C  C191  1  0.119000  0.611800  0.453000  1
  C  C192  1  0.881000  0.388200  0.547000  1
  C  C193  1  0.270000  0.033700  0.881000  1
  C  C194  1  0.730000  0.966300  0.119000  1
  C  C195  1  0.200600  0.139900  0.625000  1
  C  C196  1  0.799400  0.860100  0.375000  1
  C  C197  1  0.657000  0.124300  0.864800  1
  C  C198  1  0.343000  0.875700  0.135200  1
  C  C199  1  0.119000  0.608000  0.421600  1
  C  C200  1  0.881000  0.392000  0.578400  1
  C  C201  1  0.286700  0.494400  0.847100  1.0
  C  C202  1  0.713300  0.505600  0.152900  1.0
  C  C203  1  0.363100  0.459700  0.907200  1.0
  C  C204  1  0.636900  0.540300  0.092800  1.0
  C  C205  1  0.361000  0.493800  0.964800  1.0
  C  C206  1  0.639000  0.506200  0.035200  1.0
  C  C207  1  0.285900  0.565400  0.965200  1.0
  C  C208  1  0.714100  0.434600  0.034800  1.0
  C  C209  1  0.292400  0.605000  0.021600  1.0
  C  C210  1  0.707600  0.395000  0.978400  1.0
  C  C211  1  0.222500  0.674600  0.020900  1.0
  C  C212  1  0.777500  0.325400  0.979100  1.0
  C  C213  1  0.134000  0.710600  0.965600  1.0
  C  C214  1  0.866000  0.289400  0.034400  1.0
  C  C215  1  0.057400  0.781200  0.965200  1.0
  C  C216  1  0.942600  0.218800  0.034800  1.0
  C  C217  1  0.969900  0.813200  0.913400  1.0
  C  C218  1  0.030100  0.186800  0.086600  1.0
  C  C219  1  0.952300  0.775600  0.858600  1.0
  C  C220  1  0.047700  0.224400  0.141400  1.0
  C  C221  1  0.029900  0.706600  0.858100  1.0
  C  C222  1  0.970100  0.293400  0.141900  1.0
  C  C223  1  0.122400  0.672500  0.909500  1.0
  C  C224  1  0.877600  0.327500  0.090500  1.0
  C  C225  1  0.206300  0.599700  0.907100  1.0
  C  C226  1  0.793700  0.400300  0.092900  1.0
  C  C227  1  0.209800  0.563200  0.849500  1.0
  C  C228  1  0.790200  0.436800  0.150500  1.0
  C  C229  1  0.381700  0.327200  0.674200  1.0
  C  C230  1  0.618300  0.672800  0.325800  1.0
  C  C231  1  0.394300  0.289000  0.618900  1.0
  C  C232  1  0.605700  0.711000  0.381100  1.0
  C  C233  1  0.316600  0.318700  0.560600  1.0
  C  C234  1  0.683400  0.681300  0.439400  1.0
  C  C235  1  0.229700  0.384700  0.561100  1.0
  C  C236  1  0.770300  0.615300  0.438900  1.0
  C  C237  1  0.223700  0.418800  0.619300  1.0
  C  C238  1  0.776300  0.581200  0.380700  1.0
  C  C239  1  0.329000  0.277900  0.503800  1.0
  C  C240  1  0.671000  0.722100  0.496200  1.0
  C  C241  1  0.343900  0.239000  0.460200  1.0
  C  C242  1  0.656100  0.761000  0.539800  1.0
  C  C243  1  0.362900  0.188100  0.412000  1.0
  C  C244  1  0.637100  0.811900  0.588000  1.0
  C  C245  1  0.443700  0.118000  0.427600  1.0
  C  C246  1  0.556300  0.882000  0.572400  1.0
  C  C247  1  0.453800  0.068600  0.381000  1.0
  C  C248  1  0.546200  0.931400  0.619000  1.0
  C  C249  1  0.380200  0.089100  0.321600  1.0
  C  C250  1  0.619800  0.910900  0.678400  1.0
  C  C251  1  0.295600  0.206000  0.348700  1.0
  C  C252  1  0.704400  0.794000  0.651300  1.0
  C  C253  1  0.005000  0.437900  0.858000  1.0
  C  C254  1  0.995000  0.562100  0.142000  1.0
  C  C255  1  0.015500  0.445500  0.933700  1.0
  C  C256  1  0.984500  0.554500  0.066300  1.0
  C  C257  1  0.205600  0.305200  0.893600  1.0
  C  C258  1  0.794400  0.694800  0.106400  1.0
  C  C259  1  0.311900  0.250300  0.868500  1.0
  C  C260  1  0.688100  0.749700  0.131500  1.0
  C  C261  1  0.063400  0.332300  0.764000  1.0
  C  C262  1  0.936600  0.667700  0.236000  1.0
  C  C263  1  0.983400  0.275300  0.804200  1.0
  C  C264  1  0.016600  0.724700  0.195800  1.0
  C  C265  1  0.597700  0.481000  0.762700  1.0
  C  C266  1  0.402300  0.519000  0.237300  1.0
  C  C267  1  0.646800  0.397700  0.774500  1.0
  C  C268  1  0.353200  0.602300  0.225500  1.0
  C  C269  1  0.419700  0.610900  0.713700  1.0
  C  C270  1  0.580300  0.389100  0.286300  1.0
  C  C271  1  0.312600  0.653100  0.669500  1.0
  C  C272  1  0.687400  0.346900  0.330500  1.0
  C  C273  1  0.493200  0.502600  0.623300  1.0
  C  C274  1  0.506800  0.497400  0.376700  1.0
  C  C275  1  0.578100  0.552500  0.582800  1.0
  C  C276  1  0.421900  0.447500  0.417200  1.0
  C  C277  1  0.028200  0.132900  0.384000  1.0
  C  C278  1  0.971800  0.867100  0.616000  1.0
  C  C279  1  0.979600  0.211900  0.397500  1.0
  C  C280  1  0.020400  0.788100  0.602500  1.0
  C  C281  1  0.865600  0.156900  0.263600  1.0
  C  C282  1  0.134400  0.843100  0.736400  1.0
  C  C283  1  0.767100  0.118000  0.310500  1.0
  C  C284  1  0.232900  0.882000  0.689500  1.0
  C  C285  1  0.071000  0.025300  0.295700  1.0
  C  C286  1  0.929000  0.974700  0.704300  1.0
  C  C287  1  0.084500  0.001600  0.225400  1.0
  C  C288  1  0.915500  0.998400  0.774600  1.0
  C  C289  1  0.280500  0.332900  0.096800  1.0
  C  C290  1  0.719500  0.667100  0.903200  1.0
  C  C291  1  0.268800  0.386200  0.147200  1.0
  C  C292  1  0.731200  0.613800  0.852800  1.0
  C  C293  1  0.477500  0.225800  0.177800  1.0
  C  C294  1  0.522500  0.774200  0.822200  1.0
  C  C295  1  0.578900  0.257200  0.127300  1.0
  C  C296  1  0.421100  0.742800  0.872700  1.0
  C  C297  1  0.355100  0.184300  0.066000  1.0
  C  C298  1  0.644900  0.815700  0.934000  1.0
  C  C299  1  0.390800  0.098800  0.089400  1.0
  C  C300  1  0.609200  0.901200  0.910600  1.0
  N  N301  1  0.496800  0.095500  0.724000  1
  N  N302  1  0.503200  0.904500  0.276000  1
  N  N303  1  0.082400  0.432000  0.335900  1
  N  N304  1  0.917600  0.568000  0.664100  1
  N  N305  1  0.298900  0.391300  0.674800  1.0
  N  N306  1  0.701100  0.608700  0.325200  1.0
  N  N307  1  0.302500  0.156500  0.305500  1.0
  N  N308  1  0.697500  0.843500  0.694500  1.0
  Cl  Cl309  1  0.780400  0.058860  0.524820  1
  Cl  Cl310  1  0.219600  0.941140  0.475180  1
  Cl  Cl311  1  0.670400  0.216600  0.509630  1
  Cl  Cl312  1  0.329600  0.783400  0.490370  1
  Cl  Cl313  1  0.068200  0.701300  0.397800  1
  Cl  Cl314  1  0.931800  0.298700  0.602200  1
  Cl  Cl315  1  0.277900  0.598600  0.475400  1
  Cl  Cl316  1  0.722100  0.401400  0.524600  1
  Cl  Cl317  1  0.247300  0.947900  0.868300  1
  Cl  Cl318  1  0.752700  0.052100  0.131700  1
  Cl  Cl319  1  0.160200  0.077000  0.932800  1
  Cl  Cl320  1  0.839800  0.923000  0.067200  1
  Cl  Cl321  1  0.104300  0.135000  0.698600  1
  Cl  Cl322  1  0.895700  0.865000  0.301400  1
  Cl  Cl323  1  0.181200  0.084000  0.566610  1
  Cl  Cl324  1  0.818800  0.916000  0.433390  1
  Cl  Cl325  1  0.649300  0.144900  0.943900  1
  Cl  Cl326  1  0.350700  0.855100  0.056100  1
  Cl  Cl327  1  0.689500  0.197800  0.794100  1
  Cl  Cl328  1  0.310500  0.802200  0.205900  1
  Cl  Cl329  1  0.091700  0.605300  0.514000  1
  Cl  Cl330  1  0.908300  0.394700  0.486000  1
  Cl  Cl331  1  0.214000  0.674900  0.382800  1
  Cl  Cl332  1  0.786000  0.325100  0.617200  1
  O  O333  1  0.410100  0.138500  0.749000  1
  O  O334  1  0.589900  0.861500  0.251000  1
  O  O335  1  0.546100  0.043900  0.768500  1
  O  O336  1  0.453900  0.956100  0.231500  1
  O  O337  1  0.505600  0.098000  0.661000  1
  O  O338  1  0.494400  0.902000  0.339000  1
  O  O339  1  0.176600  0.389900  0.323000  1
  O  O340  1  0.823400  0.610100  0.677000  1
  O  O341  1  0.988900  0.417200  0.314100  1
  O  O342  1  0.011100  0.582800  0.685900  1
  O  O343  1  0.082100  0.484200  0.358900  1
  O  O344  1  0.917900  0.515800  0.641100  1
