# generated using pymatgen
data_B3H58PtC51S4N4(OF)12
_symmetry_space_group_name_H-M   'P 1'
_cell_length_a   10.38300000
_cell_length_b   16.98200000
_cell_length_c   18.08700000
_cell_angle_alpha   115.36300000
_cell_angle_beta   93.65200000
_cell_angle_gamma   100.69700000
_symmetry_Int_Tables_number   1
_chemical_formula_structural   B3H58PtC51S4N4(OF)12
_chemical_formula_sum   'B6 H116 Pt2 C102 S8 N8 O24 F24'
_cell_volume   2794.62619375
_cell_formula_units_Z   2
loop_
 _symmetry_equiv_pos_site_id
 _symmetry_equiv_pos_as_xyz
  1  'x, y, z'
loop_
 _atom_site_type_symbol
 _atom_site_label
 _atom_site_symmetry_multiplicity
 _atom_site_fract_x
 _atom_site_fract_y
 _atom_site_fract_z
 _atom_site_occupancy
  B  B1  1  0.153000  0.038000  0.364400  1
  B  B2  1  0.847000  0.962000  0.635600  1
  B  B3  1  0.808000  0.785600  0.940000  1
  B  B4  1  0.192000  0.214400  0.060000  1
  B  B5  1  0.132000  0.026100  0.334900  1
  B  B6  1  0.868000  0.973900  0.665100  1
  H  H7  1  0.680700  0.957000  0.185900  1
  H  H8  1  0.319300  0.043000  0.814100  1
  H  H9  1  0.833100  0.976700  0.224200  1
  H  H10  1  0.166900  0.023300  0.775800  1
  H  H11  1  0.778000  0.902300  0.130700  1
  H  H12  1  0.222000  0.097700  0.869300  1
  H  H13  1  0.013100  0.070300  0.106700  1
  H  H14  1  0.986900  0.929700  0.893300  1
  H  H15  1  0.967900  0.967100  0.087200  1
  H  H16  1  0.032100  0.032900  0.912800  1
  H  H17  1  0.021100  0.042400  0.180600  1
  H  H18  1  0.978900  0.957600  0.819400  1
  H  H19  1  0.700400  0.568000  0.809500  1
  H  H20  1  0.299600  0.432000  0.190500  1
  H  H21  1  0.804300  0.541200  0.858500  1
  H  H22  1  0.195700  0.458800  0.141500  1
  H  H23  1  0.649400  0.517100  0.862700  1
  H  H24  1  0.350600  0.482900  0.137300  1
  H  H25  1  0.739500  0.303800  0.757600  1
  H  H26  1  0.260500  0.696200  0.242400  1
  H  H27  1  0.678700  0.366200  0.834700  1
  H  H28  1  0.321300  0.633800  0.165300  1
  H  H29  1  0.830900  0.396500  0.827400  1
  H  H30  1  0.169100  0.603500  0.172600  1
  H  H31  1  0.485800  0.171300  0.162900  1
  H  H32  1  0.514200  0.828700  0.837100  1
  H  H33  1  0.466900  0.073100  0.157300  1
  H  H34  1  0.533100  0.926900  0.842700  1
  H  H35  1  0.596400  0.149700  0.212400  1
  H  H36  1  0.403600  0.850300  0.787600  1
  H  H37  1  0.454400  0.093600  0.350000  1
  H  H38  1  0.545600  0.906400  0.650000  1
  H  H39  1  0.582300  0.110600  0.309000  1
  H  H40  1  0.417700  0.889400  0.691000  1
  H  H41  1  0.454200  0.032800  0.253600  1
  H  H42  1  0.545800  0.967200  0.746400  1
  H  H43  1  0.835800  0.110100  0.869700  1
  H  H44  1  0.164200  0.889900  0.130300  1
  H  H45  1  0.785700  0.052600  0.963200  1
  H  H46  1  0.214300  0.947400  0.036800  1
  H  H47  1  0.604500  0.085200  0.034400  1
  H  H48  1  0.395500  0.914800  0.965600  1
  H  H49  1  0.477700  0.174100  0.010100  1
  H  H50  1  0.522300  0.825900  0.989900  1
  H  H51  1  0.529000  0.231800  0.916600  1
  H  H52  1  0.471000  0.768200  0.083400  1
  H  H53  1  0.708700  0.199700  0.845600  1
  H  H54  1  0.291300  0.800300  0.154400  1
  H  H55  1  0.530900  0.677200  0.549100  1
  H  H56  1  0.469100  0.322800  0.450900  1
  H  H57  1  0.782300  0.578500  0.844500  1
  H  H58  1  0.217700  0.421500  0.155500  1
  H  H59  1  0.683900  0.519800  0.876400  1
  H  H60  1  0.316100  0.480200  0.123600  1
  H  H61  1  0.639200  0.521600  0.790900  1
  H  H62  1  0.360800  0.478400  0.209100  1
  H  H63  1  0.650800  0.296800  0.736100  1
  H  H64  1  0.349200  0.703200  0.263900  1
  H  H65  1  0.562000  0.363500  0.733700  1
  H  H66  1  0.438000  0.636500  0.266300  1
  H  H67  1  0.614900  0.366900  0.820300  1
  H  H68  1  0.385100  0.633100  0.179700  1
  H  H69  1  0.469700  0.533600  0.691300  1.0
  H  H70  1  0.530300  0.466400  0.308700  1.0
  H  H71  1  0.469300  0.328900  0.454800  1.0
  H  H72  1  0.530700  0.671100  0.545200  1.0
  H  H73  1  0.499000  0.582600  0.605400  1.0
  H  H74  1  0.501000  0.417400  0.394600  1.0
  H  H75  1  0.468900  0.434000  0.582400  1.0
  H  H76  1  0.531100  0.566000  0.417600  1.0
  H  H77  1  0.500300  0.640800  0.657400  1.0
  H  H78  1  0.499700  0.359200  0.342600  1.0
  H  H79  1  0.815800  0.548200  0.661200  1.0
  H  H80  1  0.184200  0.451800  0.338800  1.0
  H  H81  1  0.836900  0.700100  0.749000  1.0
  H  H82  1  0.163100  0.299900  0.251000  1.0
  H  H83  1  0.867300  0.802000  0.692900  1.0
  H  H84  1  0.132700  0.198000  0.307100  1.0
  H  H85  1  0.872100  0.752700  0.554300  1.0
  H  H86  1  0.127900  0.247300  0.445700  1.0
  H  H87  1  0.788900  0.399500  0.563900  1.0
  H  H88  1  0.211100  0.600500  0.436100  1.0
  H  H89  1  0.814400  0.248600  0.322100  1.0
  H  H90  1  0.185600  0.751400  0.677900  1.0
  H  H91  1  0.855400  0.262700  0.202300  1.0
  H  H92  1  0.144600  0.737300  0.797700  1.0
  H  H93  1  0.875500  0.286800  0.084500  1.0
  H  H94  1  0.124500  0.713200  0.915500  1.0
  H  H95  1  0.902200  0.433600  0.101100  1.0
  H  H96  1  0.097800  0.566400  0.898900  1.0
  H  H97  1  0.894300  0.547500  0.226300  1.0
  H  H98  1  0.105700  0.452500  0.773700  1.0
  H  H99  1  0.631600  0.273900  0.536700  1.0
  H  H100  1  0.368400  0.726100  0.463300  1.0
  H  H101  1  0.688400  0.028700  0.495600  1.0
  H  H102  1  0.311600  0.971300  0.504400  1.0
  H  H103  1  0.837100  0.038700  0.411100  1.0
  H  H104  1  0.162900  0.961300  0.588900  1.0
  H  H105  1  0.878600  0.159600  0.379800  1.0
  H  H106  1  0.121400  0.840400  0.620200  1.0
  H  H107  1  0.412900  0.198500  0.535500  1.0
  H  H108  1  0.587100  0.801500  0.464500  1.0
  H  H109  1  0.298600  0.142400  0.722300  1.0
  H  H110  1  0.701400  0.857600  0.277700  1.0
  H  H111  1  0.488000  0.088000  0.726100  1.0
  H  H112  1  0.512000  0.912000  0.273900  1.0
  H  H113  1  0.639100  0.089700  0.638100  1.0
  H  H114  1  0.360900  0.910300  0.361900  1.0
  H  H115  1  0.305300  0.315500  0.607400  1.0
  H  H116  1  0.694700  0.684500  0.392600  1.0
  H  H117  1  0.073200  0.690600  0.370400  1.0
  H  H118  1  0.926800  0.309400  0.629600  1.0
  H  H119  1  0.097700  0.824100  0.360600  1.0
  H  H120  1  0.902300  0.175900  0.639400  1.0
  H  H121  1  0.085500  0.114400  0.639800  1.0
  H  H122  1  0.914500  0.885600  0.360200  1.0
  Pt  Pt123  1  0.863210  0.566536  0.403194  1.0
  Pt  Pt124  1  0.136790  0.433464  0.596806  1.0
  C  C125  1  0.772000  0.960600  0.173800  1
  C  C126  1  0.228000  0.039400  0.826200  1
  C  C127  1  0.970000  0.028800  0.127200  1
  C  C128  1  0.030000  0.971200  0.872800  1
  C  C129  1  0.741000  0.366000  0.796000  1
  C  C130  1  0.259000  0.634000  0.204000  1
  C  C131  1  0.500900  0.137300  0.193600  1
  C  C132  1  0.499100  0.862700  0.806400  1
  C  C133  1  0.485000  0.093200  0.299700  1
  C  C134  1  0.515000  0.906800  0.700300  1
  C  C135  1  0.763000  0.123000  0.898400  1
  C  C136  1  0.237000  0.877000  0.101600  1
  C  C137  1  0.734000  0.088800  0.953700  1
  C  C138  1  0.266000  0.911200  0.046300  1
  C  C139  1  0.626000  0.108300  0.996100  1
  C  C140  1  0.374000  0.891700  0.003900  1
  C  C141  1  0.551000  0.161000  0.981600  1
  C  C142  1  0.449000  0.839000  0.018400  1
  C  C143  1  0.581000  0.195000  0.926000  1
  C  C144  1  0.419000  0.805000  0.074000  1
  C  C145  1  0.688000  0.176000  0.883800  1
  C  C146  1  0.312000  0.824000  0.116200  1
  C  C147  1  0.636000  0.357000  0.766000  1
  C  C148  1  0.364000  0.643000  0.234000  1
  C  C149  1  0.482600  0.508600  0.590500  1.0
  C  C150  1  0.517400  0.491400  0.409500  1.0
  C  C151  1  0.482800  0.441100  0.511600  1.0
  C  C152  1  0.517200  0.558900  0.488400  1.0
  C  C153  1  0.499300  0.537100  0.551500  1.0
  C  C154  1  0.500700  0.462900  0.448500  1.0
  C  C155  1  0.481300  0.449000  0.538000  1.0
  C  C156  1  0.518700  0.551000  0.462000  1.0
  C  C157  1  0.481500  0.383400  0.460400  1.0
  C  C158  1  0.518500  0.616600  0.539600  1.0
  C  C159  1  0.500400  0.595100  0.603600  1.0
  C  C160  1  0.499600  0.404900  0.396400  1.0
  C  C161  1  0.714000  0.522800  0.827300  1.0
  C  C162  1  0.286000  0.477200  0.172700  1.0
  C  C163  1  0.834000  0.563600  0.557900  1.0
  C  C164  1  0.166000  0.436400  0.442100  1.0
  C  C165  1  0.828300  0.590800  0.639700  1.0
  C  C166  1  0.171700  0.409200  0.360300  1.0
  C  C167  1  0.840500  0.680100  0.691600  1.0
  C  C168  1  0.159500  0.319900  0.308400  1.0
  C  C169  1  0.858100  0.739900  0.658200  1.0
  C  C170  1  0.141900  0.260100  0.341800  1.0
  C  C171  1  0.862300  0.710500  0.576200  1.0
  C  C172  1  0.137700  0.289500  0.423800  1.0
  C  C173  1  0.823300  0.470100  0.496700  1.0
  C  C174  1  0.176700  0.529900  0.503300  1.0
  C  C175  1  0.799800  0.394400  0.510400  1.0
  C  C176  1  0.200200  0.605600  0.489600  1.0
  C  C177  1  0.792400  0.310900  0.444300  1.0
  C  C178  1  0.207600  0.689100  0.555700  1.0
  C  C179  1  0.814300  0.304800  0.366700  1.0
  C  C180  1  0.185700  0.695200  0.633300  1.0
  C  C181  1  0.835900  0.382100  0.355900  1.0
  C  C182  1  0.164100  0.617900  0.644100  1.0
  C  C183  1  0.853100  0.389200  0.278900  1.0
  C  C184  1  0.146900  0.610800  0.721100  1.0
  C  C185  1  0.860400  0.320800  0.206100  1.0
  C  C186  1  0.139600  0.679200  0.793900  1.0
  C  C187  1  0.875100  0.334900  0.136900  1.0
  C  C188  1  0.124900  0.665100  0.863100  1.0
  C  C189  1  0.889300  0.421200  0.146900  1.0
  C  C190  1  0.110700  0.578800  0.853100  1.0
  C  C191  1  0.885000  0.488800  0.221600  1.0
  C  C192  1  0.115000  0.511200  0.778400  1.0
  C  C193  1  0.762300  0.229800  0.456700  1.0
  C  C194  1  0.237700  0.770200  0.543300  1.0
  C  C195  1  0.671700  0.225200  0.509800  1.0
  C  C196  1  0.328300  0.774800  0.490200  1.0
  C  C197  1  0.640300  0.149300  0.523500  1.0
  C  C198  1  0.359700  0.850700  0.476500  1.0
  C  C199  1  0.706000  0.079900  0.485500  1.0
  C  C200  1  0.294000  0.920100  0.514500  1.0
  C  C201  1  0.793000  0.085800  0.435400  1.0
  C  C202  1  0.207000  0.914200  0.564600  1.0
  C  C203  1  0.820400  0.158600  0.418000  1.0
  C  C204  1  0.179600  0.841400  0.582000  1.0
  C  C205  1  0.542700  0.145800  0.578700  1.0
  C  C206  1  0.457300  0.854200  0.421300  1.0
  C  C207  1  0.429000  0.176800  0.574900  1.0
  C  C208  1  0.571000  0.823200  0.425100  1.0
  C  C209  1  0.337500  0.176300  0.628700  1.0
  C  C210  1  0.662500  0.823700  0.371300  1.0
  C  C211  1  0.359900  0.143000  0.685600  1.0
  C  C212  1  0.640100  0.857000  0.314400  1.0
  C  C213  1  0.472500  0.111100  0.687700  1.0
  C  C214  1  0.527500  0.888900  0.312300  1.0
  C  C215  1  0.562500  0.112100  0.635500  1.0
  C  C216  1  0.437500  0.887900  0.364500  1.0
  C  C217  1  0.217500  0.211000  0.624800  1.0
  C  C218  1  0.782500  0.789000  0.375200  1.0
  C  C219  1  0.223000  0.286700  0.614700  1.0
  C  C220  1  0.777000  0.713300  0.385300  1.0
  C  C221  1  0.999600  0.717200  0.373500  1.0
  C  C222  1  0.000400  0.282800  0.626500  1.0
  C  C223  1  0.013700  0.795300  0.365900  1.0
  C  C224  1  0.986300  0.204700  0.634100  1.0
  C  C225  1  0.094300  0.168000  0.633900  1.0
  C  C226  1  0.905700  0.832000  0.366100  1.0
  S  S227  1  0.812300  0.040400  0.139800  1
  S  S228  1  0.187700  0.959600  0.860200  1
  S  S229  1  0.695400  0.420800  0.741300  1
  S  S230  1  0.304600  0.579200  0.258700  1
  S  S231  1  0.421900  0.168100  0.275800  1
  S  S232  1  0.578100  0.831900  0.724200  1
  S  S233  1  0.778500  0.435900  0.776800  1
  S  S234  1  0.221500  0.564100  0.223200  1
  N  N235  1  0.853100  0.622400  0.523900  1.0
  N  N236  1  0.146900  0.377600  0.476100  1.0
  N  N237  1  0.840700  0.461200  0.421500  1.0
  N  N238  1  0.159300  0.538800  0.578500  1.0
  N  N239  1  0.868800  0.476700  0.287100  1.0
  N  N240  1  0.131200  0.523300  0.712900  1.0
  N  N241  1  0.881800  0.677300  0.385500  1.0
  N  N242  1  0.118200  0.322700  0.614500  1.0
  O  O243  1  0.824900  0.130000  0.211400  1
  O  O244  1  0.175100  0.870000  0.788600  1
  O  O245  1  0.823600  0.432300  0.704900  1
  O  O246  1  0.176400  0.567700  0.295100  1
  O  O247  1  0.499100  0.257500  0.344400  1
  O  O248  1  0.500900  0.742500  0.655600  1
  O  O249  1  0.467000  0.626000  0.803000  1
  O  O250  1  0.533000  0.374000  0.197000  1
  O  O251  1  0.975000  0.299000  0.836000  1
  O  O252  1  0.025000  0.701000  0.164000  1
  O  O253  1  0.779900  0.416500  0.687200  1
  O  O254  1  0.220100  0.583500  0.312800  1
  O  O255  1  0.401000  0.511000  0.883000  1
  O  O256  1  0.599000  0.489000  0.117000  1
  O  O257  1  0.118000  0.368000  0.834000  1
  O  O258  1  0.882000  0.632000  0.166000  1
  O  O259  1  0.200000  0.313000  0.866000  1
  O  O260  1  0.800000  0.687000  0.134000  1
  O  O261  1  0.614000  0.133000  0.916000  1
  O  O262  1  0.386000  0.867000  0.084000  1
  O  O263  1  0.466100  0.487500  0.646900  1.0
  O  O264  1  0.533900  0.512500  0.353100  1.0
  O  O265  1  0.466000  0.364100  0.504000  1.0
  O  O266  1  0.534000  0.635900  0.496000  1.0
  F  F267  1  0.121000  0.021500  0.429800  1
  F  F268  1  0.879000  0.978500  0.570200  1
  F  F269  1  0.039900  0.049700  0.330700  1
  F  F270  1  0.960100  0.950300  0.669300  1
  F  F271  1  0.244200  0.117900  0.394600  1
  F  F272  1  0.755800  0.882100  0.605400  1
  F  F273  1  0.192700  0.962800  0.313700  1
  F  F274  1  0.807300  0.037200  0.686300  1
  F  F275  1  0.773000  0.854700  0.943900  1
  F  F276  1  0.227000  0.145300  0.056100  1
  F  F277  1  0.931000  0.798500  0.944100  1
  F  F278  1  0.069000  0.201500  0.055900  1
  F  F279  1  0.753000  0.717900  0.873000  1
  F  F280  1  0.247000  0.282100  0.127000  1
  F  F281  1  0.770000  0.772700  0.998500  1
  F  F282  1  0.230000  0.227300  0.001500  1
  F  F283  1  0.173000  0.967500  0.359100  1
  F  F284  1  0.827000  0.032500  0.640900  1
  F  F285  1  0.995000  0.996200  0.315700  1
  F  F286  1  0.005000  0.003800  0.684300  1
  F  F287  1  0.152000  0.106000  0.405700  1
  F  F288  1  0.848000  0.894000  0.594300  1
  F  F289  1  0.162000  0.038600  0.267700  1
  F  F290  1  0.838000  0.961400  0.732300  1
