# generated using pymatgen
data_P2H91PtC59S10N4(O5F6)2
_symmetry_space_group_name_H-M   'P 1'
_cell_length_a   10.46560000
_cell_length_b   17.52150000
_cell_length_c   18.43210000
_cell_angle_alpha   116.31340000
_cell_angle_beta   94.02800000
_cell_angle_gamma   99.93120000
_symmetry_Int_Tables_number   1
_chemical_formula_structural   P2H91PtC59S10N4(O5F6)2
_chemical_formula_sum   'P4 H182 Pt2 C118 S20 N8 O20 F24'
_cell_volume   2942.85354516
_cell_formula_units_Z   2
loop_
 _symmetry_equiv_pos_site_id
 _symmetry_equiv_pos_as_xyz
  1  'x, y, z'
loop_
 _atom_site_type_symbol
 _atom_site_label
 _atom_site_symmetry_multiplicity
 _atom_site_fract_x
 _atom_site_fract_y
 _atom_site_fract_z
 _atom_site_occupancy
  P  P1  1  0.148900  0.019160  0.355350  1
  P  P2  1  0.851100  0.980840  0.644650  1
  P  P3  1  0.813400  0.774200  0.944500  1
  P  P4  1  0.186600  0.225800  0.055500  1
  H  H5  1  0.469900  0.069400  0.312800  1
  H  H6  1  0.530100  0.930600  0.687200  1
  H  H7  1  0.591700  0.100700  0.276900  1
  H  H8  1  0.408300  0.899300  0.723100  1
  H  H9  1  0.470800  0.023200  0.216000  1
  H  H10  1  0.529200  0.976800  0.784000  1
  H  H11  1  0.467800  0.183000  0.157800  1
  H  H12  1  0.532200  0.817000  0.842200  1
  H  H13  1  0.468400  0.083900  0.136100  1
  H  H14  1  0.531600  0.916100  0.863900  1
  H  H15  1  0.588800  0.161500  0.197500  1
  H  H16  1  0.411200  0.838500  0.802500  1
  H  H17  1  0.751900  0.570100  0.845100  1
  H  H18  1  0.248100  0.429900  0.154900  1
  H  H19  1  0.847000  0.512700  0.856800  1
  H  H20  1  0.153000  0.487300  0.143200  1
  H  H21  1  0.703500  0.504400  0.881400  1
  H  H22  1  0.296500  0.495600  0.118600  1
  H  H23  1  0.691300  0.291800  0.721900  1
  H  H24  1  0.308700  0.708200  0.278100  1
  H  H25  1  0.672600  0.352500  0.813800  1
  H  H26  1  0.327400  0.647500  0.186200  1
  H  H27  1  0.815100  0.361100  0.788000  1
  H  H28  1  0.184900  0.638900  0.212000  1
  H  H29  1  0.001800  0.074900  0.096300  1
  H  H30  1  0.998200  0.925100  0.903700  1
  H  H31  1  0.970900  0.974800  0.078100  1
  H  H32  1  0.029100  0.025200  0.921900  1
  H  H33  1  0.028700  0.050700  0.169300  1
  H  H34  1  0.971300  0.949300  0.830700  1
  H  H35  1  0.703500  0.960600  0.192800  1
  H  H36  1  0.296500  0.039400  0.807200  1
  H  H37  1  0.858500  0.987400  0.225100  1
  H  H38  1  0.141500  0.012600  0.774900  1
  H  H39  1  0.799400  0.909600  0.134900  1
  H  H40  1  0.200600  0.090400  0.865100  1
  H  H41  1  0.307200  0.352100  0.864300  1
  H  H42  1  0.692800  0.647900  0.135700  1
  H  H43  1  0.185200  0.274400  0.805300  1
  H  H44  1  0.814800  0.725600  0.194700  1
  H  H45  1  0.250300  0.276400  0.887500  1
  H  H46  1  0.749700  0.723600  0.112500  1
  H  H47  1  0.924800  0.302500  0.922600  1
  H  H48  1  0.075200  0.697500  0.077400  1
  H  H49  1  0.035600  0.249100  0.919700  1
  H  H50  1  0.964400  0.750900  0.080300  1
  H  H51  1  0.972600  0.248400  0.837600  1
  H  H52  1  0.027400  0.751600  0.162400  1
  H  H53  1  0.520500  0.462600  0.860000  1
  H  H54  1  0.479500  0.537400  0.140000  1
  H  H55  1  0.367000  0.461600  0.857400  1
  H  H56  1  0.633000  0.538400  0.142600  1
  H  H57  1  0.444200  0.445200  0.925400  1
  H  H58  1  0.555800  0.554800  0.074600  1
  H  H59  1  0.352500  0.648500  0.043700  1
  H  H60  1  0.647500  0.351500  0.956300  1
  H  H61  1  0.356500  0.553200  0.033000  1
  H  H62  1  0.643500  0.446800  0.967000  1
  H  H63  1  0.275900  0.563500  0.962000  1
  H  H64  1  0.724100  0.436500  0.038000  1
  H  H65  1  0.505900  0.194500  0.892400  1
  H  H66  1  0.494100  0.805500  0.107600  1
  H  H67  1  0.466800  0.139200  0.988000  1
  H  H68  1  0.533200  0.860800  0.012000  1
  H  H69  1  0.623400  0.088100  0.031700  1
  H  H70  1  0.376600  0.911900  0.968300  1
  H  H71  1  0.806600  0.064200  0.967100  1
  H  H72  1  0.193400  0.935800  0.032900  1
  H  H73  1  0.845400  0.117000  0.873900  1
  H  H74  1  0.154600  0.883000  0.126100  1
  H  H75  1  0.695500  0.180800  0.835600  1
  H  H76  1  0.304500  0.819200  0.164400  1
  H  H77  1  0.615000  0.540900  0.772900  1
  H  H78  1  0.385000  0.459100  0.227100  1
  H  H79  1  0.555300  0.486400  0.818000  1
  H  H80  1  0.444700  0.513600  0.182000  1
  H  H81  1  0.536000  0.441300  0.719900  1
  H  H82  1  0.464000  0.558700  0.280100  1
  H  H83  1  0.735400  0.317900  0.769300  1
  H  H84  1  0.264600  0.682100  0.230700  1
  H  H85  1  0.605500  0.315900  0.716700  1
  H  H86  1  0.394500  0.684100  0.283300  1
  H  H87  1  0.622100  0.361000  0.814700  1
  H  H88  1  0.377900  0.639000  0.185300  1
  H  H89  1  0.035000  0.084800  0.122700  1
  H  H90  1  0.965000  0.915200  0.877300  1
  H  H91  1  0.902200  0.013800  0.070300  1
  H  H92  1  0.097800  0.986200  0.929700  1
  H  H93  1  0.014700  0.987600  0.112000  1
  H  H94  1  0.985300  0.012400  0.888000  1
  H  H95  1  0.749300  0.967600  0.223400  1
  H  H96  1  0.250700  0.032400  0.776600  1
  H  H97  1  0.838900  0.919900  0.158200  1
  H  H98  1  0.161100  0.080100  0.841800  1
  H  H99  1  0.722600  0.955700  0.132000  1
  H  H100  1  0.277400  0.044300  0.868000  1
  H  H101  1  0.031500  0.242300  0.806200  1
  H  H102  1  0.968500  0.757700  0.193800  1
  H  H103  1  0.125400  0.255900  0.885400  1
  H  H104  1  0.874600  0.744100  0.114600  1
  H  H105  1  0.169900  0.311700  0.838700  1
  H  H106  1  0.830100  0.688300  0.161300  1
  H  H107  1  0.127300  0.480200  0.032100  1
  H  H108  1  0.872700  0.519800  0.967900  1
  H  H109  1  0.219400  0.450000  0.963500  1
  H  H110  1  0.780600  0.550000  0.036500  1
  H  H111  1  0.185900  0.396000  0.013200  1
  H  H112  1  0.814100  0.604000  0.986800  1
  H  H113  1  0.000900  0.433600  0.986000  1
  H  H114  1  0.999100  0.566400  0.014000  1
  H  H115  1  0.132500  0.397700  0.974400  1
  H  H116  1  0.867500  0.602300  0.025600  1
  H  H117  1  0.006100  0.344700  0.989900  1
  H  H118  1  0.993900  0.655300  0.010100  1
  H  H119  1  0.047700  0.199200  0.786600  1
  H  H120  1  0.952300  0.800800  0.213400  1
  H  H121  1  0.042400  0.217000  0.879200  1
  H  H122  1  0.957600  0.783000  0.120800  1
  H  H123  1  0.161600  0.271200  0.859100  1
  H  H124  1  0.838400  0.728800  0.140900  1
  H  H125  1  0.555000  0.443200  0.856100  1
  H  H126  1  0.445000  0.556800  0.143900  1
  H  H127  1  0.506500  0.470700  0.942900  1
  H  H128  1  0.493500  0.529300  0.057100  1
  H  H129  1  0.607300  0.540800  0.928800  1
  H  H130  1  0.392700  0.459200  0.071200  1
  H  H131  1  0.328500  0.631000  0.963500  1
  H  H132  1  0.671500  0.369000  0.036500  1
  H  H133  1  0.483700  0.643300  0.986100  1
  H  H134  1  0.516300  0.356700  0.013900  1
  H  H135  1  0.383000  0.574200  0.001400  1
  H  H136  1  0.617000  0.425800  0.998600  1
  H  H137  1  0.812400  0.547100  0.659000  1.0
  H  H138  1  0.187600  0.452900  0.341000  1.0
  H  H139  1  0.830000  0.697200  0.745800  1.0
  H  H140  1  0.170000  0.302800  0.254200  1.0
  H  H141  1  0.862800  0.794700  0.689600  1.0
  H  H142  1  0.137200  0.205300  0.310400  1.0
  H  H143  1  0.875300  0.743000  0.551800  1.0
  H  H144  1  0.124700  0.257000  0.448200  1.0
  H  H145  1  0.781900  0.400800  0.560600  1.0
  H  H146  1  0.218100  0.599200  0.439400  1.0
  H  H147  1  0.806100  0.248500  0.321200  1.0
  H  H148  1  0.193900  0.751500  0.678800  1.0
  H  H149  1  0.844800  0.258300  0.201400  1.0
  H  H150  1  0.155200  0.741700  0.798600  1.0
  H  H151  1  0.879800  0.279900  0.088700  1.0
  H  H152  1  0.120200  0.720100  0.911300  1.0
  H  H153  1  0.916800  0.422800  0.104600  1.0
  H  H154  1  0.083200  0.577200  0.895400  1.0
  H  H155  1  0.912200  0.538000  0.229900  1.0
  H  H156  1  0.087800  0.462000  0.770100  1.0
  H  H157  1  0.625000  0.276500  0.533100  1.0
  H  H158  1  0.375000  0.723500  0.466900  1.0
  H  H159  1  0.673100  0.036700  0.492400  1.0
  H  H160  1  0.326900  0.963300  0.507600  1.0
  H  H161  1  0.825900  0.042900  0.407700  1.0
  H  H162  1  0.174100  0.957100  0.592300  1.0
  H  H163  1  0.874600  0.163300  0.380800  1.0
  H  H164  1  0.125400  0.836700  0.619200  1.0
  H  H165  1  0.409400  0.212800  0.536500  1.0
  H  H166  1  0.590600  0.787200  0.463500  1.0
  H  H167  1  0.284700  0.147300  0.709800  1.0
  H  H168  1  0.715300  0.852700  0.290200  1.0
  H  H169  1  0.469300  0.089200  0.712100  1.0
  H  H170  1  0.530700  0.910800  0.287900  1.0
  H  H171  1  0.623800  0.092300  0.627500  1.0
  H  H172  1  0.376200  0.907700  0.372500  1.0
  H  H173  1  0.299200  0.322600  0.605200  1.0
  H  H174  1  0.700800  0.677400  0.394800  1.0
  H  H175  1  0.923500  0.322100  0.628700  1.0
  H  H176  1  0.076500  0.677900  0.371300  1.0
  H  H177  1  0.899300  0.192100  0.637900  1.0
  H  H178  1  0.100700  0.807900  0.362100  1.0
  H  H179  1  0.077500  0.126800  0.631300  1.0
  H  H180  1  0.922500  0.873200  0.368700  1.0
  H  H181  1  0.461400  0.297500  0.428500  1.0
  H  H182  1  0.538600  0.702500  0.571500  1.0
  H  H183  1  0.502000  0.389000  0.370500  1.0
  H  H184  1  0.498000  0.611000  0.629500  1.0
  H  H185  1  0.536800  0.533900  0.392600  1.0
  H  H186  1  0.463200  0.466100  0.607400  1.0
  Pt  Pt187  1  0.867260  0.559253  0.403655  1.0
  Pt  Pt188  1  0.132740  0.440747  0.596345  1.0
  C  C189  1  0.496200  0.078700  0.266800  1
  C  C190  1  0.503800  0.921300  0.733200  1
  C  C191  1  0.493400  0.144700  0.179300  1
  C  C192  1  0.506600  0.855300  0.820700  1
  C  C193  1  0.755000  0.513500  0.842500  1
  C  C194  1  0.245000  0.486500  0.157500  1
  C  C195  1  0.721000  0.349900  0.769000  1
  C  C196  1  0.279000  0.650100  0.231000  1
  C  C197  1  0.227000  0.312000  0.862000  1
  C  C198  1  0.773000  0.688000  0.138000  1
  C  C199  1  0.000000  0.284000  0.897000  1
  C  C200  1  0.000000  0.716000  0.103000  1
  C  C201  1  0.451000  0.477500  0.893000  1
  C  C202  1  0.549000  0.522500  0.107000  1
  C  C203  1  0.355000  0.589000  0.004000  1
  C  C204  1  0.645000  0.411000  0.996000  1
  C  C205  1  0.568000  0.168300  0.907600  1
  C  C206  1  0.432000  0.831700  0.092400  1
  C  C207  1  0.546200  0.136700  0.965900  1
  C  C208  1  0.453800  0.863300  0.034100  1
  C  C209  1  0.635600  0.104000  0.989200  1
  C  C210  1  0.364400  0.896000  0.010800  1
  C  C211  1  0.746400  0.092500  0.953300  1
  C  C212  1  0.253600  0.907500  0.046700  1
  C  C213  1  0.767600  0.122400  0.897500  1
  C  C214  1  0.232400  0.877600  0.102500  1
  C  C215  1  0.678700  0.160300  0.874600  1
  C  C216  1  0.321300  0.839700  0.125400  1
  C  C217  1  0.596000  0.483000  0.771000  1
  C  C218  1  0.404000  0.517000  0.229000  1
  C  C219  1  0.668000  0.350300  0.767900  1
  C  C220  1  0.332000  0.649700  0.232100  1
  C  C221  1  0.095000  0.285000  0.855000  1
  C  C222  1  0.905000  0.715000  0.145000  1
  C  C223  1  0.152000  0.430000  0.989000  1
  C  C224  1  0.848000  0.570000  0.011000  1
  C  C225  1  0.036000  0.381000  0.964000  1
  C  C226  1  0.964000  0.619000  0.036000  1
  C  C227  1  0.067000  0.244000  0.844000  1
  C  C228  1  0.933000  0.756000  0.156000  1
  C  C229  1  0.532000  0.491000  0.903000  1
  C  C230  1  0.468000  0.509000  0.097000  1
  C  C231  1  0.399000  0.601000  0.965200  1
  C  C232  1  0.601000  0.399000  0.034800  1
  C  C233  1  0.833700  0.559500  0.556400  1.0
  C  C234  1  0.166300  0.440500  0.443600  1.0
  C  C235  1  0.825300  0.587700  0.637700  1.0
  C  C236  1  0.174700  0.412300  0.362300  1.0
  C  C237  1  0.835800  0.676500  0.689200  1.0
  C  C238  1  0.164200  0.323500  0.310800  1.0
  C  C239  1  0.855000  0.734000  0.655800  1.0
  C  C240  1  0.145000  0.266000  0.344200  1.0
  C  C241  1  0.862700  0.703000  0.573900  1.0
  C  C242  1  0.137300  0.297000  0.426100  1.0
  C  C243  1  0.822900  0.466500  0.496000  1.0
  C  C244  1  0.177100  0.533500  0.504000  1.0
  C  C245  1  0.796100  0.394500  0.508100  1.0
  C  C246  1  0.203900  0.605500  0.491900  1.0
  C  C247  1  0.789300  0.311300  0.443600  1.0
  C  C248  1  0.210700  0.688700  0.556400  1.0
  C  C249  1  0.810100  0.304100  0.366200  1.0
  C  C250  1  0.189900  0.695900  0.633800  1.0
  C  C251  1  0.836400  0.378500  0.356700  1.0
  C  C252  1  0.163600  0.621500  0.643300  1.0
  C  C253  1  0.856400  0.385300  0.281700  1.0
  C  C254  1  0.143600  0.614700  0.718300  1.0
  C  C255  1  0.858400  0.315600  0.206600  1.0
  C  C256  1  0.141600  0.684400  0.793400  1.0
  C  C257  1  0.879500  0.327900  0.140200  1.0
  C  C258  1  0.120500  0.672100  0.859800  1.0
  C  C259  1  0.900400  0.412200  0.149700  1.0
  C  C260  1  0.099600  0.587800  0.850300  1.0
  C  C261  1  0.897600  0.480500  0.224300  1.0
  C  C262  1  0.102400  0.519500  0.775700  1.0
  C  C263  1  0.755600  0.232600  0.456100  1.0
  C  C264  1  0.244400  0.767400  0.543900  1.0
  C  C265  1  0.664900  0.228600  0.507100  1.0
  C  C266  1  0.335100  0.771400  0.492900  1.0
  C  C267  1  0.631200  0.156100  0.521100  1.0
  C  C268  1  0.368800  0.843900  0.478900  1.0
  C  C269  1  0.693200  0.086400  0.483200  1.0
  C  C270  1  0.306800  0.913600  0.516800  1.0
  C  C271  1  0.784000  0.090100  0.432400  1.0
  C  C272  1  0.216000  0.909900  0.567600  1.0
  C  C273  1  0.814800  0.162200  0.417000  1.0
  C  C274  1  0.185200  0.837800  0.583000  1.0
  C  C275  1  0.532300  0.152400  0.573300  1.0
  C  C276  1  0.467700  0.847600  0.426700  1.0
  C  C277  1  0.421300  0.187400  0.571900  1.0
  C  C278  1  0.578700  0.812600  0.428100  1.0
  C  C279  1  0.327800  0.185000  0.622500  1.0
  C  C280  1  0.672200  0.815000  0.377500  1.0
  C  C281  1  0.346800  0.148600  0.675000  1.0
  C  C282  1  0.653200  0.851400  0.325000  1.0
  C  C283  1  0.457000  0.114200  0.676400  1.0
  C  C284  1  0.543000  0.885800  0.323600  1.0
  C  C285  1  0.549100  0.116000  0.626000  1.0
  C  C286  1  0.450900  0.884000  0.374000  1.0
  C  C287  1  0.209600  0.220300  0.620100  1.0
  C  C288  1  0.790400  0.779700  0.379900  1.0
  C  C289  1  0.217300  0.295600  0.612000  1.0
  C  C290  1  0.782700  0.704400  0.388000  1.0
  C  C291  1  0.996200  0.295400  0.624900  1.0
  C  C292  1  0.003800  0.704600  0.375100  1.0
  C  C293  1  0.981900  0.218400  0.631300  1.0
  C  C294  1  0.018100  0.781600  0.368700  1.0
  C  C295  1  0.087600  0.180100  0.628100  1.0
  C  C296  1  0.912400  0.819900  0.371900  1.0
  C  C297  1  0.477800  0.416000  0.487900  1.0
  C  C298  1  0.522200  0.584000  0.512100  1.0
  C  C299  1  0.500900  0.434800  0.423300  1.0
  C  C300  1  0.499100  0.565200  0.576700  1.0
  C  C301  1  0.522300  0.520300  0.436300  1.0
  C  C302  1  0.477700  0.479700  0.563700  1.0
  C  C303  1  0.970600  0.034600  0.118200  1.0
  C  C304  1  0.029400  0.965400  0.881800  1.0
  C  C305  1  0.790600  0.966500  0.177000  1.0
  C  C306  1  0.209400  0.033500  0.823000  1.0
  S  S307  1  0.418300  0.154500  0.257300  1
  S  S308  1  0.581700  0.845500  0.742700  1
  S  S309  1  0.690200  0.428700  0.741500  1
  S  S310  1  0.309800  0.571300  0.258500  1
  S  S311  1  0.809100  0.040660  0.138080  1
  S  S312  1  0.190900  0.959340  0.861920  1
  S  S313  1  0.118700  0.373200  0.916600  1
  S  S314  1  0.881300  0.626800  0.083400  1
  S  S315  1  0.490000  0.590400  0.960300  1
  S  S316  1  0.510000  0.409600  0.039700  1
  S  S317  1  0.399800  0.522000  0.868900  1
  S  S318  1  0.600200  0.478000  0.131100  1
  S  S319  1  0.742900  0.448500  0.773200  1
  S  S320  1  0.257100  0.551500  0.226800  1
  S  S321  1  0.898400  0.066100  0.207400  1
  S  S322  1  0.101600  0.933900  0.792600  1
  S  S323  1  0.019000  0.366400  0.918000  1
  S  S324  1  0.981000  0.633600  0.082000  1
  S  S325  1  0.981000  0.321000  0.857000  1
  S  S326  1  0.019000  0.679000  0.143000  1
  N  N327  1  0.853000  0.617600  0.524200  1.0
  N  N328  1  0.147000  0.382400  0.475800  1.0
  N  N329  1  0.841300  0.457300  0.421400  1.0
  N  N330  1  0.158700  0.542700  0.578600  1.0
  N  N331  1  0.874600  0.468200  0.290600  1.0
  N  N332  1  0.125400  0.531800  0.709400  1.0
  N  N333  1  0.112200  0.333100  0.613300  1.0
  N  N334  1  0.887800  0.666900  0.386700  1.0
  O  O335  1  0.491000  0.241900  0.325700  1
  O  O336  1  0.509000  0.758100  0.674300  1
  O  O337  1  0.811700  0.436000  0.699700  1
  O  O338  1  0.188300  0.564000  0.300300  1
  O  O339  1  0.069000  0.412500  0.865500  1
  O  O340  1  0.931000  0.587500  0.134500  1
  O  O341  1  0.461000  0.630000  0.903000  1
  O  O342  1  0.539000  0.370000  0.097000  1
  O  O343  1  0.449000  0.573000  0.824000  1
  O  O344  1  0.551000  0.427000  0.176000  1
  O  O345  1  0.777000  0.419600  0.687100  1
  O  O346  1  0.223000  0.580400  0.312900  1
  O  O347  1  0.985000  0.411500  0.868300  1
  O  O348  1  0.015000  0.588500  0.131700  1
  O  O349  1  0.055000  0.374000  0.820000  1
  O  O350  1  0.945000  0.626000  0.180000  1
  O  O351  1  0.450100  0.331000  0.475900  1.0
  O  O352  1  0.549900  0.669000  0.524100  1.0
  O  O353  1  0.818300  0.127900  0.209500  1.0
  O  O354  1  0.181700  0.872100  0.790500  1.0
  F  F355  1  0.303000  0.052500  0.384700  1
  F  F356  1  0.697000  0.947500  0.615300  1
  F  F357  1  0.127900  0.113900  0.409200  1
  F  F358  1  0.872100  0.886100  0.590800  1
  F  F359  1  0.159400  0.037700  0.279800  1
  F  F360  1  0.840600  0.962300  0.720200  1
  F  F361  1  0.994000  0.981400  0.326700  1
  F  F362  1  0.006000  0.018600  0.673300  1
  F  F363  1  0.166000  0.922000  0.303800  1
  F  F364  1  0.834000  0.078000  0.696200  1
  F  F365  1  0.138300  0.001300  0.431900  1
  F  F366  1  0.861700  0.998700  0.568100  1
  F  F367  1  0.702200  0.721400  0.866700  1
  F  F368  1  0.297800  0.278600  0.133300  1
  F  F369  1  0.856100  0.685900  0.928300  1
  F  F370  1  0.143900  0.314100  0.071700  1
  F  F371  1  0.717900  0.760500  0.001700  1
  F  F372  1  0.282100  0.239500  0.998300  1
  F  F373  1  0.772800  0.862600  0.960700  1
  F  F374  1  0.227200  0.137400  0.039300  1
  F  F375  1  0.913000  0.788500  0.887700  1
  F  F376  1  0.087000  0.211500  0.112300  1
  F  F377  1  0.929800  0.826500  0.020700  1
  F  F378  1  0.070200  0.173500  0.979300  1
