# generated using pymatgen
data_B3H58PtC52S4N4O11F12
_symmetry_space_group_name_H-M   'P 1'
_cell_length_a   10.39600000
_cell_length_b   17.03500000
_cell_length_c   18.22100000
_cell_angle_alpha   115.64300000
_cell_angle_beta   92.58400000
_cell_angle_gamma   100.46000000
_symmetry_Int_Tables_number   1
_chemical_formula_structural   B3H58PtC52S4N4O11F12
_chemical_formula_sum   'B6 H116 Pt2 C104 S8 N8 O22 F24'
_cell_volume   2832.73743496
_cell_formula_units_Z   2
loop_
 _symmetry_equiv_pos_site_id
 _symmetry_equiv_pos_as_xyz
  1  'x, y, z'
loop_
 _atom_site_type_symbol
 _atom_site_label
 _atom_site_symmetry_multiplicity
 _atom_site_fract_x
 _atom_site_fract_y
 _atom_site_fract_z
 _atom_site_occupancy
  B  B1  1  0.127200  0.019500  0.332000  1
  B  B2  1  0.872800  0.980500  0.668000  1
  B  B3  1  0.823400  0.780500  0.943300  1
  B  B4  1  0.176600  0.219500  0.056700  1
  B  B5  1  0.154400  0.033800  0.359500  1
  B  B6  1  0.845600  0.966200  0.640500  1
  H  H7  1  0.686300  0.959900  0.185700  1
  H  H8  1  0.313700  0.040100  0.814300  1
  H  H9  1  0.835900  0.978300  0.225200  1
  H  H10  1  0.164100  0.021700  0.774800  1
  H  H11  1  0.786100  0.905000  0.132000  1
  H  H12  1  0.213900  0.095000  0.868000  1
  H  H13  1  0.025500  0.072900  0.110500  1
  H  H14  1  0.974500  0.927100  0.889500  1
  H  H15  1  0.979500  0.969600  0.089400  1
  H  H16  1  0.020500  0.030400  0.910600  1
  H  H17  1  0.028700  0.043100  0.182600  1
  H  H18  1  0.971300  0.956900  0.817400  1
  H  H19  1  0.695200  0.277500  0.723800  1
  H  H20  1  0.304800  0.722500  0.276200  1
  H  H21  1  0.671600  0.337400  0.815800  1
  H  H22  1  0.328400  0.662600  0.184200  1
  H  H23  1  0.817300  0.346300  0.791000  1
  H  H24  1  0.182700  0.653700  0.209000  1
  H  H25  1  0.756800  0.558500  0.851800  1
  H  H26  1  0.243200  0.441500  0.148200  1
  H  H27  1  0.849500  0.496300  0.859700  1
  H  H28  1  0.150500  0.503700  0.140300  1
  H  H29  1  0.703100  0.486000  0.883300  1
  H  H30  1  0.296900  0.514000  0.116700  1
  H  H31  1  0.502600  0.837600  0.835900  1
  H  H32  1  0.497400  0.162400  0.164100  1
  H  H33  1  0.515900  0.932500  0.835400  1
  H  H34  1  0.484100  0.067500  0.164600  1
  H  H35  1  0.394900  0.851400  0.779600  1
  H  H36  1  0.605100  0.148600  0.220400  1
  H  H37  1  0.552500  0.902200  0.641700  1
  H  H38  1  0.447500  0.097800  0.358300  1
  H  H39  1  0.420400  0.884400  0.679400  1
  H  H40  1  0.579600  0.115600  0.320600  1
  H  H41  1  0.541000  0.965600  0.735300  1
  H  H42  1  0.459000  0.034400  0.264700  1
  H  H43  1  0.467100  0.171900  0.005100  1
  H  H44  1  0.532900  0.828100  0.994900  1
  H  H45  1  0.519200  0.219700  0.906400  1
  H  H46  1  0.480800  0.780300  0.093600  1
  H  H47  1  0.702800  0.189900  0.841600  1
  H  H48  1  0.297200  0.810100  0.158400  1
  H  H49  1  0.836100  0.111100  0.875800  1
  H  H50  1  0.163900  0.888900  0.124200  1
  H  H51  1  0.785600  0.063300  0.973700  1
  H  H52  1  0.214400  0.936700  0.026300  1
  H  H53  1  0.600500  0.093500  0.040000  1
  H  H54  1  0.399500  0.906500  0.960000  1
  H  H55  1  0.517900  0.678500  0.591300  1
  H  H56  1  0.482100  0.321500  0.408700  1
  H  H57  1  0.645700  0.294900  0.746000  1
  H  H58  1  0.354300  0.705100  0.254000  1
  H  H59  1  0.558200  0.354100  0.727500  1
  H  H60  1  0.441800  0.645900  0.272500  1
  H  H61  1  0.595100  0.370500  0.820000  1
  H  H62  1  0.404900  0.629500  0.180000  1
  H  H63  1  0.757700  0.574600  0.826600  1
  H  H64  1  0.242300  0.425400  0.173400  1
  H  H65  1  0.664400  0.525400  0.868700  1
  H  H66  1  0.335600  0.474600  0.131300  1
  H  H67  1  0.618300  0.510200  0.777600  1
  H  H68  1  0.381700  0.489800  0.222400  1
  H  H69  1  0.499400  0.434500  0.411100  1.0
  H  H70  1  0.500600  0.565500  0.588900  1.0
  H  H71  1  0.509400  0.379400  0.316200  1.0
  H  H72  1  0.490600  0.620600  0.683800  1.0
  H  H73  1  0.465100  0.469300  0.640000  1.0
  H  H74  1  0.534900  0.530700  0.360000  1.0
  H  H75  1  0.471500  0.322000  0.445900  1.0
  H  H76  1  0.528500  0.678000  0.554100  1.0
  H  H77  1  0.487700  0.442700  0.610400  1.0
  H  H78  1  0.512300  0.557300  0.389600  1.0
  H  H79  1  0.813400  0.548000  0.661300  1.0
  H  H80  1  0.186600  0.452000  0.338700  1.0
  H  H81  1  0.833500  0.701400  0.749600  1.0
  H  H82  1  0.166500  0.298600  0.250400  1.0
  H  H83  1  0.864800  0.802800  0.695100  1.0
  H  H84  1  0.135200  0.197200  0.304900  1.0
  H  H85  1  0.868400  0.752200  0.555100  1.0
  H  H86  1  0.131600  0.247800  0.444900  1.0
  H  H87  1  0.787100  0.401300  0.564800  1.0
  H  H88  1  0.212900  0.598700  0.435200  1.0
  H  H89  1  0.815000  0.249300  0.324500  1.0
  H  H90  1  0.185000  0.750700  0.675500  1.0
  H  H91  1  0.853500  0.262900  0.203800  1.0
  H  H92  1  0.146500  0.737100  0.796200  1.0
  H  H93  1  0.885500  0.289100  0.089400  1.0
  H  H94  1  0.114500  0.710900  0.910600  1.0
  H  H95  1  0.898400  0.434600  0.105500  1.0
  H  H96  1  0.101600  0.565400  0.894500  1.0
  H  H97  1  0.898800  0.547500  0.230000  1.0
  H  H98  1  0.101200  0.452500  0.770000  1.0
  H  H99  1  0.631900  0.273500  0.537700  1.0
  H  H100  1  0.368100  0.726500  0.462300  1.0
  H  H101  1  0.691000  0.029600  0.496200  1.0
  H  H102  1  0.309000  0.970400  0.503800  1.0
  H  H103  1  0.844000  0.039400  0.412000  1.0
  H  H104  1  0.156000  0.960600  0.588000  1.0
  H  H105  1  0.886200  0.161800  0.381200  1.0
  H  H106  1  0.113800  0.838200  0.618800  1.0
  H  H107  1  0.415100  0.200200  0.536200  1.0
  H  H108  1  0.584900  0.799800  0.463800  1.0
  H  H109  1  0.289300  0.138400  0.716000  1.0
  H  H110  1  0.710700  0.861600  0.284000  1.0
  H  H111  1  0.481100  0.085600  0.721900  1.0
  H  H112  1  0.518900  0.914400  0.278100  1.0
  H  H113  1  0.633300  0.085600  0.631900  1.0
  H  H114  1  0.366700  0.914400  0.368100  1.0
  H  H115  1  0.303400  0.313400  0.602800  1.0
  H  H116  1  0.696600  0.686600  0.397200  1.0
  H  H117  1  0.072100  0.687400  0.371500  1.0
  H  H118  1  0.927900  0.312600  0.628500  1.0
  H  H119  1  0.098800  0.820000  0.360500  1.0
  H  H120  1  0.901200  0.180000  0.639500  1.0
  H  H121  1  0.080800  0.116200  0.639000  1.0
  H  H122  1  0.919200  0.883800  0.361000  1.0
  Pt  Pt123  1  0.863320  0.566892  0.405755  1.0
  Pt  Pt124  1  0.136680  0.433108  0.594245  1.0
  C  C125  1  0.778000  0.963000  0.174700  1
  C  C126  1  0.222000  0.037000  0.825300  1
  C  C127  1  0.981000  0.030900  0.129900  1
  C  C128  1  0.019000  0.969100  0.870100  1
  C  C129  1  0.723000  0.336000  0.772000  1
  C  C130  1  0.277000  0.664000  0.228000  1
  C  C131  1  0.759000  0.499000  0.846000  1
  C  C132  1  0.241000  0.501000  0.154000  1
  C  C133  1  0.488700  0.867600  0.801800  1
  C  C134  1  0.511300  0.132400  0.198200  1
  C  C135  1  0.517000  0.904300  0.691300  1
  C  C136  1  0.483000  0.095700  0.308700  1
  C  C137  1  0.543000  0.159300  0.978800  1
  C  C138  1  0.457000  0.840700  0.021200  1
  C  C139  1  0.574000  0.187600  0.920200  1
  C  C140  1  0.426000  0.812400  0.079800  1
  C  C141  1  0.682000  0.170200  0.881900  1
  C  C142  1  0.318000  0.829800  0.118100  1
  C  C143  1  0.760000  0.123600  0.902400  1
  C  C144  1  0.240000  0.876400  0.097600  1
  C  C145  1  0.731000  0.095400  0.960200  1
  C  C146  1  0.269000  0.904600  0.039800  1
  C  C147  1  0.621000  0.113000  0.999500  1
  C  C148  1  0.379000  0.887000  0.000500  1
  C  C149  1  0.626000  0.354000  0.767000  1
  C  C150  1  0.374000  0.646000  0.233000  1
  C  C151  1  0.694000  0.520000  0.817000  1
  C  C152  1  0.306000  0.480000  0.183000  1
  C  C153  1  0.480500  0.438900  0.521700  1.0
  C  C154  1  0.519500  0.561100  0.478300  1.0
  C  C155  1  0.497400  0.472800  0.467300  1.0
  C  C156  1  0.502600  0.527200  0.532700  1.0
  C  C157  1  0.488400  0.438100  0.506700  1.0
  C  C158  1  0.511600  0.561900  0.493300  1.0
  C  C159  1  0.491500  0.383800  0.426700  1.0
  C  C160  1  0.508500  0.616200  0.573300  1.0
  C  C161  1  0.508000  0.417800  0.372400  1.0
  C  C162  1  0.492000  0.582200  0.627600  1.0
  C  C163  1  0.477500  0.493400  0.601900  1.0
  C  C164  1  0.522500  0.506600  0.398100  1.0
  C  C165  1  0.831900  0.563500  0.558800  1.0
  C  C166  1  0.168100  0.436500  0.441200  1.0
  C  C167  1  0.825700  0.590400  0.640100  1.0
  C  C168  1  0.174300  0.409600  0.359900  1.0
  C  C169  1  0.837600  0.681500  0.692600  1.0
  C  C170  1  0.162400  0.318500  0.307400  1.0
  C  C171  1  0.855100  0.740900  0.660400  1.0
  C  C172  1  0.144900  0.259100  0.339600  1.0
  C  C173  1  0.858700  0.710600  0.577200  1.0
  C  C174  1  0.141300  0.289400  0.422800  1.0
  C  C175  1  0.823100  0.469800  0.497700  1.0
  C  C176  1  0.176900  0.530200  0.502300  1.0
  C  C177  1  0.799600  0.395800  0.511600  1.0
  C  C178  1  0.200400  0.604200  0.488400  1.0
  C  C179  1  0.794300  0.310700  0.444800  1.0
  C  C180  1  0.205700  0.689300  0.555200  1.0
  C  C181  1  0.815500  0.305300  0.369400  1.0
  C  C182  1  0.184500  0.694700  0.630600  1.0
  C  C183  1  0.837600  0.382200  0.359200  1.0
  C  C184  1  0.162400  0.617800  0.640800  1.0
  C  C185  1  0.857300  0.390900  0.282400  1.0
  C  C186  1  0.142700  0.609100  0.717600  1.0
  C  C187  1  0.862300  0.321400  0.208400  1.0
  C  C188  1  0.137700  0.678600  0.791600  1.0
  C  C189  1  0.880100  0.336300  0.141200  1.0
  C  C190  1  0.119900  0.663700  0.858800  1.0
  C  C191  1  0.890000  0.422500  0.151500  1.0
  C  C192  1  0.110000  0.577500  0.848500  1.0
  C  C193  1  0.887900  0.488700  0.224700  1.0
  C  C194  1  0.112100  0.511300  0.775300  1.0
  C  C195  1  0.763600  0.230700  0.459400  1.0
  C  C196  1  0.236400  0.769300  0.540600  1.0
  C  C197  1  0.673300  0.225200  0.510800  1.0
  C  C198  1  0.326700  0.774800  0.489200  1.0
  C  C199  1  0.641600  0.149700  0.524200  1.0
  C  C200  1  0.358400  0.850300  0.475800  1.0
  C  C201  1  0.708900  0.080700  0.486400  1.0
  C  C202  1  0.291100  0.919300  0.513600  1.0
  C  C203  1  0.798900  0.086300  0.436100  1.0
  C  C204  1  0.201100  0.913700  0.563900  1.0
  C  C205  1  0.826800  0.159800  0.418800  1.0
  C  C206  1  0.173200  0.840200  0.581200  1.0
  C  C207  1  0.539400  0.144800  0.577600  1.0
  C  C208  1  0.460600  0.855200  0.422400  1.0
  C  C209  1  0.428100  0.176800  0.574100  1.0
  C  C210  1  0.571900  0.823200  0.425900  1.0
  C  C211  1  0.334700  0.175100  0.625700  1.0
  C  C212  1  0.665300  0.824900  0.374300  1.0
  C  C213  1  0.353200  0.140300  0.680700  1.0
  C  C214  1  0.646800  0.859700  0.319300  1.0
  C  C215  1  0.466500  0.108300  0.683700  1.0
  C  C216  1  0.533500  0.891700  0.316300  1.0
  C  C217  1  0.557700  0.109400  0.631000  1.0
  C  C218  1  0.442300  0.890600  0.369000  1.0
  C  C219  1  0.214800  0.210000  0.623300  1.0
  C  C220  1  0.785200  0.790000  0.376700  1.0
  C  C221  1  0.221400  0.286100  0.611600  1.0
  C  C222  1  0.778600  0.713900  0.388400  1.0
  C  C223  1  0.999400  0.714900  0.374900  1.0
  C  C224  1  0.000600  0.285100  0.625100  1.0
  C  C225  1  0.014500  0.792600  0.366600  1.0
  C  C226  1  0.985500  0.207400  0.633400  1.0
  C  C227  1  0.091300  0.169500  0.632900  1.0
  C  C228  1  0.908700  0.830500  0.367100  1.0
  S  S229  1  0.823300  0.043500  0.142000  1
  S  S230  1  0.176700  0.956500  0.858000  1
  S  S231  1  0.698300  0.419400  0.744700  1
  S  S232  1  0.301700  0.580600  0.255300  1
  S  S233  1  0.581300  0.834800  0.721900  1
  S  S234  1  0.418700  0.165200  0.278100  1
  S  S235  1  0.768100  0.431400  0.777300  1
  S  S236  1  0.231900  0.568600  0.222700  1
  N  N237  1  0.849000  0.623400  0.526400  1.0
  N  N238  1  0.151000  0.376600  0.473600  1.0
  N  N239  1  0.841600  0.461800  0.423400  1.0
  N  N240  1  0.158400  0.538200  0.576600  1.0
  N  N241  1  0.871400  0.476100  0.290800  1.0
  N  N242  1  0.128600  0.523900  0.709200  1.0
  N  N243  1  0.881600  0.677600  0.387800  1.0
  N  N244  1  0.118400  0.322400  0.612200  1.0
  O  O245  1  0.839300  0.133200  0.215700  1
  O  O246  1  0.160700  0.866800  0.784300  1
  O  O247  1  0.825500  0.434200  0.706700  1
  O  O248  1  0.174500  0.565800  0.293300  1
  O  O249  1  0.503600  0.743300  0.657300  1
  O  O250  1  0.496400  0.256700  0.342700  1
  O  O251  1  0.460000  0.425700  0.221000  1
  O  O252  1  0.540000  0.574300  0.779000  1
  O  O253  1  0.983000  0.641000  0.071000  1
  O  O254  1  0.017000  0.359000  0.929000  1
  O  O255  1  0.784700  0.418800  0.689900  1
  O  O256  1  0.215300  0.581200  0.310100  1
  O  O257  1  0.502000  0.385000  0.106000  1
  O  O258  1  0.498000  0.615000  0.894000  1
  O  O259  1  0.960000  0.763000  0.148000  1
  O  O260  1  0.040000  0.237000  0.852000  1
  O  O261  1  0.882000  0.653000  0.098000  1
  O  O262  1  0.118000  0.347000  0.902000  1
  O  O263  1  0.465500  0.347600  0.496300  1.0
  O  O264  1  0.534500  0.652400  0.503700  1.0
  O  O265  1  0.470800  0.401400  0.562000  1.0
  O  O266  1  0.529200  0.598600  0.438000  1.0
  F  F267  1  0.179700  0.959000  0.342700  1
  F  F268  1  0.820300  0.041000  0.657300  1
  F  F269  1  0.994700  0.989700  0.312600  1
  F  F270  1  0.005300  0.010300  0.687400  1
  F  F271  1  0.137000  0.099000  0.398400  1
  F  F272  1  0.863000  0.901000  0.601600  1
  F  F273  1  0.165000  0.039300  0.271100  1
  F  F274  1  0.835000  0.960700  0.728900  1
  F  F275  1  0.783000  0.839800  0.931800  1
  F  F276  1  0.217000  0.160200  0.068200  1
  F  F277  1  0.944700  0.805200  0.963500  1
  F  F278  1  0.055300  0.194800  0.036500  1
  F  F279  1  0.793000  0.709600  0.881300  1
  F  F280  1  0.207000  0.290400  0.118700  1
  F  F281  1  0.767000  0.773900  0.999300  1
  F  F282  1  0.233000  0.226100  0.000700  1
  F  F283  1  0.122000  0.016000  0.422600  1
  F  F284  1  0.878000  0.984000  0.577400  1
  F  F285  1  0.045000  0.048700  0.330400  1
  F  F286  1  0.955000  0.951300  0.669600  1
  F  F287  1  0.237000  0.115700  0.393500  1
  F  F288  1  0.763000  0.884300  0.606500  1
  F  F289  1  0.207000  0.971200  0.301700  1
  F  F290  1  0.793000  0.028800  0.698300  1
