# generated using pymatgen
data_NaVH16(CO)12
_symmetry_space_group_name_H-M   'P 1'
_cell_length_a   18.69400000
_cell_length_b   21.32200000
_cell_length_c   23.79800000
_cell_angle_alpha   100.18400000
_cell_angle_beta   90.00000000
_cell_angle_gamma   90.00000000
_symmetry_Int_Tables_number   1
_chemical_formula_structural   NaVH16(CO)12
_chemical_formula_sum   'Na14 V14 H224 C168 O168'
_cell_volume   9336.27991607
_cell_formula_units_Z   14
loop_
 _symmetry_equiv_pos_site_id
 _symmetry_equiv_pos_as_xyz
  1  'x, y, z'
loop_
 _atom_site_type_symbol
 _atom_site_label
 _atom_site_symmetry_multiplicity
 _atom_site_fract_x
 _atom_site_fract_y
 _atom_site_fract_z
 _atom_site_occupancy
  Na  Na1  1  0.685000  0.005690  0.661070  1
  Na  Na2  1  0.185000  0.994310  0.338930  1
  Na  Na3  1  0.688200  0.130550  0.492540  1
  Na  Na4  1  0.188200  0.869450  0.507460  1
  Na  Na5  1  0.720100  0.368610  0.509880  1
  Na  Na6  1  0.220100  0.631390  0.490120  1
  Na  Na7  1  0.759900  0.528190  0.683900  1
  Na  Na8  1  0.259900  0.471810  0.316100  1
  Na  Na9  1  0.783100  0.510100  0.893870  1
  Na  Na10  1  0.283100  0.489900  0.106130  1
  Na  Na11  1  0.766900  0.304800  0.977800  1
  Na  Na12  1  0.266900  0.695200  0.022200  1
  Na  Na13  1  0.722100  0.080400  0.875200  1
  Na  Na14  1  0.222100  0.919600  0.124800  1
  V  V15  1  0.689620  0.947850  0.780740  1
  V  V16  1  0.189620  0.052150  0.219260  1
  V  V17  1  0.668620  0.987130  0.521460  1
  V  V18  1  0.168620  0.012870  0.478540  1
  V  V19  1  0.697980  0.240380  0.409760  1
  V  V20  1  0.197980  0.759620  0.590240  1
  V  V21  1  0.746910  0.523470  0.544930  1
  V  V22  1  0.246910  0.476530  0.455070  1
  V  V23  1  0.782930  0.618100  0.812160  1
  V  V24  1  0.282930  0.381900  0.187840  1
  V  V25  1  0.794280  0.458910  0.017600  1
  V  V26  1  0.294280  0.541090  0.982400  1
  V  V27  1  0.748460  0.157940  0.005990  1
  V  V28  1  0.248460  0.842060  0.994010  1
  H  H29  1  0.089500  0.990300  0.811300  1
  H  H30  1  0.589500  0.009700  0.188700  1
  H  H31  1  0.065500  0.965400  0.598900  1
  H  H32  1  0.565500  0.034600  0.401100  1
  H  H33  1  0.068000  0.108400  0.438600  1
  H  H34  1  0.568000  0.891600  0.561400  1
  H  H35  1  0.131600  0.338500  0.574900  1
  H  H36  1  0.631600  0.661500  0.425100  1
  H  H37  1  0.086100  0.565800  0.736300  1
  H  H38  1  0.586100  0.434200  0.263700  1
  H  H39  1  0.145400  0.410400  0.898800  1
  H  H40  1  0.645400  0.589600  0.101200  1
  H  H41  1  0.128000  0.206800  0.962100  1
  H  H42  1  0.628000  0.793200  0.037900  1
  H  H43  1  0.368200  0.169700  0.773300  1
  H  H44  1  0.868200  0.830300  0.226700  1
  H  H45  1  0.334800  0.238800  0.948200  1
  H  H46  1  0.834800  0.761200  0.051800  1
  H  H47  1  0.453400  0.382100  0.034800  1
  H  H48  1  0.953400  0.617900  0.965200  1
  H  H49  1  0.434300  0.566800  0.905800  1
  H  H50  1  0.934300  0.433200  0.094200  1
  H  H51  1  0.424700  0.577100  0.638100  1
  H  H52  1  0.924700  0.422900  0.361900  1
  H  H53  1  0.340300  0.376000  0.483100  1
  H  H54  1  0.840300  0.624000  0.516900  1
  H  H55  1  0.342400  0.157500  0.662700  1
  H  H56  1  0.842400  0.842500  0.337300  1
  H  H57  1  0.882700  0.921900  0.659400  1
  H  H58  1  0.382700  0.078100  0.340600  1
  H  H59  1  0.841400  0.914400  0.748800  1
  H  H60  1  0.341400  0.085600  0.251200  1
  H  H61  1  0.804600  0.045700  0.767700  1
  H  H62  1  0.304600  0.954300  0.232300  1
  H  H63  1  0.913600  0.987700  0.829700  1
  H  H64  1  0.413600  0.012300  0.170300  1
  H  H65  1  0.934700  0.067300  0.747000  1
  H  H66  1  0.434700  0.932700  0.253000  1
  H  H67  1  0.050800  0.040000  0.742300  1
  H  H68  1  0.550800  0.960000  0.257700  1
  H  H69  1  0.030900  0.075000  0.805700  1
  H  H70  1  0.530900  0.925000  0.194300  1
  H  H71  1  0.884900  0.048500  0.454500  1
  H  H72  1  0.384900  0.951500  0.545500  1
  H  H73  1  0.826000  0.974400  0.492200  1
  H  H74  1  0.326000  0.025600  0.507800  1
  H  H75  1  0.784300  0.063900  0.588000  1
  H  H76  1  0.284300  0.936100  0.412000  1
  H  H77  1  0.885100  0.958900  0.591900  1
  H  H78  1  0.385100  0.041100  0.408100  1
  H  H79  1  0.915600  0.095100  0.602000  1
  H  H80  1  0.415600  0.904900  0.398000  1
  H  H81  1  0.038100  0.061500  0.587500  1
  H  H82  1  0.538100  0.938500  0.412500  1
  H  H83  1  0.006900  0.045600  0.645900  1
  H  H84  1  0.506900  0.954400  0.354100  1
  H  H85  1  0.923700  0.327500  0.434500  1
  H  H86  1  0.423700  0.672500  0.565500  1
  H  H87  1  0.856300  0.241700  0.392100  1
  H  H88  1  0.356300  0.758300  0.607900  1
  H  H89  1  0.807100  0.231800  0.506800  1
  H  H90  1  0.307100  0.768200  0.493200  1
  H  H91  1  0.893300  0.141600  0.433100  1
  H  H92  1  0.393300  0.858400  0.566900  1
  H  H93  1  0.935700  0.227400  0.536700  1
  H  H94  1  0.435700  0.772600  0.463300  1
  H  H95  1  0.056300  0.191900  0.511800  1
  H  H96  1  0.556300  0.808100  0.488200  1
  H  H97  1  0.008600  0.132500  0.522200  1
  H  H98  1  0.508600  0.867500  0.477800  1
  H  H99  1  0.970100  0.551300  0.626700  1
  H  H100  1  0.470100  0.448700  0.373300  1
  H  H101  1  0.907000  0.526700  0.544000  1
  H  H102  1  0.407000  0.473300  0.456000  1
  H  H103  1  0.843900  0.422600  0.587200  1
  H  H104  1  0.343900  0.577400  0.412800  1
  H  H105  1  0.940400  0.412200  0.491800  1
  H  H106  1  0.440400  0.587800  0.508200  1
  H  H107  1  0.957500  0.384400  0.604400  1
  H  H108  1  0.457500  0.615600  0.395600  1
  H  H109  1  0.035200  0.321800  0.530200  1
  H  H110  1  0.535200  0.678200  0.469800  1
  H  H111  1  0.070500  0.387300  0.520900  1
  H  H112  1  0.570500  0.612700  0.479100  1
  H  H113  1  0.988300  0.549700  0.882300  1
  H  H114  1  0.488300  0.450300  0.117700  1
  H  H115  1  0.942100  0.606400  0.818600  1
  H  H116  1  0.442100  0.393600  0.181400  1
  H  H117  1  0.872900  0.496600  0.766100  1
  H  H118  1  0.372900  0.503400  0.233900  1
  H  H119  1  0.977400  0.563400  0.714700  1
  H  H120  1  0.477400  0.436600  0.285300  1
  H  H121  1  0.992400  0.441700  0.748000  1
  H  H122  1  0.492400  0.558300  0.252000  1
  H  H123  1  0.070100  0.452700  0.675100  1
  H  H124  1  0.570100  0.547300  0.324900  1
  H  H125  1  0.113100  0.449200  0.733000  1
  H  H126  1  0.613100  0.550800  0.267000  1
  H  H127  1  0.988600  0.320400  0.005300  1
  H  H128  1  0.488600  0.679600  0.994700  1
  H  H129  1  0.949500  0.424600  0.011500  1
  H  H130  1  0.449500  0.575400  0.988500  1
  H  H131  1  0.873900  0.398100  0.907000  1
  H  H132  1  0.373900  0.601900  0.093000  1
  H  H133  1  0.995800  0.475400  0.925300  1
  H  H134  1  0.495800  0.524600  0.074700  1
  H  H135  1  0.972600  0.347300  0.866300  1
  H  H136  1  0.472600  0.652700  0.133700  1
  H  H137  1  0.090400  0.337900  0.836900  1
  H  H138  1  0.590400  0.662100  0.163100  1
  H  H139  1  0.052700  0.394800  0.812600  1
  H  H140  1  0.552700  0.605200  0.187400  1
  H  H141  1  0.932000  0.038200  0.908600  1
  H  H142  1  0.432000  0.961800  0.091400  1
  H  H143  1  0.905100  0.111000  0.988600  1
  H  H144  1  0.405100  0.889000  0.011400  1
  H  H145  1  0.843500  0.192300  0.908700  1
  H  H146  1  0.343500  0.807700  0.091300  1
  H  H147  1  0.960700  0.222000  0.985900  1
  H  H148  1  0.460700  0.778000  0.014100  1
  H  H149  1  0.965600  0.182600  0.866700  1
  H  H150  1  0.465600  0.817400  0.133300  1
  H  H151  1  0.094900  0.171600  0.869400  1
  H  H152  1  0.594900  0.828400  0.130600  1
  H  H153  1  0.071700  0.245700  0.890000  1
  H  H154  1  0.571700  0.754300  0.110000  1
  H  H155  1  0.505900  0.045200  0.895700  1
  H  H156  1  0.005900  0.954800  0.104300  1
  H  H157  1  0.539600  0.969300  0.816200  1
  H  H158  1  0.039600  0.030700  0.183800  1
  H  H159  1  0.606700  0.066700  0.761900  1
  H  H160  1  0.106700  0.933300  0.238100  1
  H  H161  1  0.481300  0.997100  0.722600  1
  H  H162  1  0.981300  0.002900  0.277400  1
  H  H163  1  0.475700  0.128400  0.774400  1
  H  H164  1  0.975700  0.871600  0.225600  1
  H  H165  1  0.382300  0.087600  0.705000  1
  H  H166  1  0.882300  0.912400  0.295000  1
  H  H167  1  0.356200  0.042200  0.748800  1
  H  H168  1  0.856200  0.957800  0.251200  1
  H  H169  1  0.567800  0.301300  0.050100  1
  H  H170  1  0.067800  0.698700  0.949900  1
  H  H171  1  0.605500  0.197000  0.038900  1
  H  H172  1  0.105500  0.803000  0.961100  1
  H  H173  1  0.639000  0.197000  0.920000  1
  H  H174  1  0.139000  0.803000  0.080000  1
  H  H175  1  0.535600  0.123100  0.959900  1
  H  H176  1  0.035600  0.876900  0.040100  1
  H  H177  1  0.490700  0.227500  0.893500  1
  H  H178  1  0.990700  0.772500  0.106500  1
  H  H179  1  0.417400  0.164800  0.980100  1
  H  H180  1  0.917400  0.835200  0.019900  1
  H  H181  1  0.404100  0.139700  0.912100  1
  H  H182  1  0.904100  0.860300  0.087900  1
  H  H183  1  0.590000  0.557700  0.966900  1
  H  H184  1  0.090000  0.442300  0.033100  1
  H  H185  1  0.637400  0.500200  0.029800  1
  H  H186  1  0.137400  0.499800  0.970200  1
  H  H187  1  0.671000  0.401200  0.938900  1
  H  H188  1  0.171000  0.598800  0.061100  1
  H  H189  1  0.572500  0.394400  0.028200  1
  H  H190  1  0.072500  0.605600  0.971800  1
  H  H191  1  0.540000  0.394400  0.910100  1
  H  H192  1  0.040000  0.605600  0.089900  1
  H  H193  1  0.424000  0.415600  0.936700  1
  H  H194  1  0.924000  0.584400  0.063300  1
  H  H195  1  0.447700  0.345900  0.945200  1
  H  H196  1  0.947700  0.654100  0.054800  1
  H  H197  1  0.558500  0.615600  0.726400  1
  H  H198  1  0.058500  0.384400  0.273600  1
  H  H199  1  0.624300  0.644700  0.807700  1
  H  H200  1  0.124300  0.355300  0.192300  1
  H  H201  1  0.667600  0.514200  0.803500  1
  H  H202  1  0.167600  0.485800  0.196500  1
  H  H203  1  0.577500  0.584600  0.889000  1
  H  H204  1  0.077500  0.415400  0.111000  1
  H  H205  1  0.540100  0.480600  0.798400  1
  H  H206  1  0.040100  0.519400  0.201600  1
  H  H207  1  0.414800  0.499300  0.803600  1
  H  H208  1  0.914800  0.500700  0.196400  1
  H  H209  1  0.441300  0.473100  0.860300  1
  H  H210  1  0.941300  0.526900  0.139700  1
  H  H211  1  0.518700  0.448500  0.497900  1
  H  H212  1  0.018700  0.551500  0.502100  1
  H  H213  1  0.587200  0.534800  0.537700  1
  H  H214  1  0.087200  0.465200  0.462300  1
  H  H215  1  0.644600  0.459200  0.614500  1
  H  H216  1  0.144600  0.540800  0.385500  1
  H  H217  1  0.552300  0.570000  0.645300  1
  H  H218  1  0.052300  0.430000  0.354700  1
  H  H219  1  0.511800  0.437400  0.641100  1
  H  H220  1  0.011800  0.562600  0.358900  1
  H  H221  1  0.394100  0.474700  0.642600  1
  H  H222  1  0.894100  0.525300  0.357400  1
  H  H223  1  0.435700  0.489200  0.702000  1
  H  H224  1  0.935700  0.510800  0.298000  1
  H  H225  1  0.481000  0.155200  0.455000  1
  H  H226  1  0.981000  0.844800  0.545000  1
  H  H227  1  0.541800  0.232200  0.411300  1
  H  H228  1  0.041800  0.767800  0.588700  1
  H  H229  1  0.607400  0.277200  0.520600  1
  H  H230  1  0.107400  0.722800  0.479400  1
  H  H231  1  0.504900  0.350700  0.465500  1
  H  H232  1  0.004900  0.649300  0.534500  1
  H  H233  1  0.480700  0.295900  0.568900  1
  H  H234  1  0.980700  0.704100  0.431100  1
  H  H235  1  0.361900  0.322500  0.552300  1
  H  H236  1  0.861900  0.677500  0.447700  1
  H  H237  1  0.411300  0.384500  0.556800  1
  H  H238  1  0.911300  0.615500  0.443200  1
  H  H239  1  0.467600  0.992100  0.639600  1
  H  H240  1  0.967600  0.007900  0.360400  1
  H  H241  1  0.510500  0.992700  0.544500  1
  H  H242  1  0.010500  0.007300  0.455500  1
  H  H243  1  0.594800  0.103600  0.588700  1
  H  H244  1  0.094800  0.896400  0.411300  1
  H  H245  1  0.470800  0.092500  0.514200  1
  H  H246  1  0.970800  0.907500  0.485800  1
  H  H247  1  0.482700  0.156400  0.631600  1
  H  H248  1  0.982700  0.843600  0.368400  1
  H  H249  1  0.386600  0.201200  0.570300  1
  H  H250  1  0.886600  0.798800  0.429700  1
  H  H251  1  0.346200  0.134300  0.567400  1
  H  H252  1  0.846200  0.865700  0.432600  1
  C  C253  1  0.879300  0.961900  0.688500  1
  C  C254  1  0.379300  0.038100  0.311500  1
  C  C255  1  0.826100  0.952800  0.733100  1
  C  C256  1  0.326100  0.047200  0.266900  1
  C  C257  1  0.821600  0.007300  0.782600  1
  C  C258  1  0.321600  0.992700  0.217400  1
  C  C259  1  0.898000  0.023000  0.809800  1
  C  C260  1  0.398000  0.977000  0.190200  1
  C  C261  1  0.949300  0.029100  0.763400  1
  C  C262  1  0.449300  0.970900  0.236600  1
  C  C263  1  0.023300  0.035800  0.777000  1
  C  C264  1  0.523300  0.964200  0.223000  1
  C  C265  1  0.875200  0.059400  0.496400  1
  C  C266  1  0.375200  0.940600  0.503600  1
  C  C267  1  0.813300  0.019400  0.509100  1
  C  C268  1  0.313300  0.980600  0.490900  1
  C  C269  1  0.799800  0.019800  0.570900  1
  C  C270  1  0.299800  0.980200  0.429100  1
  C  C271  1  0.870500  0.004200  0.605200  1
  C  C272  1  0.370500  0.995800  0.394800  1
  C  C273  1  0.927500  0.049900  0.585400  1
  C  C274  1  0.427500  0.950100  0.414600  1
  C  C275  1  0.003600  0.034300  0.603800  1
  C  C276  1  0.503600  0.965700  0.396200  1
  C  C277  1  0.907800  0.297300  0.459800  1
  C  C278  1  0.407800  0.702700  0.540200  1
  C  C279  1  0.843200  0.263000  0.431600  1
  C  C280  1  0.343200  0.737000  0.568400  1
  C  C281  1  0.822000  0.210800  0.467600  1
  C  C282  1  0.322000  0.789200  0.532400  1
  C  C283  1  0.881700  0.166800  0.471600  1
  C  C284  1  0.381700  0.833200  0.528400  1
  C  C285  1  0.946700  0.205300  0.497000  1
  C  C286  1  0.446700  0.794700  0.503000  1
  C  C287  1  0.015500  0.164300  0.496900  1
  C  C288  1  0.515500  0.835700  0.503100  1
  C  C289  1  0.949500  0.507400  0.617900  1
  C  C290  1  0.449500  0.492600  0.382100  1
  C  C291  1  0.889000  0.508100  0.577000  1
  C  C292  1  0.389000  0.491900  0.423000  1
  C  C293  1  0.862400  0.440800  0.554100  1
  C  C294  1  0.362400  0.559200  0.445900  1
  C  C295  1  0.921500  0.397600  0.526600  1
  C  C296  1  0.421500  0.602400  0.473400  1
  C  C297  1  0.976900  0.401600  0.571000  1
  C  C298  1  0.476900  0.598400  0.429000  1
  C  C299  1  0.048100  0.365200  0.549700  1
  C  C300  1  0.548100  0.634800  0.450300  1
  C  C301  1  0.970700  0.525800  0.844900  1
  C  C302  1  0.470700  0.474200  0.155100  1
  C  C303  1  0.918100  0.564900  0.820700  1
  C  C304  1  0.418100  0.435100  0.179300  1
  C  C305  1  0.895500  0.538500  0.763200  1
  C  C306  1  0.395500  0.461500  0.236800  1
  C  C307  1  0.955500  0.522600  0.721400  1
  C  C308  1  0.455500  0.477400  0.278600  1
  C  C309  1  0.012800  0.484700  0.746800  1
  C  C310  1  0.512800  0.515300  0.253200  1
  C  C311  1  0.079400  0.475100  0.714500  1
  C  C312  1  0.579400  0.524900  0.285500  1
  C  C313  1  0.970200  0.333800  0.969800  1
  C  C314  1  0.470200  0.666200  0.030200  1
  C  C315  1  0.921800  0.393300  0.983600  1
  C  C316  1  0.421800  0.606700  0.016400  1
  C  C317  1  0.904300  0.428100  0.934100  1
  C  C318  1  0.404300  0.571900  0.065900  1
  C  C319  1  0.965500  0.441900  0.901900  1
  C  C320  1  0.465500  0.558100  0.098100  1
  C  C321  1  0.006900  0.378500  0.888100  1
  C  C322  1  0.506900  0.621500  0.111900  1
  C  C323  1  0.070500  0.381400  0.847900  1
  C  C324  1  0.570500  0.618600  0.152100  1
  C  C325  1  0.922800  0.082800  0.903000  1
  C  C326  1  0.422800  0.917200  0.097000  1
  C  C327  1  0.880900  0.114200  0.951800  1
  C  C328  1  0.380900  0.885800  0.048200  1
  C  C329  1  0.869000  0.189400  0.945100  1
  C  C330  1  0.369000  0.810600  0.054900  1
  C  C331  1  0.940000  0.220100  0.946800  1
  C  C332  1  0.440000  0.779900  0.053200  1
  C  C333  1  0.987900  0.180400  0.904500  1
  C  C334  1  0.487900  0.819600  0.095500  1
  C  C335  1  0.067500  0.201800  0.897900  1
  C  C336  1  0.567500  0.798200  0.102100  1
  C  C337  1  0.518800  0.061400  0.860000  1
  C  C338  1  0.018800  0.938600  0.140000  1
  C  C339  1  0.566000  0.010700  0.820900  1
  C  C340  1  0.066000  0.989300  0.179100  1
  C  C341  1  0.577500  0.026900  0.758400  1
  C  C342  1  0.077500  0.973100  0.241600  1
  C  C343  1  0.506300  0.038900  0.733200  1
  C  C344  1  0.006300  0.961100  0.266800  1
  C  C345  1  0.456500  0.084100  0.770800  1
  C  C346  1  0.956500  0.915900  0.229200  1
  C  C347  1  0.381600  0.082100  0.745500  1
  C  C348  1  0.881600  0.917900  0.254500  1
  C  C349  1  0.571900  0.275800  0.010700  1
  C  C350  1  0.071900  0.724200  0.989300  1
  C  C351  1  0.622300  0.221700  0.009400  1
  C  C352  1  0.122300  0.778300  0.990600  1
  C  C353  1  0.619200  0.174900  0.950200  1
  C  C354  1  0.119200  0.825100  0.049800  1
  C  C355  1  0.552600  0.152200  0.934100  1
  C  C356  1  0.052600  0.847800  0.065900  1
  C  C357  1  0.489300  0.206800  0.928100  1
  C  C358  1  0.989300  0.793200  0.071900  1
  C  C359  1  0.418800  0.176200  0.941600  1
  C  C360  1  0.918800  0.823800  0.058400  1
  C  C361  1  0.594800  0.510700  0.954000  1
  C  C362  1  0.094800  0.489300  0.046000  1
  C  C363  1  0.650500  0.485600  0.988800  1
  C  C364  1  0.150500  0.514400  0.011200  1
  C  C365  1  0.656800  0.415300  0.979700  1
  C  C366  1  0.156800  0.584700  0.020300  1
  C  C367  1  0.586500  0.384600  0.987000  1
  C  C368  1  0.086500  0.615400  0.013000  1
  C  C369  1  0.527900  0.407900  0.951400  1
  C  C370  1  0.027900  0.592100  0.048600  1
  C  C371  1  0.454500  0.392000  0.959900  1
  C  C372  1  0.954500  0.608000  0.040100  1
  C  C373  1  0.572400  0.580100  0.746600  1
  C  C374  1  0.072400  0.419900  0.253400  1
  C  C375  1  0.636000  0.602000  0.784700  1
  C  C376  1  0.136000  0.398000  0.215300  1
  C  C377  1  0.652900  0.556000  0.826700  1
  C  C378  1  0.152900  0.444000  0.173300  1
  C  C379  1  0.590300  0.544000  0.863000  1
  C  C380  1  0.090300  0.456000  0.137000  1
  C  C381  1  0.523600  0.520700  0.823400  1
  C  C382  1  0.023600  0.479300  0.176600  1
  C  C383  1  0.446100  0.507700  0.837700  1
  C  C384  1  0.946100  0.492300  0.162300  1
  C  C385  1  0.536300  0.448700  0.537600  1
  C  C386  1  0.036300  0.551300  0.462400  1
  C  C387  1  0.601100  0.492300  0.546500  1
  C  C388  1  0.101100  0.507700  0.453500  1
  C  C389  1  0.627600  0.501300  0.606700  1
  C  C390  1  0.127600  0.498700  0.393300  1
  C  C391  1  0.565700  0.525800  0.650000  1
  C  C392  1  0.065700  0.474200  0.350000  1
  C  C393  1  0.499200  0.481100  0.634500  1
  C  C394  1  0.999200  0.518900  0.365500  1
  C  C395  1  0.433300  0.500100  0.663300  1
  C  C396  1  0.933300  0.499900  0.336700  1
  C  C397  1  0.501200  0.193500  0.480400  1
  C  C398  1  0.001200  0.806500  0.519600  1
  C  C399  1  0.562200  0.222800  0.447800  1
  C  C400  1  0.062200  0.777200  0.552200  1
  C  C401  1  0.586300  0.286400  0.484300  1
  C  C402  1  0.086300  0.713600  0.515700  1
  C  C403  1  0.523800  0.335100  0.499900  1
  C  C404  1  0.023800  0.664900  0.500100  1
  C  C405  1  0.465000  0.302200  0.530100  1
  C  C406  1  0.965000  0.697800  0.469900  1
  C  C407  1  0.400600  0.342500  0.533200  1
  C  C408  1  0.900600  0.657500  0.466800  1
  C  C409  1  0.488700  0.033000  0.632200  1
  C  C410  1  0.988700  0.967000  0.367800  1
  C  C411  1  0.538800  0.017800  0.576400  1
  C  C412  1  0.038800  0.982200  0.423600  1
  C  C413  1  0.564400  0.078400  0.558200  1
  C  C414  1  0.064400  0.921600  0.441800  1
  C  C415  1  0.499400  0.116700  0.546500  1
  C  C416  1  0.999400  0.883300  0.453500  1
  C  C417  1  0.454900  0.130700  0.599700  1
  C  C418  1  0.954900  0.869300  0.400300  1
  C  C419  1  0.378700  0.165200  0.590700  1
  C  C420  1  0.878700  0.834800  0.409300  1
  O  O421  1  0.678600  0.875000  0.790800  1
  O  O422  1  0.178600  0.125000  0.209200  1
  O  O423  1  0.655900  0.921600  0.476400  1
  O  O424  1  0.155900  0.078400  0.523600  1
  O  O425  1  0.688900  0.233000  0.339600  1
  O  O426  1  0.188900  0.767000  0.660400  1
  O  O427  1  0.748800  0.580600  0.506700  1
  O  O428  1  0.248800  0.419400  0.493300  1
  O  O429  1  0.794100  0.694200  0.830400  1
  O  O430  1  0.294100  0.305800  0.169600  1
  O  O431  1  0.808500  0.499500  0.080700  1
  O  O432  1  0.308500  0.500500  0.919300  1
  O  O433  1  0.743300  0.130800  0.068100  1
  O  O434  1  0.243300  0.869200  0.931900  1
  O  O435  1  0.698900  0.117800  0.686900  1
  O  O436  1  0.198900  0.882200  0.313100  1
  O  O437  1  0.716500  0.188000  0.585500  1
  O  O438  1  0.216500  0.812000  0.414500  1
  O  O439  1  0.723000  0.329300  0.594800  1
  O  O440  1  0.223000  0.670700  0.405200  1
  O  O441  1  0.744300  0.423600  0.700500  1
  O  O442  1  0.244300  0.576400  0.299500  1
  O  O443  1  0.754100  0.410000  0.830300  1
  O  O444  1  0.254100  0.590000  0.169700  1
  O  O445  1  0.759400  0.292100  0.876500  1
  O  O446  1  0.259400  0.707900  0.123500  1
  O  O447  1  0.721500  0.159300  0.819400  1
  O  O448  1  0.221500  0.840700  0.180600  1
  O  O449  1  0.770500  0.993200  0.821900  1
  O  O450  1  0.270500  0.006800  0.178100  1
  O  O451  1  0.754300  0.942800  0.715900  1
  O  O452  1  0.254300  0.057200  0.284100  1
  O  O453  1  0.634300  0.999700  0.840900  1
  O  O454  1  0.134300  0.000300  0.159100  1
  O  O455  1  0.620100  0.975300  0.732600  1
  O  O456  1  0.120100  0.024700  0.267400  1
  O  O457  1  0.743400  0.979600  0.577300  1
  O  O458  1  0.243400  0.020400  0.422700  1
  O  O459  1  0.743600  0.030500  0.487000  1
  O  O460  1  0.243600  0.969500  0.513000  1
  O  O461  1  0.600700  0.982500  0.585600  1
  O  O462  1  0.100700  0.017500  0.414400  1
  O  O463  1  0.605800  0.056500  0.508600  1
  O  O464  1  0.105800  0.943500  0.491400  1
  O  O465  1  0.761000  0.179100  0.437400  1
  O  O466  1  0.261000  0.820900  0.562600  1
  O  O467  1  0.780300  0.298200  0.429400  1
  O  O468  1  0.280300  0.701800  0.570600  1
  O  O469  1  0.620500  0.189800  0.435700  1
  O  O470  1  0.120500  0.810200  0.564300  1
  O  O471  1  0.641500  0.307400  0.452000  1
  O  O472  1  0.141500  0.692600  0.548000  1
  O  O473  1  0.803300  0.449200  0.518900  1
  O  O474  1  0.303300  0.550800  0.481100  1
  O  O475  1  0.826500  0.542900  0.598700  1
  O  O476  1  0.326500  0.457100  0.401300  1
  O  O477  1  0.663800  0.470000  0.513500  1
  O  O478  1  0.163800  0.530000  0.486500  1
  O  O479  1  0.684300  0.541800  0.611100  1
  O  O480  1  0.184300  0.458200  0.388900  1
  O  O481  1  0.838700  0.576800  0.747900  1
  O  O482  1  0.338700  0.423200  0.252100  1
  O  O483  1  0.853300  0.580200  0.855800  1
  O  O484  1  0.353300  0.419800  0.144200  1
  O  O485  1  0.703700  0.606700  0.757200  1
  O  O486  1  0.203700  0.393300  0.242800  1
  O  O487  1  0.714200  0.582800  0.858400  1
  O  O488  1  0.214200  0.417200  0.141600  1
  O  O489  1  0.858300  0.478200  0.959400  1
  O  O490  1  0.358300  0.521800  0.040600  1
  O  O491  1  0.856700  0.384400  0.011500  1
  O  O492  1  0.356700  0.615600  0.988500  1
  O  O493  1  0.721500  0.508800  0.981300  1
  O  O494  1  0.221500  0.491200  0.018700  1
  O  O495  1  0.714000  0.400500  0.012800  1
  O  O496  1  0.214000  0.599500  0.987200  1
  O  O497  1  0.824600  0.214900  0.995000  1
  O  O498  1  0.324600  0.785100  0.005000  1
  O  O499  1  0.808100  0.094500  0.952000  1
  O  O500  1  0.308100  0.905500  0.048000  1
  O  O501  1  0.691900  0.238400  0.022400  1
  O  O502  1  0.191900  0.761600  0.977600  1
  O  O503  1  0.666300  0.126900  0.958900  1
  O  O504  1  0.166300  0.873100  0.041100  1
  O  O505  1  0.888800  0.079400  0.850100  1
  O  O506  1  0.388800  0.920600  0.149900  1
  O  O507  1  0.944400  0.973100  0.716900  1
  O  O508  1  0.444400  0.026900  0.283100  1
  O  O509  1  0.047800  0.983200  0.798600  1
  O  O510  1  0.547800  0.016800  0.201400  1
  O  O511  1  0.856700  0.013500  0.661000  1
  O  O512  1  0.356700  0.986500  0.339000  1
  O  O513  1  0.934500  0.043200  0.524200  1
  O  O514  1  0.434500  0.956800  0.475800  1
  O  O515  1  0.023900  0.970500  0.587100  1
  O  O516  1  0.523900  0.029500  0.412900  1
  O  O517  1  0.859500  0.125900  0.509400  1
  O  O518  1  0.359500  0.874100  0.490600  1
  O  O519  1  0.964600  0.253300  0.460500  1
  O  O520  1  0.464600  0.746700  0.539500  1
  O  O521  1  0.031400  0.131200  0.438200  1
  O  O522  1  0.531400  0.868800  0.561800  1
  O  O523  1  0.891600  0.334600  0.512700  1
  O  O524  1  0.391600  0.665400  0.487300  1
  O  O525  1  0.003600  0.465300  0.590000  1
  O  O526  1  0.503600  0.534700  0.410000  1
  O  O527  1  0.096900  0.360200  0.589900  1
  O  O528  1  0.596900  0.639800  0.410100  1
  O  O529  1  0.927600  0.490200  0.668900  1
  O  O530  1  0.427600  0.509800  0.331100  1
  O  O531  1  0.029700  0.514100  0.805200  1
  O  O532  1  0.529700  0.485900  0.194800  1
  O  O533  1  0.109500  0.538400  0.713900  1
  O  O534  1  0.609500  0.461600  0.286100  1
  O  O535  1  0.939300  0.463400  0.853600  1
  O  O536  1  0.439300  0.536600  0.146400  1
  O  O537  1  0.027400  0.352300  0.935600  1
  O  O538  1  0.527400  0.647700  0.064400  1
  O  O539  1  0.127000  0.423400  0.870800  1
  O  O540  1  0.627000  0.576600  0.129200  1
  O  O541  1  0.929800  0.285200  0.936600  1
  O  O542  1  0.429800  0.714800  0.063400  1
  O  O543  1  0.987800  0.114000  0.907300  1
  O  O544  1  0.487800  0.886000  0.092700  1
  O  O545  1  0.084800  0.197000  0.955700  1
  O  O546  1  0.584800  0.803000  0.044300  1
  O  O547  1  0.524600  0.061700  0.680500  1
  O  O548  1  0.024600  0.938300  0.319500  1
  O  O549  1  0.452300  0.067600  0.826100  1
  O  O550  1  0.952300  0.932400  0.173900  1
  O  O551  1  0.351300  0.136100  0.781800  1
  O  O552  1  0.851300  0.863900  0.218200  1
  O  O553  1  0.553200  0.118200  0.874000  1
  O  O554  1  0.053200  0.881800  0.126000  1
  O  O555  1  0.502600  0.251500  0.989400  1
  O  O556  1  0.002600  0.748500  0.010600  1
  O  O557  1  0.377300  0.241400  0.937400  1
  O  O558  1  0.877300  0.758600  0.062600  1
  O  O559  1  0.594900  0.315800  0.970000  1
  O  O560  1  0.094900  0.684200  0.030000  1
  O  O561  1  0.529100  0.479700  0.965700  1
  O  O562  1  0.029100  0.520300  0.034300  1
  O  O563  1  0.431100  0.405000  0.015400  1
  O  O564  1  0.931100  0.595000  0.984600  1
  O  O565  1  0.612700  0.498200  0.896500  1
  O  O566  1  0.112700  0.501800  0.103500  1
  O  O567  1  0.516100  0.569900  0.782500  1
  O  O568  1  0.016100  0.430100  0.217500  1
  O  O569  1  0.435700  0.569500  0.871000  1
  O  O570  1  0.935700  0.430500  0.129000  1
  O  O571  1  0.589000  0.527100  0.705700  1
  O  O572  1  0.089000  0.472900  0.294300  1
  O  O573  1  0.483500  0.477900  0.575000  1
  O  O574  1  0.983500  0.522100  0.425000  1
  O  O575  1  0.415700  0.564400  0.668800  1
  O  O576  1  0.915700  0.435600  0.331200  1
  O  O577  1  0.556100  0.386700  0.540800  1
  O  O578  1  0.056100  0.613300  0.459200  1
  O  O579  1  0.444900  0.241700  0.494300  1
  O  O580  1  0.944900  0.758300  0.505700  1
  O  O581  1  0.376000  0.351800  0.478900  1
  O  O582  1  0.876000  0.648200  0.521100  1
  O  O583  1  0.527300  0.175500  0.531300  1
  O  O584  1  0.027300  0.824500  0.468700  1
  O  O585  1  0.433400  0.070200  0.614100  1
  O  O586  1  0.933400  0.929800  0.385900  1
  O  O587  1  0.347000  0.187800  0.644800  1
  O  O588  1  0.847000  0.812200  0.355200  1
