# generated using pymatgen
data_Si2P2H64PdC52S2N2(O5F3)2
_symmetry_space_group_name_H-M   'P 1'
_cell_length_a   14.03470000
_cell_length_b   14.06300000
_cell_length_c   18.41320000
_cell_angle_alpha   82.09200000
_cell_angle_beta   70.30300000
_cell_angle_gamma   62.14300000
_symmetry_Int_Tables_number   1
_chemical_formula_structural   Si2P2H64PdC52S2N2(O5F3)2
_chemical_formula_sum   'Si4 P4 H128 Pd2 C104 S4 N4 O20 F12'
_cell_volume   3024.20024573
_cell_formula_units_Z   2
loop_
 _symmetry_equiv_pos_site_id
 _symmetry_equiv_pos_as_xyz
  1  'x, y, z'
loop_
 _atom_site_type_symbol
 _atom_site_label
 _atom_site_symmetry_multiplicity
 _atom_site_fract_x
 _atom_site_fract_y
 _atom_site_fract_z
 _atom_site_occupancy
  Si  Si1  1  0.488210  0.227290  0.083530  1.0
  Si  Si2  1  0.511790  0.772710  0.916470  1.0
  Si  Si3  1  0.512490  0.322820  0.916140  1.0
  Si  Si4  1  0.487510  0.677180  0.083860  1.0
  P  P5  1  0.729970  0.405150  0.341420  1.0
  P  P6  1  0.270030  0.594850  0.658580  1.0
  P  P7  1  0.742300  0.168850  0.330710  1.0
  P  P8  1  0.257700  0.831150  0.669290  1.0
  H  H9  1  0.006200  0.083300  0.474800  1
  H  H10  1  0.993800  0.916700  0.525200  1
  H  H11  1  0.020800  0.128400  0.389100  1
  H  H12  1  0.979200  0.871600  0.610900  1
  H  H13  1  0.055900  0.168800  0.448500  1
  H  H14  1  0.944100  0.831200  0.551500  1
  H  H15  1  0.326600  0.975800  0.328100  1
  H  H16  1  0.673400  0.024200  0.671900  1
  H  H17  1  0.260900  0.100000  0.354300  1
  H  H18  1  0.739100  0.900000  0.645700  1
  H  H19  1  0.226600  0.058800  0.294700  1
  H  H20  1  0.773400  0.941200  0.705300  1
  H  H21  1  0.115100  0.275300  0.540300  1
  H  H22  1  0.884900  0.724700  0.459700  1
  H  H23  1  0.195200  0.333000  0.522400  1
  H  H24  1  0.804800  0.667000  0.477600  1
  H  H25  1  0.155600  0.291400  0.607300  1
  H  H26  1  0.844400  0.708600  0.392700  1
  H  H27  1  0.440100  0.086500  0.531300  1
  H  H28  1  0.559900  0.913500  0.468700  1
  H  H29  1  0.360900  0.171800  0.601600  1
  H  H30  1  0.639100  0.828200  0.398400  1
  H  H31  1  0.403600  0.211800  0.516700  1
  H  H32  1  0.596400  0.788200  0.483300  1
  H  H33  1  0.024400  0.525600  0.188200  1
  H  H34  1  0.975600  0.474400  0.811800  1
  H  H35  1  0.136200  0.534900  0.182000  1
  H  H36  1  0.863800  0.465100  0.818000  1
  H  H37  1  0.093300  0.557300  0.108300  1
  H  H38  1  0.906700  0.442700  0.891700  1
  H  H39  1  0.004000  0.820700  0.175300  1
  H  H40  1  0.996000  0.179300  0.824700  1
  H  H41  1  0.079600  0.744700  0.099600  1
  H  H42  1  0.920400  0.255300  0.900400  1
  H  H43  1  0.124100  0.721200  0.172700  1
  H  H44  1  0.875900  0.278800  0.827300  1
  H  H45  1  0.495700  0.559800  0.371500  1.0
  H  H46  1  0.504300  0.440200  0.628500  1.0
  H  H47  1  0.399700  0.742200  0.347500  1.0
  H  H48  1  0.600300  0.257800  0.652500  1.0
  H  H49  1  0.502600  0.836700  0.285000  1.0
  H  H50  1  0.497400  0.163300  0.715000  1.0
  H  H51  1  0.698500  0.751100  0.245700  1.0
  H  H52  1  0.301500  0.248900  0.754300  1.0
  H  H53  1  0.795600  0.569400  0.272700  1.0
  H  H54  1  0.204400  0.430600  0.727300  1.0
  H  H55  1  0.812000  0.468300  0.441000  1.0
  H  H56  1  0.188000  0.531700  0.559000  1.0
  H  H57  1  0.988300  0.451100  0.434700  1.0
  H  H58  1  0.011700  0.548900  0.565300  1.0
  H  H59  1  0.149400  0.355000  0.334400  1.0
  H  H60  1  0.850600  0.645000  0.665600  1.0
  H  H61  1  0.135200  0.278200  0.236300  1.0
  H  H62  1  0.864800  0.721800  0.763700  1.0
  H  H63  1  0.959300  0.297300  0.239600  1.0
  H  H64  1  0.040700  0.702700  0.760400  1.0
  H  H65  1  0.659400  0.432700  0.474600  1.0
  H  H66  1  0.340600  0.567300  0.525400  1.0
  H  H67  1  0.577400  0.408800  0.445300  1.0
  H  H68  1  0.422600  0.591200  0.554700  1.0
  H  H69  1  0.794400  0.240000  0.446400  1.0
  H  H70  1  0.205600  0.760000  0.553600  1.0
  H  H71  1  0.686400  0.267600  0.522000  1.0
  H  H72  1  0.313600  0.732400  0.478000  1.0
  H  H73  1  0.593600  0.234500  0.445600  1.0
  H  H74  1  0.406400  0.765500  0.554400  1.0
  H  H75  1  0.697800  0.129700  0.461600  1.0
  H  H76  1  0.302200  0.870300  0.538400  1.0
  H  H77  1  0.959800  0.128900  0.223300  1.0
  H  H78  1  0.040200  0.871100  0.776700  1.0
  H  H79  1  0.143800  0.989300  0.199300  1.0
  H  H80  1  0.856200  0.010700  0.800700  1.0
  H  H81  1  0.179000  0.841800  0.279700  1.0
  H  H82  1  0.821000  0.158200  0.720300  1.0
  H  H83  1  0.032800  0.834000  0.383400  1.0
  H  H84  1  0.967200  0.166000  0.616600  1.0
  H  H85  1  0.848300  0.971800  0.407500  1.0
  H  H86  1  0.151700  0.028200  0.592500  1.0
  H  H87  1  0.808800  0.981300  0.240200  1.0
  H  H88  1  0.191200  0.018700  0.759800  1.0
  H  H89  1  0.707800  0.914800  0.202600  1.0
  H  H90  1  0.292200  0.085200  0.797400  1.0
  H  H91  1  0.512200  0.996200  0.247100  1.0
  H  H92  1  0.487800  0.003800  0.752900  1.0
  H  H93  1  0.413000  0.141000  0.334400  1.0
  H  H94  1  0.587000  0.859000  0.665600  1.0
  H  H95  1  0.510200  0.214300  0.368200  1.0
  H  H96  1  0.489800  0.785700  0.631800  1.0
  H  H97  1  0.901700  0.160900  0.108500  1.0
  H  H98  1  0.098300  0.839100  0.891500  1.0
  H  H99  1  0.900900  0.081500  0.007400  1.0
  H  H100  1  0.099100  0.918500  0.992600  1.0
  H  H101  1  0.730000  0.102900  0.998200  1.0
  H  H102  1  0.270000  0.897100  0.001800  1.0
  H  H103  1  0.567500  0.287100  0.192300  1.0
  H  H104  1  0.432500  0.712900  0.807700  1.0
  H  H105  1  0.421300  0.109500  0.064500  1.0
  H  H106  1  0.578700  0.890500  0.935500  1.0
  H  H107  1  0.505700  0.052400  0.115000  1.0
  H  H108  1  0.494300  0.947600  0.885000  1.0
  H  H109  1  0.555400  0.059900  0.023600  1.0
  H  H110  1  0.444600  0.940100  0.976400  1.0
  H  H111  1  0.296800  0.320100  0.158400  1.0
  H  H112  1  0.703200  0.679900  0.841600  1.0
  H  H113  1  0.367200  0.377000  0.168600  1.0
  H  H114  1  0.632800  0.623000  0.831400  1.0
  H  H115  1  0.374900  0.269000  0.213400  1.0
  H  H116  1  0.625100  0.731000  0.786600  1.0
  H  H117  1  0.647800  0.145700  0.870100  1.0
  H  H118  1  0.352200  0.854300  0.129900  1.0
  H  H119  1  0.590900  0.211000  0.805200  1.0
  H  H120  1  0.409100  0.789000  0.194800  1.0
  H  H121  1  0.523900  0.163600  0.876500  1.0
  H  H122  1  0.476100  0.836400  0.123500  1.0
  H  H123  1  0.568900  0.453500  0.923500  1.0
  H  H124  1  0.431100  0.546500  0.076500  1.0
  H  H125  1  0.622800  0.404900  0.837400  1.0
  H  H126  1  0.377200  0.595100  0.162600  1.0
  H  H127  1  0.677200  0.338200  0.903000  1.0
  H  H128  1  0.322800  0.661800  0.097000  1.0
  H  H129  1  0.434900  0.497000  0.808400  1.0
  H  H130  1  0.565100  0.503000  0.191600  1.0
  H  H131  1  0.101700  0.618600  0.870200  1.0
  H  H132  1  0.898300  0.381400  0.129800  1.0
  H  H133  1  0.103200  0.490500  0.964900  1.0
  H  H134  1  0.896800  0.509500  0.035100  1.0
  H  H135  1  0.274700  0.367200  0.984400  1.0
  H  H136  1  0.725300  0.632800  0.015600  1.0
  Pd  Pd137  1  0.735570  0.308540  0.249651  1.0
  Pd  Pd138  1  0.264430  0.691460  0.750349  1.0
  C  C139  1  0.237200  0.571900  0.356900  1
  C  C140  1  0.762800  0.428100  0.643100  1
  C  C141  1  0.162900  0.196200  0.970800  1
  C  C142  1  0.837100  0.803800  0.029200  1
  C  C143  1  0.053300  0.107200  0.431600  1
  C  C144  1  0.946700  0.892800  0.568400  1
  C  C145  1  0.169800  0.018000  0.405200  1
  C  C146  1  0.830200  0.982000  0.594800  1
  C  C147  1  0.253000  0.040000  0.340100  1
  C  C148  1  0.747000  0.960000  0.659900  1
  C  C149  1  0.177700  0.276600  0.552000  1
  C  C150  1  0.822300  0.723400  0.448000  1
  C  C151  1  0.278300  0.171700  0.531000  1
  C  C152  1  0.721700  0.828300  0.469000  1
  C  C153  1  0.379000  0.159400  0.546400  1
  C  C154  1  0.621000  0.840600  0.453600  1
  C  C155  1  0.069200  0.564700  0.164600  1
  C  C156  1  0.930800  0.435300  0.835400  1
  C  C157  1  0.001200  0.677100  0.187100  1
  C  C158  1  0.998800  0.322900  0.812900  1
  C  C159  1  0.056800  0.746700  0.156100  1
  C  C160  1  0.943200  0.253300  0.843900  1
  C  C161  1  0.537200  0.599100  0.346700  1.0
  C  C162  1  0.462800  0.400900  0.653300  1.0
  C  C163  1  0.480200  0.706800  0.332100  1.0
  C  C164  1  0.519800  0.293200  0.667900  1.0
  C  C165  1  0.541500  0.762500  0.294900  1.0
  C  C166  1  0.458500  0.237500  0.705100  1.0
  C  C167  1  0.657400  0.712200  0.272200  1.0
  C  C168  1  0.342600  0.287800  0.727800  1.0
  C  C169  1  0.715100  0.604100  0.287800  1.0
  C  C170  1  0.284900  0.395900  0.712200  1.0
  C  C171  1  0.655300  0.547700  0.325100  1.0
  C  C172  1  0.344700  0.452300  0.674900  1.0
  C  C173  1  0.868600  0.383200  0.340900  1.0
  C  C174  1  0.131400  0.616800  0.659100  1.0
  C  C175  1  0.877400  0.429700  0.399200  1.0
  C  C176  1  0.122600  0.570300  0.600800  1.0
  C  C177  1  0.982400  0.418900  0.395400  1.0
  C  C178  1  0.017600  0.581100  0.604600  1.0
  C  C179  1  0.077900  0.362600  0.335800  1.0
  C  C180  1  0.922100  0.637400  0.664200  1.0
  C  C181  1  0.069400  0.317000  0.277800  1.0
  C  C182  1  0.930600  0.683000  0.722200  1.0
  C  C183  1  0.964900  0.327900  0.280000  1.0
  C  C184  1  0.035100  0.672100  0.720000  1.0
  C  C185  1  0.657800  0.386000  0.439900  1.0
  C  C186  1  0.342200  0.614000  0.560100  1.0
  C  C187  1  0.710700  0.269400  0.465000  1.0
  C  C188  1  0.289300  0.730600  0.535000  1.0
  C  C189  1  0.677100  0.198500  0.433900  1.0
  C  C190  1  0.322900  0.801500  0.566100  1.0
  C  C191  1  0.886000  0.064000  0.316900  1.0
  C  C192  1  0.114000  0.936000  0.683100  1.0
  C  C193  1  0.974400  0.068400  0.255800  1.0
  C  C194  1  0.025600  0.931600  0.744200  1.0
  C  C195  1  0.083700  0.985900  0.241500  1.0
  C  C196  1  0.916300  0.014100  0.758500  1.0
  C  C197  1  0.104300  0.898900  0.289200  1.0
  C  C198  1  0.895700  0.101100  0.710800  1.0
  C  C199  1  0.017300  0.894100  0.350700  1.0
  C  C200  1  0.982700  0.105900  0.649300  1.0
  C  C201  1  0.907900  0.975700  0.365200  1.0
  C  C202  1  0.092100  0.024300  0.634800  1.0
  C  C203  1  0.669800  0.105000  0.308400  1.0
  C  C204  1  0.330200  0.895000  0.691600  1.0
  C  C205  1  0.728200  0.015100  0.258700  1.0
  C  C206  1  0.271800  0.984900  0.741300  1.0
  C  C207  1  0.668200  0.975600  0.236700  1.0
  C  C208  1  0.331800  0.024400  0.763300  1.0
  C  C209  1  0.552400  0.023300  0.263500  1.0
  C  C210  1  0.447600  0.976700  0.736500  1.0
  C  C211  1  0.493300  0.110300  0.314100  1.0
  C  C212  1  0.506700  0.889700  0.685900  1.0
  C  C213  1  0.551100  0.152400  0.335200  1.0
  C  C214  1  0.448900  0.847600  0.664800  1.0
  C  C215  1  0.831500  0.170600  0.105400  1.0
  C  C216  1  0.168500  0.829400  0.894600  1.0
  C  C217  1  0.831400  0.123400  0.045200  1.0
  C  C218  1  0.168600  0.876600  0.954800  1.0
  C  C219  1  0.730000  0.136800  0.039400  1.0
  C  C220  1  0.270000  0.863200  0.960600  1.0
  C  C221  1  0.628000  0.200200  0.094100  1.0
  C  C222  1  0.372000  0.799800  0.905900  1.0
  C  C223  1  0.635900  0.244500  0.153900  1.0
  C  C224  1  0.364100  0.755500  0.846100  1.0
  C  C225  1  0.493200  0.096900  0.070100  1.0
  C  C226  1  0.506800  0.903100  0.929900  1.0
  C  C227  1  0.367700  0.307800  0.165600  1.0
  C  C228  1  0.632300  0.692200  0.834400  1.0
  C  C229  1  0.576300  0.195800  0.860400  1.0
  C  C230  1  0.423700  0.804200  0.139600  1.0
  C  C231  1  0.606300  0.387400  0.892200  1.0
  C  C232  1  0.393700  0.612600  0.107800  1.0
  C  C233  1  0.375200  0.419000  0.898600  1.0
  C  C234  1  0.624800  0.581000  0.101400  1.0
  C  C235  1  0.366900  0.496100  0.841600  1.0
  C  C236  1  0.633100  0.503900  0.158400  1.0
  C  C237  1  0.172000  0.567100  0.876800  1.0
  C  C238  1  0.828000  0.432900  0.123200  1.0
  C  C239  1  0.172100  0.491700  0.933900  1.0
  C  C240  1  0.827900  0.508300  0.066100  1.0
  C  C241  1  0.273800  0.418500  0.944900  1.0
  C  C242  1  0.726200  0.581500  0.055100  1.0
  S  S243  1  0.352860  0.439490  0.361840  1
  S  S244  1  0.647140  0.560510  0.638160  1
  S  S245  1  0.161490  0.178170  0.070290  1
  S  S246  1  0.838510  0.821830  0.929710  1
  N  N247  1  0.734500  0.230600  0.160600  1.0
  N  N248  1  0.265500  0.769400  0.839400  1.0
  N  N249  1  0.267500  0.569900  0.830700  1.0
  N  N250  1  0.732500  0.430100  0.169300  1.0
  O  O251  1  0.440700  0.432500  0.291500  1
  O  O252  1  0.559300  0.567500  0.708500  1
  O  O253  1  0.375100  0.447800  0.430900  1
  O  O254  1  0.624900  0.552200  0.569100  1
  O  O255  1  0.305000  0.368200  0.365900  1
  O  O256  1  0.695000  0.631800  0.634100  1
  O  O257  1  0.045800  0.202200  0.111380  1
  O  O258  1  0.954200  0.797800  0.888620  1
  O  O259  1  0.240800  0.066700  0.071600  1
  O  O260  1  0.759200  0.933300  0.928400  1
  O  O261  1  0.195700  0.254600  0.081400  1
  O  O262  1  0.804300  0.745400  0.918600  1
  O  O263  1  0.195000  0.930800  0.435000  1
  O  O264  1  0.805000  0.069200  0.565000  1
  O  O265  1  0.279300  0.100300  0.502400  1
  O  O266  1  0.720700  0.899700  0.497600  1
  O  O267  1  0.905300  0.716800  0.227000  1
  O  O268  1  0.094700  0.283200  0.773000  1
  O  O269  1  0.479100  0.299100  0.006450  1.0
  O  O270  1  0.520900  0.700900  0.993550  1.0
  F  F271  1  0.266200  0.648900  0.355600  1
  F  F272  1  0.733800  0.351100  0.644400  1
  F  F273  1  0.144700  0.590400  0.416700  1
  F  F274  1  0.855300  0.409600  0.583300  1
  F  F275  1  0.207600  0.580100  0.295200  1
  F  F276  1  0.792400  0.419900  0.704800  1
  F  F277  1  0.089700  0.296400  0.960100  1
  F  F278  1  0.910300  0.703600  0.039900  1
  F  F279  1  0.130700  0.131300  0.950100  1
  F  F280  1  0.869300  0.868700  0.049900  1
  F  F281  1  0.263600  0.180000  0.922740  1
  F  F282  1  0.736400  0.820000  0.077260  1
