# generated using pymatgen
data_Ag3H54C80S9N6O19F12
_symmetry_space_group_name_H-M   'P 1'
_cell_length_a   15.98480000
_cell_length_b   23.01700000
_cell_length_c   24.50800000
_cell_angle_alpha   90.00000000
_cell_angle_beta   90.00000000
_cell_angle_gamma   90.00000000
_symmetry_Int_Tables_number   1
_chemical_formula_structural   Ag3H54C80S9N6O19F12
_chemical_formula_sum   'Ag12 H216 C320 S36 N24 O76 F48'
_cell_volume   9017.03584633
_cell_formula_units_Z   4
loop_
 _symmetry_equiv_pos_site_id
 _symmetry_equiv_pos_as_xyz
  1  'x, y, z'
loop_
 _atom_site_type_symbol
 _atom_site_label
 _atom_site_symmetry_multiplicity
 _atom_site_fract_x
 _atom_site_fract_y
 _atom_site_fract_z
 _atom_site_occupancy
  Ag  Ag1  1  0.798400  0.596600  0.331130  1
  Ag  Ag2  1  0.298400  0.403400  0.668870  1
  Ag  Ag3  1  0.298400  0.096600  0.168870  1
  Ag  Ag4  1  0.798400  0.903400  0.831130  1
  Ag  Ag5  1  0.807300  0.387440  0.184990  1
  Ag  Ag6  1  0.307300  0.612560  0.815010  1
  Ag  Ag7  1  0.307300  0.887440  0.315010  1
  Ag  Ag8  1  0.807300  0.112560  0.684990  1
  Ag  Ag9  1  0.465300  0.486220  0.249290  1
  Ag  Ag10  1  0.965300  0.513780  0.750710  1
  Ag  Ag11  1  0.965300  0.986220  0.250710  1
  Ag  Ag12  1  0.465300  0.013780  0.749290  1
  H  H13  1  0.031500  0.679500  0.208700  1
  H  H14  1  0.531500  0.320500  0.791300  1
  H  H15  1  0.531500  0.179500  0.291300  1
  H  H16  1  0.031500  0.820500  0.708700  1
  H  H17  1  0.971100  0.653700  0.295300  1
  H  H18  1  0.471100  0.346300  0.704700  1
  H  H19  1  0.471100  0.153700  0.204700  1
  H  H20  1  0.971100  0.846300  0.795300  1
  H  H21  1  0.840900  0.533100  0.054100  1
  H  H22  1  0.340900  0.466900  0.945900  1
  H  H23  1  0.340900  0.033100  0.445900  1
  H  H24  1  0.840900  0.966900  0.554100  1
  H  H25  1  0.966400  0.491600  0.026900  1
  H  H26  1  0.466400  0.508400  0.973100  1
  H  H27  1  0.466400  0.991600  0.473100  1
  H  H28  1  0.966400  0.008400  0.526900  1
  H  H29  1  0.022900  0.457000  0.185400  1
  H  H30  1  0.522900  0.543000  0.814600  1
  H  H31  1  0.522900  0.957000  0.314600  1
  H  H32  1  0.022900  0.043000  0.685400  1
  H  H33  1  0.895400  0.496100  0.211000  1
  H  H34  1  0.395400  0.503900  0.789000  1
  H  H35  1  0.395400  0.996100  0.289000  1
  H  H36  1  0.895400  0.003900  0.711000  1
  H  H37  1  0.097000  0.445400  0.048200  1
  H  H38  1  0.597000  0.554600  0.951800  1
  H  H39  1  0.597000  0.945400  0.451800  1
  H  H40  1  0.097000  0.054600  0.548200  1
  H  H41  1  0.135700  0.465500  0.103100  1
  H  H42  1  0.635700  0.534500  0.896900  1
  H  H43  1  0.635700  0.965500  0.396900  1
  H  H44  1  0.135700  0.034500  0.603100  1
  H  H45  1  0.094600  0.404600  0.098600  1
  H  H46  1  0.594600  0.595400  0.901400  1
  H  H47  1  0.594600  0.904600  0.401400  1
  H  H48  1  0.094600  0.095400  0.598600  1
  H  H49  1  0.705600  0.374000  0.988700  1
  H  H50  1  0.205600  0.626000  0.011300  1
  H  H51  1  0.205600  0.874000  0.511300  1
  H  H52  1  0.705600  0.126000  0.488700  1
  H  H53  1  0.767700  0.336300  0.069800  1
  H  H54  1  0.267700  0.663700  0.930200  1
  H  H55  1  0.267700  0.836300  0.430200  1
  H  H56  1  0.767700  0.163700  0.569800  1
  H  H57  1  0.488800  0.573800  0.090000  1
  H  H58  1  0.988800  0.426200  0.910000  1
  H  H59  1  0.988800  0.073800  0.410000  1
  H  H60  1  0.488800  0.926200  0.590000  1
  H  H61  1  0.368200  0.524000  0.061400  1
  H  H62  1  0.868200  0.476000  0.938600  1
  H  H63  1  0.868200  0.024000  0.438600  1
  H  H64  1  0.368200  0.976000  0.561400  1
  H  H65  1  0.447900  0.376100  0.131600  1
  H  H66  1  0.947900  0.623900  0.868400  1
  H  H67  1  0.947900  0.876100  0.368400  1
  H  H68  1  0.447900  0.123900  0.631600  1
  H  H69  1  0.567500  0.423300  0.162200  1
  H  H70  1  0.067500  0.576700  0.837800  1
  H  H71  1  0.067500  0.923300  0.337800  1
  H  H72  1  0.567500  0.076700  0.662200  1
  H  H73  1  0.314500  0.415100  0.034900  1
  H  H74  1  0.814500  0.584900  0.965100  1
  H  H75  1  0.814500  0.915100  0.465100  1
  H  H76  1  0.314500  0.084900  0.534900  1
  H  H77  1  0.318300  0.375500  0.086100  1
  H  H78  1  0.818300  0.624500  0.913900  1
  H  H79  1  0.818300  0.875500  0.413900  1
  H  H80  1  0.318300  0.124500  0.586100  1
  H  H81  1  0.269100  0.433500  0.088200  1
  H  H82  1  0.769100  0.566500  0.911800  1
  H  H83  1  0.769100  0.933500  0.411800  1
  H  H84  1  0.269100  0.066500  0.588200  1
  H  H85  1  0.362200  0.694600  0.206600  1
  H  H86  1  0.862200  0.305400  0.793400  1
  H  H87  1  0.862200  0.194600  0.293400  1
  H  H88  1  0.362200  0.805400  0.706600  1
  H  H89  1  0.348300  0.598700  0.245600  1
  H  H90  1  0.848300  0.401300  0.754400  1
  H  H91  1  0.848300  0.098700  0.254400  1
  H  H92  1  0.348300  0.901300  0.745600  1
  H  H93  1  0.725700  0.723100  0.190900  1
  H  H94  1  0.225700  0.276900  0.809100  1
  H  H95  1  0.225700  0.223100  0.309100  1
  H  H96  1  0.725700  0.776900  0.690900  1
  H  H97  1  0.703900  0.800700  0.250500  1
  H  H98  1  0.203900  0.199300  0.749500  1
  H  H99  1  0.203900  0.300700  0.249500  1
  H  H100  1  0.703900  0.699300  0.750500  1
  H  H101  1  0.603400  0.693700  0.362500  1
  H  H102  1  0.103400  0.306300  0.637500  1
  H  H103  1  0.103400  0.193700  0.137500  1
  H  H104  1  0.603400  0.806300  0.862500  1
  H  H105  1  0.624000  0.615100  0.303700  1
  H  H106  1  0.124000  0.384900  0.696300  1
  H  H107  1  0.124000  0.115100  0.196300  1
  H  H108  1  0.624000  0.884900  0.803700  1
  H  H109  1  0.579200  0.808700  0.358400  1
  H  H110  1  0.079200  0.191300  0.641600  1
  H  H111  1  0.079200  0.308700  0.141600  1
  H  H112  1  0.579200  0.691300  0.858400  1
  H  H113  1  0.667500  0.799600  0.383200  1
  H  H114  1  0.167500  0.200400  0.616800  1
  H  H115  1  0.167500  0.299600  0.116800  1
  H  H116  1  0.667500  0.700400  0.883200  1
  H  H117  1  0.655800  0.840500  0.333500  1
  H  H118  1  0.155800  0.159500  0.666500  1
  H  H119  1  0.155800  0.340500  0.166500  1
  H  H120  1  0.655800  0.659500  0.833500  1
  H  H121  1  0.661900  0.606200  0.519600  1
  H  H122  1  0.161900  0.393800  0.480400  1
  H  H123  1  0.161900  0.106200  0.980400  1
  H  H124  1  0.661900  0.893800  0.019600  1
  H  H125  1  0.736900  0.646500  0.441500  1
  H  H126  1  0.236900  0.353500  0.558500  1
  H  H127  1  0.236900  0.146500  0.058500  1
  H  H128  1  0.736900  0.853500  0.941500  1
  H  H129  1  0.822300  0.459400  0.456700  1
  H  H130  1  0.322300  0.540600  0.543300  1
  H  H131  1  0.322300  0.959400  0.043300  1
  H  H132  1  0.822300  0.040600  0.956700  1
  H  H133  1  0.943000  0.513100  0.480400  1
  H  H134  1  0.443000  0.486900  0.519600  1
  H  H135  1  0.443000  0.013100  0.019600  1
  H  H136  1  0.943000  0.986900  0.980400  1
  H  H137  1  0.998000  0.538100  0.323600  1
  H  H138  1  0.498000  0.461900  0.676400  1
  H  H139  1  0.498000  0.038100  0.176400  1
  H  H140  1  0.998000  0.961900  0.823600  1
  H  H141  1  0.878700  0.485700  0.297100  1
  H  H142  1  0.378700  0.514300  0.702900  1
  H  H143  1  0.378700  0.985700  0.202900  1
  H  H144  1  0.878700  0.014300  0.797100  1
  H  H145  1  0.058000  0.573300  0.458900  1
  H  H146  1  0.558000  0.426700  0.541100  1
  H  H147  1  0.558000  0.073300  0.041100  1
  H  H148  1  0.058000  0.926700  0.958900  1
  H  H149  1  0.102400  0.558900  0.404300  1
  H  H150  1  0.602400  0.441100  0.595700  1
  H  H151  1  0.602400  0.058900  0.095700  1
  H  H152  1  0.102400  0.941100  0.904300  1
  H  H153  1  0.040400  0.610600  0.407500  1
  H  H154  1  0.540400  0.389400  0.592500  1
  H  H155  1  0.540400  0.110600  0.092500  1
  H  H156  1  0.040400  0.889400  0.907500  1
  H  H157  1  0.028300  0.304000  0.316300  1
  H  H158  1  0.528300  0.696000  0.683700  1
  H  H159  1  0.528300  0.804000  0.183700  1
  H  H160  1  0.028300  0.196000  0.816300  1
  H  H161  1  0.978000  0.334200  0.227800  1
  H  H162  1  0.478000  0.665800  0.772200  1
  H  H163  1  0.478000  0.834200  0.272200  1
  H  H164  1  0.978000  0.165800  0.727800  1
  H  H165  1  0.721900  0.261300  0.339500  1
  H  H166  1  0.221900  0.738700  0.660500  1
  H  H167  1  0.221900  0.761300  0.160500  1
  H  H168  1  0.721900  0.238700  0.839500  1
  H  H169  1  0.716000  0.172100  0.294200  1
  H  H170  1  0.216000  0.827900  0.705800  1
  H  H171  1  0.216000  0.672100  0.205800  1
  H  H172  1  0.716000  0.327900  0.794200  1
  H  H173  1  0.629200  0.252800  0.159500  1
  H  H174  1  0.129200  0.747200  0.840500  1
  H  H175  1  0.129200  0.752800  0.340500  1
  H  H176  1  0.629200  0.247200  0.659500  1
  H  H177  1  0.628800  0.343000  0.206800  1
  H  H178  1  0.128800  0.657000  0.793200  1
  H  H179  1  0.128800  0.843000  0.293200  1
  H  H180  1  0.628800  0.157000  0.706800  1
  H  H181  1  0.614500  0.139900  0.180300  1
  H  H182  1  0.114500  0.860100  0.819700  1
  H  H183  1  0.114500  0.639900  0.319700  1
  H  H184  1  0.614500  0.360100  0.680300  1
  H  H185  1  0.704400  0.151000  0.159000  1
  H  H186  1  0.204400  0.849000  0.841000  1
  H  H187  1  0.204400  0.651000  0.341000  1
  H  H188  1  0.704400  0.349000  0.659000  1
  H  H189  1  0.690900  0.118000  0.213500  1
  H  H190  1  0.190900  0.882000  0.786500  1
  H  H191  1  0.190900  0.618000  0.286500  1
  H  H192  1  0.690900  0.382000  0.713500  1
  H  H193  1  0.355300  0.282200  0.291600  1
  H  H194  1  0.855300  0.717800  0.708400  1
  H  H195  1  0.855300  0.782200  0.208400  1
  H  H196  1  0.355300  0.217800  0.791600  1
  H  H197  1  0.354200  0.373000  0.241800  1
  H  H198  1  0.854200  0.627000  0.758200  1
  H  H199  1  0.854200  0.873000  0.258200  1
  H  H200  1  0.354200  0.127000  0.741800  1
  H  H201  1  0.544500  0.550400  0.338500  1
  H  H202  1  0.044500  0.449600  0.661500  1
  H  H203  1  0.044500  0.050400  0.161500  1
  H  H204  1  0.544500  0.949600  0.838500  1
  H  H205  1  0.419300  0.593900  0.365000  1
  H  H206  1  0.919300  0.406100  0.635000  1
  H  H207  1  0.919300  0.093900  0.135000  1
  H  H208  1  0.419300  0.906100  0.865000  1
  H  H209  1  0.348200  0.443200  0.436400  1
  H  H210  1  0.848200  0.556800  0.563600  1
  H  H211  1  0.848200  0.943200  0.063600  1
  H  H212  1  0.348200  0.056800  0.936400  1
  H  H213  1  0.477000  0.402800  0.413600  1
  H  H214  1  0.977000  0.597200  0.586400  1
  H  H215  1  0.977000  0.902800  0.086400  1
  H  H216  1  0.477000  0.097200  0.913600  1
  H  H217  1  0.280200  0.548800  0.456200  1
  H  H218  1  0.780200  0.451200  0.543800  1
  H  H219  1  0.780200  0.048800  0.043800  1
  H  H220  1  0.280200  0.951200  0.956200  1
  H  H221  1  0.284900  0.589600  0.405900  1
  H  H222  1  0.784900  0.410400  0.594100  1
  H  H223  1  0.784900  0.089600  0.094100  1
  H  H224  1  0.284900  0.910400  0.905900  1
  H  H225  1  0.243500  0.528900  0.400700  1
  H  H226  1  0.743500  0.471100  0.599300  1
  H  H227  1  0.743500  0.028900  0.099300  1
  H  H228  1  0.243500  0.971100  0.900700  1
  C  C229  1  0.763000  0.587900  0.186700  1
  C  C230  1  0.263000  0.412100  0.813300  1
  C  C231  1  0.263000  0.087900  0.313300  1
  C  C232  1  0.763000  0.912100  0.686700  1
  C  C233  1  0.770000  0.539800  0.152700  1
  C  C234  1  0.270000  0.460200  0.847300  1
  C  C235  1  0.270000  0.039800  0.347300  1
  C  C236  1  0.770000  0.960200  0.652700  1
  C  C237  1  0.697000  0.512400  0.135100  1
  C  C238  1  0.197000  0.487600  0.864900  1
  C  C239  1  0.197000  0.012400  0.364900  1
  C  C240  1  0.697000  0.987600  0.635100  1
  C  C241  1  0.618000  0.533900  0.149700  1
  C  C242  1  0.118000  0.466100  0.850300  1
  C  C243  1  0.118000  0.033900  0.350300  1
  C  C244  1  0.618000  0.966100  0.649700  1
  C  C245  1  0.611000  0.580900  0.184000  1
  C  C246  1  0.111000  0.419100  0.816000  1
  C  C247  1  0.111000  0.080900  0.316000  1
  C  C248  1  0.611000  0.919100  0.684000  1
  C  C249  1  0.684000  0.609700  0.203600  1
  C  C250  1  0.184000  0.390300  0.796400  1
  C  C251  1  0.184000  0.109700  0.296400  1
  C  C252  1  0.684000  0.890300  0.703600  1
  C  C253  1  0.840000  0.618900  0.205800  1
  C  C254  1  0.340000  0.381100  0.794200  1
  C  C255  1  0.340000  0.118900  0.294200  1
  C  C256  1  0.840000  0.881100  0.705800  1
  C  C257  1  0.977000  0.662400  0.213000  1
  C  C258  1  0.477000  0.337600  0.787000  1
  C  C259  1  0.477000  0.162400  0.287000  1
  C  C260  1  0.977000  0.837600  0.713000  1
  C  C261  1  0.943000  0.647500  0.261500  1
  C  C262  1  0.443000  0.352500  0.738500  1
  C  C263  1  0.443000  0.147500  0.238500  1
  C  C264  1  0.943000  0.852500  0.761500  1
  C  C265  1  0.854000  0.518500  0.135700  1
  C  C266  1  0.354000  0.481500  0.864300  1
  C  C267  1  0.354000  0.018500  0.364300  1
  C  C268  1  0.854000  0.981500  0.635700  1
  C  C269  1  0.877000  0.517100  0.080700  1
  C  C270  1  0.377000  0.482900  0.919300  1
  C  C271  1  0.377000  0.017100  0.419300  1
  C  C272  1  0.877000  0.982900  0.580700  1
  C  C273  1  0.952000  0.492800  0.064600  1
  C  C274  1  0.452000  0.507200  0.935400  1
  C  C275  1  0.452000  0.992800  0.435400  1
  C  C276  1  0.952000  0.007200  0.564600  1
  C  C277  1  0.008000  0.469600  0.103400  1
  C  C278  1  0.508000  0.530400  0.896600  1
  C  C279  1  0.508000  0.969600  0.396600  1
  C  C280  1  0.008000  0.030400  0.603400  1
  C  C281  1  0.986000  0.471800  0.158400  1
  C  C282  1  0.486000  0.528200  0.841600  1
  C  C283  1  0.486000  0.971800  0.341600  1
  C  C284  1  0.986000  0.028200  0.658400  1
  C  C285  1  0.910000  0.495500  0.173400  1
  C  C286  1  0.410000  0.504500  0.826600  1
  C  C287  1  0.410000  0.995500  0.326600  1
  C  C288  1  0.910000  0.004500  0.673400  1
  C  C289  1  0.091000  0.443900  0.086800  1
  C  C290  1  0.591000  0.556100  0.913200  1
  C  C291  1  0.591000  0.943900  0.413200  1
  C  C292  1  0.091000  0.056100  0.586800  1
  C  C293  1  0.705000  0.461800  0.097400  1
  C  C294  1  0.205000  0.538200  0.902600  1
  C  C295  1  0.205000  0.961800  0.402600  1
  C  C296  1  0.705000  0.038200  0.597400  1
  C  C297  1  0.709000  0.394900  0.022100  1
  C  C298  1  0.209000  0.605100  0.977900  1
  C  C299  1  0.209000  0.894900  0.477900  1
  C  C300  1  0.709000  0.105100  0.522100  1
  C  C301  1  0.743000  0.374000  0.067600  1
  C  C302  1  0.243000  0.626000  0.932400  1
  C  C303  1  0.243000  0.874000  0.432400  1
  C  C304  1  0.743000  0.126000  0.567600  1
  C  C305  1  0.541000  0.503200  0.129100  1
  C  C306  1  0.041000  0.496800  0.870900  1
  C  C307  1  0.041000  0.003200  0.370900  1
  C  C308  1  0.541000  0.996800  0.629100  1
  C  C309  1  0.481000  0.533900  0.098700  1
  C  C310  1  0.981000  0.466100  0.901300  1
  C  C311  1  0.981000  0.033900  0.401300  1
  C  C312  1  0.481000  0.966100  0.598700  1
  C  C313  1  0.409000  0.503400  0.081600  1
  C  C314  1  0.909000  0.496600  0.918400  1
  C  C315  1  0.909000  0.003400  0.418400  1
  C  C316  1  0.409000  0.996600  0.581600  1
  C  C317  1  0.394000  0.445600  0.092500  1
  C  C318  1  0.894000  0.554400  0.907500  1
  C  C319  1  0.894000  0.945600  0.407500  1
  C  C320  1  0.394000  0.054400  0.592500  1
  C  C321  1  0.455000  0.416000  0.123200  1
  C  C322  1  0.955000  0.584000  0.876800  1
  C  C323  1  0.955000  0.916000  0.376800  1
  C  C324  1  0.455000  0.084000  0.623200  1
  C  C325  1  0.527000  0.444100  0.141300  1
  C  C326  1  0.027000  0.555900  0.858700  1
  C  C327  1  0.027000  0.944100  0.358700  1
  C  C328  1  0.527000  0.055900  0.641300  1
  C  C329  1  0.317000  0.414600  0.073700  1
  C  C330  1  0.817000  0.585400  0.926300  1
  C  C331  1  0.817000  0.914600  0.426300  1
  C  C332  1  0.317000  0.085400  0.573700  1
  C  C333  1  0.529000  0.605600  0.198000  1
  C  C334  1  0.029000  0.394400  0.802000  1
  C  C335  1  0.029000  0.105600  0.302000  1
  C  C336  1  0.529000  0.894400  0.698000  1
  C  C337  1  0.405000  0.666000  0.206500  1
  C  C338  1  0.905000  0.334000  0.793500  1
  C  C339  1  0.905000  0.166000  0.293500  1
  C  C340  1  0.405000  0.834000  0.706500  1
  C  C341  1  0.398000  0.612000  0.228800  1
  C  C342  1  0.898000  0.388000  0.771200  1
  C  C343  1  0.898000  0.112000  0.271200  1
  C  C344  1  0.398000  0.888000  0.728800  1
  C  C345  1  0.675000  0.660600  0.240800  1
  C  C346  1  0.175000  0.339400  0.759200  1
  C  C347  1  0.175000  0.160600  0.259200  1
  C  C348  1  0.675000  0.839400  0.740800  1
  C  C349  1  0.700000  0.716700  0.225400  1
  C  C350  1  0.200000  0.283300  0.774600  1
  C  C351  1  0.200000  0.216700  0.274600  1
  C  C352  1  0.700000  0.783300  0.725400  1
  C  C353  1  0.687000  0.762700  0.261200  1
  C  C354  1  0.187000  0.237300  0.738800  1
  C  C355  1  0.187000  0.262700  0.238800  1
  C  C356  1  0.687000  0.737300  0.761200  1
  C  C357  1  0.651000  0.754700  0.312000  1
  C  C358  1  0.151000  0.245300  0.688000  1
  C  C359  1  0.151000  0.254700  0.188000  1
  C  C360  1  0.651000  0.745300  0.812000  1
  C  C361  1  0.628000  0.699800  0.327700  1
  C  C362  1  0.128000  0.300200  0.672300  1
  C  C363  1  0.128000  0.199800  0.172300  1
  C  C364  1  0.628000  0.800200  0.827700  1
  C  C365  1  0.640000  0.653000  0.292400  1
  C  C366  1  0.140000  0.347000  0.707600  1
  C  C367  1  0.140000  0.153000  0.207600  1
  C  C368  1  0.640000  0.847000  0.792400  1
  C  C369  1  0.637000  0.805600  0.350400  1
  C  C370  1  0.137000  0.194400  0.649600  1
  C  C371  1  0.137000  0.305600  0.149600  1
  C  C372  1  0.637000  0.694400  0.850400  1
  C  C373  1  0.680000  0.468500  0.372500  1
  C  C374  1  0.180000  0.531500  0.627500  1
  C  C375  1  0.180000  0.968500  0.127500  1
  C  C376  1  0.680000  0.031500  0.872500  1
  C  C377  1  0.755000  0.442400  0.357600  1
  C  C378  1  0.255000  0.557600  0.642400  1
  C  C379  1  0.255000  0.942400  0.142400  1
  C  C380  1  0.755000  0.057600  0.857600  1
  C  C381  1  0.753000  0.391000  0.325200  1
  C  C382  1  0.253000  0.609000  0.674800  1
  C  C383  1  0.253000  0.891000  0.174800  1
  C  C384  1  0.753000  0.109000  0.825200  1
  C  C385  1  0.678000  0.366900  0.309100  1
  C  C386  1  0.178000  0.633100  0.690900  1
  C  C387  1  0.178000  0.866900  0.190900  1
  C  C388  1  0.678000  0.133100  0.809100  1
  C  C389  1  0.604000  0.393600  0.323900  1
  C  C390  1  0.104000  0.606400  0.676100  1
  C  C391  1  0.104000  0.893600  0.176100  1
  C  C392  1  0.604000  0.106400  0.823900  1
  C  C393  1  0.604000  0.445000  0.356500  1
  C  C394  1  0.104000  0.555000  0.643500  1
  C  C395  1  0.104000  0.945000  0.143500  1
  C  C396  1  0.604000  0.055000  0.856500  1
  C  C397  1  0.681000  0.520800  0.409300  1
  C  C398  1  0.181000  0.479200  0.590700  1
  C  C399  1  0.181000  0.020800  0.090700  1
  C  C400  1  0.681000  0.979200  0.909300  1
  C  C401  1  0.671000  0.585900  0.486400  1
  C  C402  1  0.171000  0.414100  0.513600  1
  C  C403  1  0.171000  0.085900  0.013600  1
  C  C404  1  0.671000  0.914100  0.986400  1
  C  C405  1  0.713000  0.608400  0.442300  1
  C  C406  1  0.213000  0.391600  0.557700  1
  C  C407  1  0.213000  0.108400  0.057700  1
  C  C408  1  0.713000  0.891600  0.942300  1
  C  C409  1  0.838000  0.468500  0.374400  1
  C  C410  1  0.338000  0.531500  0.625600  1
  C  C411  1  0.338000  0.968500  0.125600  1
  C  C412  1  0.838000  0.031500  0.874400  1
  C  C413  1  0.857000  0.475700  0.429200  1
  C  C414  1  0.357000  0.524300  0.570800  1
  C  C415  1  0.357000  0.975700  0.070800  1
  C  C416  1  0.857000  0.024300  0.929200  1
  C  C417  1  0.929000  0.508100  0.443000  1
  C  C418  1  0.429000  0.491900  0.557000  1
  C  C419  1  0.429000  0.008100  0.057000  1
  C  C420  1  0.929000  0.991900  0.943000  1
  C  C421  1  0.980000  0.532200  0.405000  1
  C  C422  1  0.480000  0.467800  0.595000  1
  C  C423  1  0.480000  0.032200  0.095000  1
  C  C424  1  0.980000  0.967800  0.905000  1
  C  C425  1  0.961000  0.522800  0.350800  1
  C  C426  1  0.461000  0.477200  0.649200  1
  C  C427  1  0.461000  0.022800  0.149200  1
  C  C428  1  0.961000  0.977200  0.850800  1
  C  C429  1  0.890000  0.491300  0.334700  1
  C  C430  1  0.390000  0.508700  0.665300  1
  C  C431  1  0.390000  0.991300  0.165300  1
  C  C432  1  0.890000  0.008700  0.834700  1
  C  C433  1  0.052000  0.572600  0.420300  1
  C  C434  1  0.552000  0.427400  0.579700  1
  C  C435  1  0.552000  0.072600  0.079700  1
  C  C436  1  0.052000  0.927400  0.920300  1
  C  C437  1  0.836000  0.364300  0.310700  1
  C  C438  1  0.336000  0.635700  0.689300  1
  C  C439  1  0.336000  0.864300  0.189300  1
  C  C440  1  0.836000  0.135700  0.810700  1
  C  C441  1  0.975000  0.321100  0.309800  1
  C  C442  1  0.475000  0.678900  0.690200  1
  C  C443  1  0.475000  0.821100  0.190200  1
  C  C444  1  0.975000  0.178900  0.809800  1
  C  C445  1  0.946000  0.338400  0.260300  1
  C  C446  1  0.446000  0.661600  0.739700  1
  C  C447  1  0.446000  0.838400  0.239700  1
  C  C448  1  0.946000  0.161600  0.760300  1
  C  C449  1  0.678000  0.311300  0.276900  1
  C  C450  1  0.178000  0.688700  0.723100  1
  C  C451  1  0.178000  0.811300  0.223100  1
  C  C452  1  0.678000  0.188700  0.776900  1
  C  C453  1  0.702000  0.259900  0.302800  1
  C  C454  1  0.202000  0.740100  0.697200  1
  C  C455  1  0.202000  0.759900  0.197200  1
  C  C456  1  0.702000  0.240100  0.802800  1
  C  C457  1  0.700000  0.206700  0.275900  1
  C  C458  1  0.200000  0.793300  0.724100  1
  C  C459  1  0.200000  0.706700  0.224100  1
  C  C460  1  0.700000  0.293300  0.775900  1
  C  C461  1  0.673000  0.205000  0.221400  1
  C  C462  1  0.173000  0.795000  0.778600  1
  C  C463  1  0.173000  0.705000  0.278600  1
  C  C464  1  0.673000  0.295000  0.721400  1
  C  C465  1  0.647000  0.254400  0.196300  1
  C  C466  1  0.147000  0.745600  0.803700  1
  C  C467  1  0.147000  0.754400  0.303700  1
  C  C468  1  0.647000  0.245600  0.696300  1
  C  C469  1  0.648000  0.308900  0.224300  1
  C  C470  1  0.148000  0.691100  0.775700  1
  C  C471  1  0.148000  0.808900  0.275700  1
  C  C472  1  0.648000  0.191100  0.724300  1
  C  C473  1  0.670000  0.148200  0.190700  1
  C  C474  1  0.170000  0.851800  0.809300  1
  C  C475  1  0.170000  0.648200  0.309300  1
  C  C476  1  0.670000  0.351800  0.690700  1
  C  C477  1  0.521000  0.368600  0.306600  1
  C  C478  1  0.021000  0.631400  0.693400  1
  C  C479  1  0.021000  0.868600  0.193400  1
  C  C480  1  0.521000  0.131400  0.806600  1
  C  C481  1  0.399000  0.310100  0.292700  1
  C  C482  1  0.899000  0.689900  0.707300  1
  C  C483  1  0.899000  0.810100  0.207300  1
  C  C484  1  0.399000  0.189900  0.792700  1
  C  C485  1  0.398000  0.361400  0.264900  1
  C  C486  1  0.898000  0.638600  0.735100  1
  C  C487  1  0.898000  0.861400  0.235100  1
  C  C488  1  0.398000  0.138600  0.764900  1
  C  C489  1  0.522000  0.472000  0.373300  1
  C  C490  1  0.022000  0.528000  0.626700  1
  C  C491  1  0.022000  0.972000  0.126700  1
  C  C492  1  0.522000  0.028000  0.873300  1
  C  C493  1  0.505000  0.528700  0.359000  1
  C  C494  1  0.005000  0.471300  0.641000  1
  C  C495  1  0.005000  0.028700  0.141000  1
  C  C496  1  0.505000  0.971300  0.859000  1
  C  C497  1  0.429000  0.554500  0.374400  1
  C  C498  1  0.929000  0.445500  0.625600  1
  C  C499  1  0.929000  0.054500  0.125600  1
  C  C500  1  0.429000  0.945500  0.874400  1
  C  C501  1  0.369000  0.524600  0.402700  1
  C  C502  1  0.869000  0.475400  0.597300  1
  C  C503  1  0.869000  0.024600  0.097300  1
  C  C504  1  0.369000  0.975400  0.902700  1
  C  C505  1  0.388000  0.465700  0.417100  1
  C  C506  1  0.888000  0.534300  0.582900  1
  C  C507  1  0.888000  0.965700  0.082900  1
  C  C508  1  0.388000  0.034300  0.917100  1
  C  C509  1  0.464000  0.441400  0.402800  1
  C  C510  1  0.964000  0.558600  0.597200  1
  C  C511  1  0.964000  0.941400  0.097200  1
  C  C512  1  0.464000  0.058600  0.902800  1
  C  C513  1  0.287000  0.550300  0.417800  1
  C  C514  1  0.787000  0.449700  0.582200  1
  C  C515  1  0.787000  0.050300  0.082200  1
  C  C516  1  0.287000  0.949700  0.917800  1
  C  C517  1  0.172000  0.451200  0.291200  1
  C  C518  1  0.672000  0.548800  0.708800  1
  C  C519  1  0.672000  0.951200  0.208800  1
  C  C520  1  0.172000  0.048800  0.791200  1
  C  C521  1  0.698000  0.816700  0.545800  1
  C  C522  1  0.198000  0.183300  0.454200  1
  C  C523  1  0.198000  0.316700  0.954200  1
  C  C524  1  0.698000  0.683300  0.045800  1
  C  C525  1  0.689000  0.288600  0.525900  1
  C  C526  1  0.189000  0.711400  0.474100  1
  C  C527  1  0.189000  0.788600  0.974100  1
  C  C528  1  0.689000  0.211400  0.025900  1
  C  C529  1  0.871000  0.733600  0.374600  1
  C  C530  1  0.371000  0.266400  0.625400  1
  C  C531  1  0.371000  0.233600  0.125400  1
  C  C532  1  0.871000  0.766400  0.874600  1
  C  C533  1  0.503000  0.167700  0.462000  1
  C  C534  1  0.003000  0.832300  0.538000  1
  C  C535  1  0.003000  0.667700  0.038000  1
  C  C536  1  0.503000  0.332300  0.962000  1
  C  C537  1  0.885000  0.246300  0.155700  1
  C  C538  1  0.385000  0.753700  0.844300  1
  C  C539  1  0.385000  0.746300  0.344300  1
  C  C540  1  0.885000  0.253700  0.655700  1
  C  C541  1  0.976000  0.158400  0.006900  1
  C  C542  1  0.476000  0.841600  0.993100  1
  C  C543  1  0.476000  0.658400  0.493100  1
  C  C544  1  0.976000  0.341600  0.506900  1
  C  C545  1  0.934000  0.331300  0.994200  1
  C  C546  1  0.434000  0.668700  0.005800  1
  C  C547  1  0.434000  0.831300  0.505800  1
  C  C548  1  0.934000  0.168700  0.494200  1
  S  S549  1  0.912200  0.646450  0.161280  1
  S  S550  1  0.412200  0.353550  0.838720  1
  S  S551  1  0.412200  0.146450  0.338720  1
  S  S552  1  0.912200  0.853550  0.661280  1
  S  S553  1  0.673700  0.463900  0.031530  1
  S  S554  1  0.173700  0.536100  0.968470  1
  S  S555  1  0.173700  0.963900  0.468470  1
  S  S556  1  0.673700  0.036100  0.531530  1
  S  S557  1  0.501000  0.674670  0.178320  1
  S  S558  1  0.001000  0.325330  0.821680  1
  S  S559  1  0.001000  0.174670  0.321680  1
  S  S560  1  0.501000  0.825330  0.678320  1
  S  S561  1  0.639200  0.516900  0.473550  1
  S  S562  1  0.139200  0.483100  0.526450  1
  S  S563  1  0.139200  0.016900  0.026450  1
  S  S564  1  0.639200  0.983100  0.973550  1
  S  S565  1  0.901300  0.334830  0.358150  1
  S  S566  1  0.401300  0.665170  0.641850  1
  S  S567  1  0.401300  0.834830  0.141850  1
  S  S568  1  0.901300  0.165170  0.858150  1
  S  S569  1  0.487700  0.303190  0.329800  1
  S  S570  1  0.987700  0.696810  0.670200  1
  S  S571  1  0.987700  0.803190  0.170200  1
  S  S572  1  0.487700  0.196810  0.829800  1
  S  S573  1  0.232600  0.478200  0.235100  1
  S  S574  1  0.732600  0.521800  0.764900  1
  S  S575  1  0.732600  0.978200  0.264900  1
  S  S576  1  0.232600  0.021800  0.735100  1
  S  S577  1  0.732300  0.742600  0.556900  1
  S  S578  1  0.232300  0.257400  0.443100  1
  S  S579  1  0.232300  0.242600  0.943100  1
  S  S580  1  0.732300  0.757400  0.056900  1
  S  S581  1  0.670400  0.320000  0.460740  1
  S  S582  1  0.170400  0.680000  0.539260  1
  S  S583  1  0.170400  0.820000  0.039260  1
  S  S584  1  0.670400  0.180000  0.960740  1
  N  N585  1  0.865000  0.622700  0.258000  1
  N  N586  1  0.365000  0.377300  0.742000  1
  N  N587  1  0.365000  0.122700  0.242000  1
  N  N588  1  0.865000  0.877300  0.758000  1
  N  N589  1  0.741000  0.411700  0.111400  1
  N  N590  1  0.241000  0.588300  0.888600  1
  N  N591  1  0.241000  0.911700  0.388600  1
  N  N592  1  0.741000  0.088300  0.611400  1
  N  N593  1  0.470000  0.577400  0.225000  1
  N  N594  1  0.970000  0.422600  0.775000  1
  N  N595  1  0.970000  0.077400  0.275000  1
  N  N596  1  0.470000  0.922600  0.725000  1
  N  N597  1  0.719000  0.570000  0.399300  1
  N  N598  1  0.219000  0.430000  0.600700  1
  N  N599  1  0.219000  0.070000  0.100700  1
  N  N600  1  0.719000  0.930000  0.899300  1
  N  N601  1  0.865000  0.362800  0.260600  1
  N  N602  1  0.365000  0.637200  0.739400  1
  N  N603  1  0.365000  0.862800  0.239400  1
  N  N604  1  0.865000  0.137200  0.760600  1
  N  N605  1  0.469000  0.394800  0.273100  1
  N  N606  1  0.969000  0.605200  0.726900  1
  N  N607  1  0.969000  0.894800  0.226900  1
  N  N608  1  0.469000  0.105200  0.773100  1
  O  O609  1  0.306000  0.497800  0.262300  1
  O  O610  1  0.806000  0.502200  0.737700  1
  O  O611  1  0.806000  0.997800  0.237700  1
  O  O612  1  0.306000  0.002200  0.762300  1
  O  O613  1  0.182000  0.524000  0.211000  1
  O  O614  1  0.682000  0.476000  0.789000  1
  O  O615  1  0.682000  0.024000  0.289000  1
  O  O616  1  0.182000  0.976000  0.711000  1
  O  O617  1  0.242000  0.427300  0.201700  1
  O  O618  1  0.742000  0.572700  0.798300  1
  O  O619  1  0.742000  0.927300  0.298300  1
  O  O620  1  0.242000  0.072700  0.701700  1
  O  O621  1  0.775000  0.742200  0.606100  1
  O  O622  1  0.275000  0.257800  0.393900  1
  O  O623  1  0.275000  0.242200  0.893900  1
  O  O624  1  0.775000  0.757800  0.106100  1
  O  O625  1  0.660000  0.717800  0.556300  1
  O  O626  1  0.160000  0.282200  0.443700  1
  O  O627  1  0.160000  0.217800  0.943700  1
  O  O628  1  0.660000  0.782200  0.056300  1
  O  O629  1  0.786000  0.729900  0.510500  1
  O  O630  1  0.286000  0.270100  0.489500  1
  O  O631  1  0.286000  0.229900  0.989500  1
  O  O632  1  0.786000  0.770100  0.010500  1
  O  O633  1  0.746000  0.302600  0.429400  1
  O  O634  1  0.246000  0.697400  0.570600  1
  O  O635  1  0.246000  0.802600  0.070600  1
  O  O636  1  0.746000  0.197400  0.929400  1
  O  O637  1  0.599000  0.302100  0.434400  1
  O  O638  1  0.099000  0.697900  0.565600  1
  O  O639  1  0.099000  0.802100  0.065600  1
  O  O640  1  0.599000  0.197900  0.934400  1
  O  O641  1  0.675000  0.384700  0.471900  1
  O  O642  1  0.175000  0.615300  0.528100  1
  O  O643  1  0.175000  0.884700  0.028100  1
  O  O644  1  0.675000  0.115300  0.971900  1
  O  O645  1  0.884000  0.672600  0.383300  1
  O  O646  1  0.384000  0.327400  0.616700  1
  O  O647  1  0.384000  0.172600  0.116700  1
  O  O648  1  0.884000  0.827400  0.883300  1
  O  O649  1  0.556000  0.178600  0.414300  1
  O  O650  1  0.056000  0.821400  0.585700  1
  O  O651  1  0.056000  0.678600  0.085700  1
  O  O652  1  0.556000  0.321400  0.914300  1
  O  O653  1  0.888000  0.306300  0.138500  1
  O  O654  1  0.388000  0.693700  0.861500  1
  O  O655  1  0.388000  0.806300  0.361500  1
  O  O656  1  0.888000  0.193700  0.638500  1
  O  O657  1  0.030000  0.204700  0.026500  1
  O  O658  1  0.530000  0.795300  0.973500  1
  O  O659  1  0.530000  0.704700  0.473500  1
  O  O660  1  0.030000  0.295300  0.526500  1
  O  O661  1  0.953000  0.304900  0.039800  1
  O  O662  1  0.453000  0.695100  0.960200  1
  O  O663  1  0.453000  0.804900  0.460200  1
  O  O664  1  0.953000  0.195100  0.539800  1
  O  O665  1  0.928000  0.666800  0.491800  1
  O  O666  1  0.428000  0.333200  0.508200  1
  O  O667  1  0.428000  0.166800  0.008200  1
  O  O668  1  0.928000  0.833200  0.991800  1
  O  O669  1  0.684000  0.092700  0.390500  1
  O  O670  1  0.184000  0.907300  0.609500  1
  O  O671  1  0.184000  0.592700  0.109500  1
  O  O672  1  0.684000  0.407300  0.890500  1
  O  O673  1  0.741000  0.352800  0.450000  1
  O  O674  1  0.241000  0.647200  0.550000  1
  O  O675  1  0.241000  0.852800  0.050000  1
  O  O676  1  0.741000  0.147200  0.950000  1
  O  O677  1  0.678000  0.256600  0.433500  1
  O  O678  1  0.178000  0.743400  0.566500  1
  O  O679  1  0.178000  0.756600  0.066500  1
  O  O680  1  0.678000  0.243400  0.933500  1
  O  O681  1  0.586000  0.332800  0.462000  1
  O  O682  1  0.086000  0.667200  0.538000  1
  O  O683  1  0.086000  0.832800  0.038000  1
  O  O684  1  0.586000  0.167200  0.962000  1
  F  F685  1  0.157000  0.491400  0.326700  1
  F  F686  1  0.657000  0.508600  0.673300  1
  F  F687  1  0.657000  0.991400  0.173300  1
  F  F688  1  0.157000  0.008600  0.826700  1
  F  F689  1  0.098000  0.429900  0.273900  1
  F  F690  1  0.598000  0.570100  0.726100  1
  F  F691  1  0.598000  0.929900  0.226100  1
  F  F692  1  0.098000  0.070100  0.773900  1
  F  F693  1  0.212000  0.407100  0.316600  1
  F  F694  1  0.712000  0.592900  0.683400  1
  F  F695  1  0.712000  0.907100  0.183400  1
  F  F696  1  0.212000  0.092900  0.816600  1
  F  F697  1  0.649000  0.835000  0.584000  1
  F  F698  1  0.149000  0.165000  0.416000  1
  F  F699  1  0.149000  0.335000  0.916000  1
  F  F700  1  0.649000  0.665000  0.084000  1
  F  F701  1  0.661000  0.825800  0.499300  1
  F  F702  1  0.161000  0.174200  0.500700  1
  F  F703  1  0.161000  0.325800  0.000700  1
  F  F704  1  0.661000  0.674200  0.999300  1
  F  F705  1  0.765000  0.852600  0.548300  1
  F  F706  1  0.265000  0.147400  0.451700  1
  F  F707  1  0.265000  0.352600  0.951700  1
  F  F708  1  0.765000  0.647400  0.048300  1
  F  F709  1  0.756000  0.298300  0.547700  1
  F  F710  1  0.256000  0.701700  0.452300  1
  F  F711  1  0.256000  0.798300  0.952300  1
  F  F712  1  0.756000  0.201700  0.047700  1
  F  F713  1  0.688000  0.229100  0.513700  1
  F  F714  1  0.188000  0.770900  0.486300  1
  F  F715  1  0.188000  0.729100  0.986300  1
  F  F716  1  0.688000  0.270900  0.013700  1
  F  F717  1  0.616000  0.295900  0.554700  1
  F  F718  1  0.116000  0.704100  0.445300  1
  F  F719  1  0.116000  0.795900  0.945300  1
  F  F720  1  0.616000  0.204100  0.054700  1
  F  F721  1  0.764000  0.264600  0.537600  1
  F  F722  1  0.264000  0.735400  0.462400  1
  F  F723  1  0.264000  0.764600  0.962400  1
  F  F724  1  0.764000  0.235400  0.037600  1
  F  F725  1  0.632000  0.252200  0.547900  1
  F  F726  1  0.132000  0.747800  0.452100  1
  F  F727  1  0.132000  0.752200  0.952100  1
  F  F728  1  0.632000  0.247800  0.047900  1
  F  F729  1  0.691000  0.334100  0.566600  1
  F  F730  1  0.191000  0.665900  0.433400  1
  F  F731  1  0.191000  0.834100  0.933400  1
  F  F732  1  0.691000  0.165900  0.066600  1
