# generated using pymatgen
data_DyH25C18(NO4)4
_symmetry_space_group_name_H-M   'P 1'
_cell_length_a   7.38860000
_cell_length_b   12.28800000
_cell_length_c   13.78500000
_cell_angle_alpha   71.54800000
_cell_angle_beta   82.54600000
_cell_angle_gamma   78.96000000
_symmetry_Int_Tables_number   1
_chemical_formula_structural   DyH25C18(NO4)4
_chemical_formula_sum   'Dy2 H50 C36 N8 O32'
_cell_volume   1162.02552105
_cell_formula_units_Z   2
loop_
 _symmetry_equiv_pos_site_id
 _symmetry_equiv_pos_as_xyz
  1  'x, y, z'
loop_
 _atom_site_type_symbol
 _atom_site_label
 _atom_site_symmetry_multiplicity
 _atom_site_fract_x
 _atom_site_fract_y
 _atom_site_fract_z
 _atom_site_occupancy
  Dy  Dy1  1  0.497840  0.065410  0.176660  1.0
  Dy  Dy2  1  0.502160  0.934590  0.823340  1.0
  H  H3  1  0.835600  0.678600  0.017700  1
  H  H4  1  0.164400  0.321400  0.982300  1
  H  H5  1  0.008700  0.668500  0.972400  1
  H  H6  1  0.991300  0.331500  0.027600  1
  H  H7  1  0.011300  0.218200  0.946800  1
  H  H8  1  0.988700  0.781800  0.053200  1
  H  H9  1  0.132600  0.150200  0.900000  1
  H  H10  1  0.867400  0.849800  0.100000  1
  H  H11  1  0.896900  0.134900  0.665600  1
  H  H12  1  0.103100  0.865100  0.334400  1
  H  H13  1  0.032100  0.123600  0.587700  1
  H  H14  1  0.967900  0.876400  0.412300  1
  H  H15  1  0.167400  0.056100  0.491300  1
  H  H16  1  0.832600  0.943900  0.508700  1
  H  H17  1  0.011800  0.100400  0.435500  1
  H  H18  1  0.988200  0.899600  0.564500  1
  H  H19  1  0.654200  0.379900  0.487600  1.0
  H  H20  1  0.345800  0.620100  0.512400  1.0
  H  H21  1  0.696000  0.320900  0.640600  1.0
  H  H22  1  0.304000  0.679100  0.359400  1.0
  H  H23  1  0.781700  0.702100  0.606000  1.0
  H  H24  1  0.218300  0.297900  0.394000  1.0
  H  H25  1  0.585900  0.449800  0.929900  1.0
  H  H26  1  0.414100  0.550200  0.070100  1.0
  H  H27  1  0.868300  0.444500  0.144100  1.0
  H  H28  1  0.131700  0.555500  0.855900  1.0
  H  H29  1  0.867400  0.737800  0.304500  1.0
  H  H30  1  0.132600  0.262200  0.695500  1.0
  H  H31  1  0.694300  0.651300  0.783100  1.0
  H  H32  1  0.305700  0.348700  0.216900  1.0
  H  H33  1  0.756800  0.598500  0.450100  1.0
  H  H34  1  0.243200  0.401500  0.549900  1.0
  H  H35  1  0.491900  0.262400  0.507600  1.0
  H  H36  1  0.508100  0.737600  0.492400  1.0
  H  H37  1  0.598400  0.032100  0.375200  1.0
  H  H38  1  0.401600  0.967900  0.624800  1.0
  H  H39  1  0.533400  0.928000  0.393800  1.0
  H  H40  1  0.466600  0.072000  0.606200  1.0
  H  H41  1  0.219600  0.162000  0.303300  1.0
  H  H42  1  0.780400  0.838000  0.696700  1.0
  H  H43  1  0.148100  0.203800  0.200800  1.0
  H  H44  1  0.851900  0.796200  0.799200  1.0
  H  H45  1  0.880000  0.990400  0.237200  1.0
  H  H46  1  0.120000  0.009600  0.762800  1.0
  H  H47  1  0.892000  0.987100  0.130700  1.0
  H  H48  1  0.108000  0.012900  0.869300  1.0
  H  H49  1  0.159700  0.063900  0.088900  1.0
  H  H50  1  0.840300  0.936100  0.911100  1.0
  H  H51  1  0.308000  0.050600  0.009200  1.0
  H  H52  1  0.692000  0.949400  0.990800  1.0
  C  C53  1  0.700900  0.391400  0.419800  1.0
  C  C54  1  0.299100  0.608600  0.580200  1.0
  C  C55  1  0.547700  0.232800  0.981200  1.0
  C  C56  1  0.452300  0.767200  0.018800  1.0
  C  C57  1  0.762400  0.242300  0.213800  1.0
  C  C58  1  0.237600  0.757700  0.786200  1.0
  C  C59  1  0.709200  0.309000  0.373000  1.0
  C  C60  1  0.290800  0.691000  0.627000  1.0
  C  C61  1  0.585300  0.313400  0.878700  1.0
  C  C62  1  0.414700  0.686600  0.121300  1.0
  C  C63  1  0.615600  0.274800  0.791400  1.0
  C  C64  1  0.384400  0.725200  0.208600  1.0
  C  C65  1  0.572400  0.161700  0.793500  1.0
  C  C66  1  0.427600  0.838300  0.206500  1.0
  C  C67  1  0.822900  0.514400  0.260700  1.0
  C  C68  1  0.177100  0.485600  0.739300  1.0
  C  C69  1  0.673600  0.346700  0.698200  1.0
  C  C70  1  0.326400  0.653300  0.301800  1.0
  C  C71  1  0.751800  0.630300  0.645600  1.0
  C  C72  1  0.248200  0.369700  0.354400  1.0
  C  C73  1  0.764000  0.493500  0.363500  1.0
  C  C74  1  0.236000  0.506500  0.636500  1.0
  C  C75  1  0.770000  0.329000  0.269400  1.0
  C  C76  1  0.230000  0.671000  0.730600  1.0
  C  C77  1  0.662800  0.495400  0.777500  1.0
  C  C78  1  0.337200  0.504600  0.222500  1.0
  C  C79  1  0.607400  0.423800  0.872300  1.0
  C  C80  1  0.392600  0.576200  0.127700  1.0
  C  C81  1  0.657300  0.193800  0.440300  1.0
  C  C82  1  0.342700  0.806200  0.559700  1.0
  C  C83  1  0.827400  0.431500  0.212900  1.0
  C  C84  1  0.172600  0.568500  0.787100  1.0
  C  C85  1  0.844000  0.665300  0.306800  1.0
  C  C86  1  0.156000  0.334700  0.693200  1.0
  C  C87  1  0.698100  0.458000  0.691500  1.0
  C  C88  1  0.301900  0.542000  0.308500  1.0
  N  N89  1  0.755700  0.545800  0.608600  1.0
  N  N90  1  0.244300  0.454200  0.391400  1.0
  N  N91  1  0.701300  0.606000  0.745800  1.0
  N  N92  1  0.298700  0.394000  0.254200  1.0
  N  N93  1  0.868300  0.625300  0.228200  1.0
  N  N94  1  0.131700  0.374700  0.771800  1.0
  N  N95  1  0.781700  0.589400  0.390100  1.0
  N  N96  1  0.218300  0.410600  0.609900  1.0
  O  O97  1  0.934800  0.630500  0.016900  1
  O  O98  1  0.065200  0.369500  0.983100  1
  O  O99  1  0.018600  0.165100  0.918600  1
  O  O100  1  0.981400  0.834900  0.081400  1
  O  O101  1  0.009900  0.138200  0.644900  1
  O  O102  1  0.990100  0.861800  0.355100  1
  O  O103  1  0.120900  0.108800  0.440100  1
  O  O104  1  0.879100  0.891200  0.559900  1
  O  O105  1  0.612500  0.206700  0.222700  1.0
  O  O106  1  0.387500  0.793300  0.777300  1.0
  O  O107  1  0.902900  0.213300  0.161100  1.0
  O  O108  1  0.097100  0.786700  0.838900  1.0
  O  O109  1  0.423000  0.261700  0.042500  1.0
  O  O110  1  0.577000  0.738300  0.957500  1.0
  O  O111  1  0.650800  0.134800  0.008300  1.0
  O  O112  1  0.349200  0.865200  0.991700  1.0
  O  O113  1  0.437000  0.123100  0.849500  1.0
  O  O114  1  0.563000  0.876900  0.150500  1.0
  O  O115  1  0.668300  0.105800  0.738300  1.0
  O  O116  1  0.331700  0.894200  0.261700  1.0
  O  O117  1  0.757800  0.103500  0.427300  1.0
  O  O118  1  0.242200  0.896500  0.572700  1.0
  O  O119  1  0.526700  0.195600  0.505700  1.0
  O  O120  1  0.473300  0.804400  0.494300  1.0
  O  O121  1  0.542100  0.994100  0.350600  1.0
  O  O122  1  0.457900  0.005900  0.649400  1.0
  O  O123  1  0.232200  0.164700  0.240400  1.0
  O  O124  1  0.767800  0.835300  0.759600  1.0
  O  O125  1  0.828000  0.000200  0.182900  1.0
  O  O126  1  0.172000  0.999800  0.817100  1.0
  O  O127  1  0.273600  0.058500  0.068200  1.0
  O  O128  1  0.726400  0.941500  0.931800  1.0
