# generated using pymatgen
data_Zn2Mo3H54C78(N4O5)3
_symmetry_space_group_name_H-M   'P 1'
_cell_length_a   28.92123304
_cell_length_b   28.92123304
_cell_length_c   28.92123304
_cell_angle_alpha   60.00000000
_cell_angle_beta   60.00000000
_cell_angle_gamma   60.00000000
_symmetry_Int_Tables_number   1
_chemical_formula_structural   Zn2Mo3H54C78(N4O5)3
_chemical_formula_sum   'Zn8 Mo12 H216 C312 N48 O60'
_cell_volume   17105.48595563
_cell_formula_units_Z   4
loop_
 _symmetry_equiv_pos_site_id
 _symmetry_equiv_pos_as_xyz
  1  'x, y, z'
loop_
 _atom_site_type_symbol
 _atom_site_label
 _atom_site_symmetry_multiplicity
 _atom_site_fract_x
 _atom_site_fract_y
 _atom_site_fract_z
 _atom_site_occupancy
  C  C1  1  0.874300  0.076700  0.799900  1.0
  C  C2  1  0.200100  0.125700  0.750900  1.0
  C  C3  1  0.249100  0.799900  0.076700  1.0
  C  C4  1  0.923300  0.750900  0.125700  1.0
  C  C5  1  0.076700  0.874300  0.249100  1.0
  C  C6  1  0.750900  0.923300  0.200100  1.0
  C  C7  1  0.799900  0.249100  0.874300  1.0
  C  C8  1  0.125700  0.200100  0.923300  1.0
  C  C9  1  0.076700  0.799900  0.874300  1.0
  C  C10  1  0.125700  0.923300  0.750900  1.0
  C  C11  1  0.249100  0.874300  0.799900  1.0
  C  C12  1  0.200100  0.750900  0.923300  1.0
  C  C13  1  0.799900  0.076700  0.249100  1.0
  C  C14  1  0.750900  0.200100  0.125700  1.0
  C  C15  1  0.874300  0.249100  0.076700  1.0
  C  C16  1  0.923300  0.125700  0.200100  1.0
  C  C17  1  0.799900  0.874300  0.076700  1.0
  C  C18  1  0.200100  0.923300  0.125700  1.0
  C  C19  1  0.923300  0.200100  0.750900  1.0
  C  C20  1  0.750900  0.125700  0.923300  1.0
  C  C21  1  0.125700  0.750900  0.200100  1.0
  C  C22  1  0.874300  0.799900  0.249100  1.0
  C  C23  1  0.249100  0.076700  0.874300  1.0
  C  C24  1  0.076700  0.249100  0.799900  1.0
  C  C25  1  0.880600  0.025600  0.795800  1.0
  C  C26  1  0.204200  0.119400  0.702000  1.0
  C  C27  1  0.298000  0.795800  0.025600  1.0
  C  C28  1  0.974400  0.702000  0.119400  1.0
  C  C29  1  0.025600  0.880600  0.298000  1.0
  C  C30  1  0.702000  0.974400  0.204200  1.0
  C  C31  1  0.795800  0.298000  0.880600  1.0
  C  C32  1  0.119400  0.204200  0.974400  1.0
  C  C33  1  0.025600  0.795800  0.880600  1.0
  C  C34  1  0.119400  0.974400  0.702000  1.0
  C  C35  1  0.298000  0.880600  0.795800  1.0
  C  C36  1  0.204200  0.702000  0.974400  1.0
  C  C37  1  0.795800  0.025600  0.298000  1.0
  C  C38  1  0.702000  0.204200  0.119400  1.0
  C  C39  1  0.880600  0.298000  0.025600  1.0
  C  C40  1  0.974400  0.119400  0.204200  1.0
  C  C41  1  0.795800  0.880600  0.025600  1.0
  C  C42  1  0.204200  0.974400  0.119400  1.0
  C  C43  1  0.974400  0.204200  0.702000  1.0
  C  C44  1  0.702000  0.119400  0.974400  1.0
  C  C45  1  0.119400  0.702000  0.204200  1.0
  C  C46  1  0.880600  0.795800  0.298000  1.0
  C  C47  1  0.298000  0.025600  0.880600  1.0
  C  C48  1  0.025600  0.298000  0.795800  1.0
  C  C49  1  0.851600  0.031600  0.765600  1.0
  C  C50  1  0.234400  0.148400  0.648800  1.0
  C  C51  1  0.351200  0.765600  0.031600  1.0
  C  C52  1  0.968400  0.648800  0.148400  1.0
  C  C53  1  0.031600  0.851600  0.351200  1.0
  C  C54  1  0.648800  0.968400  0.234400  1.0
  C  C55  1  0.765600  0.351200  0.851600  1.0
  C  C56  1  0.148400  0.234400  0.968400  1.0
  C  C57  1  0.031600  0.765600  0.851600  1.0
  C  C58  1  0.148400  0.968400  0.648800  1.0
  C  C59  1  0.351200  0.851600  0.765600  1.0
  C  C60  1  0.234400  0.648800  0.968400  1.0
  C  C61  1  0.765600  0.031600  0.351200  1.0
  C  C62  1  0.648800  0.234400  0.148400  1.0
  C  C63  1  0.851600  0.351200  0.031600  1.0
  C  C64  1  0.968400  0.148400  0.234400  1.0
  C  C65  1  0.765600  0.851600  0.031600  1.0
  C  C66  1  0.234400  0.968400  0.148400  1.0
  C  C67  1  0.968400  0.234400  0.648800  1.0
  C  C68  1  0.648800  0.148400  0.968400  1.0
  C  C69  1  0.148400  0.648800  0.234400  1.0
  C  C70  1  0.851600  0.765600  0.351200  1.0
  C  C71  1  0.351200  0.031600  0.851600  1.0
  C  C72  1  0.031600  0.351200  0.765600  1.0
  C  C73  1  0.857700  0.984300  0.758700  1.0
  C  C74  1  0.241300  0.142300  0.600700  1.0
  C  C75  1  0.399300  0.758700  0.984300  1.0
  C  C76  1  0.015700  0.600700  0.142300  1.0
  C  C77  1  0.984300  0.857700  0.399300  1.0
  C  C78  1  0.600700  0.015700  0.241300  1.0
  C  C79  1  0.758700  0.399300  0.857700  1.0
  C  C80  1  0.142300  0.241300  0.015700  1.0
  C  C81  1  0.984300  0.758700  0.857700  1.0
  C  C82  1  0.142300  0.015700  0.600700  1.0
  C  C83  1  0.399300  0.857700  0.758700  1.0
  C  C84  1  0.241300  0.600700  0.015700  1.0
  C  C85  1  0.758700  0.984300  0.399300  1.0
  C  C86  1  0.600700  0.241300  0.142300  1.0
  C  C87  1  0.857700  0.399300  0.984300  1.0
  C  C88  1  0.015700  0.142300  0.241300  1.0
  C  C89  1  0.758700  0.857700  0.984300  1.0
  C  C90  1  0.241300  0.015700  0.142300  1.0
  C  C91  1  0.015700  0.241300  0.600700  1.0
  C  C92  1  0.600700  0.142300  0.015700  1.0
  C  C93  1  0.142300  0.600700  0.241300  1.0
  C  C94  1  0.857700  0.758700  0.399300  1.0
  C  C95  1  0.399300  0.984300  0.857700  1.0
  C  C96  1  0.984300  0.399300  0.758700  1.0
  C  C97  1  0.893000  0.931200  0.781800  1.0
  C  C98  1  0.218200  0.107000  0.606000  1.0
  C  C99  1  0.394000  0.781800  0.931200  1.0
  C  C100  1  0.068800  0.606000  0.107000  1.0
  C  C101  1  0.931200  0.893000  0.394000  1.0
  C  C102  1  0.606000  0.068800  0.218200  1.0
  C  C103  1  0.781800  0.394000  0.893000  1.0
  C  C104  1  0.107000  0.218200  0.068800  1.0
  C  C105  1  0.931200  0.781800  0.893000  1.0
  C  C106  1  0.107000  0.068800  0.606000  1.0
  C  C107  1  0.394000  0.893000  0.781800  1.0
  C  C108  1  0.218200  0.606000  0.068800  1.0
  C  C109  1  0.781800  0.931200  0.394000  1.0
  C  C110  1  0.606000  0.218200  0.107000  1.0
  C  C111  1  0.893000  0.394000  0.931200  1.0
  C  C112  1  0.068800  0.107000  0.218200  1.0
  C  C113  1  0.781800  0.893000  0.931200  1.0
  C  C114  1  0.218200  0.068800  0.107000  1.0
  C  C115  1  0.068800  0.218200  0.606000  1.0
  C  C116  1  0.606000  0.107000  0.068800  1.0
  C  C117  1  0.107000  0.606000  0.218200  1.0
  C  C118  1  0.893000  0.781800  0.394000  1.0
  C  C119  1  0.394000  0.931200  0.893000  1.0
  C  C120  1  0.931200  0.394000  0.781800  1.0
  C  C121  1  0.922100  0.925300  0.811900  1.0
  C  C122  1  0.188100  0.077900  0.659300  1.0
  C  C123  1  0.340700  0.811900  0.925300  1.0
  C  C124  1  0.074700  0.659300  0.077900  1.0
  C  C125  1  0.925300  0.922100  0.340700  1.0
  C  C126  1  0.659300  0.074700  0.188100  1.0
  C  C127  1  0.811900  0.340700  0.922100  1.0
  C  C128  1  0.077900  0.188100  0.074700  1.0
  C  C129  1  0.925300  0.811900  0.922100  1.0
  C  C130  1  0.077900  0.074700  0.659300  1.0
  C  C131  1  0.340700  0.922100  0.811900  1.0
  C  C132  1  0.188100  0.659300  0.074700  1.0
  C  C133  1  0.811900  0.925300  0.340700  1.0
  C  C134  1  0.659300  0.188100  0.077900  1.0
  C  C135  1  0.922100  0.340700  0.925300  1.0
  C  C136  1  0.074700  0.077900  0.188100  1.0
  C  C137  1  0.811900  0.922100  0.925300  1.0
  C  C138  1  0.188100  0.074700  0.077900  1.0
  C  C139  1  0.074700  0.188100  0.659300  1.0
  C  C140  1  0.659300  0.077900  0.074700  1.0
  C  C141  1  0.077900  0.659300  0.188100  1.0
  C  C142  1  0.922100  0.811900  0.340700  1.0
  C  C143  1  0.340700  0.925300  0.922100  1.0
  C  C144  1  0.925300  0.340700  0.811900  1.0
  C  C145  1  0.915900  0.972500  0.818900  1.0
  C  C146  1  0.181100  0.084100  0.707300  1.0
  C  C147  1  0.292700  0.818900  0.972500  1.0
  C  C148  1  0.027500  0.707300  0.084100  1.0
  C  C149  1  0.972500  0.915900  0.292700  1.0
  C  C150  1  0.707300  0.027500  0.181100  1.0
  C  C151  1  0.818900  0.292700  0.915900  1.0
  C  C152  1  0.084100  0.181100  0.027500  1.0
  C  C153  1  0.972500  0.818900  0.915900  1.0
  C  C154  1  0.084100  0.027500  0.707300  1.0
  C  C155  1  0.292700  0.915900  0.818900  1.0
  C  C156  1  0.181100  0.707300  0.027500  1.0
  C  C157  1  0.818900  0.972500  0.292700  1.0
  C  C158  1  0.707300  0.181100  0.084100  1.0
  C  C159  1  0.915900  0.292700  0.972500  1.0
  C  C160  1  0.027500  0.084100  0.181100  1.0
  C  C161  1  0.818900  0.915900  0.972500  1.0
  C  C162  1  0.181100  0.027500  0.084100  1.0
  C  C163  1  0.027500  0.181100  0.707300  1.0
  C  C164  1  0.707300  0.084100  0.027500  1.0
  C  C165  1  0.084100  0.707300  0.181100  1.0
  C  C166  1  0.915900  0.818900  0.292700  1.0
  C  C167  1  0.292700  0.972500  0.915900  1.0
  C  C168  1  0.972500  0.292700  0.818900  1.0
  C  C169  1  0.927800  0.851400  0.752800  1.0
  C  C170  1  0.247200  0.072200  0.532000  1.0
  C  C171  1  0.468000  0.752800  0.851400  1.0
  C  C172  1  0.148600  0.532000  0.072200  1.0
  C  C173  1  0.851400  0.927800  0.468000  1.0
  C  C174  1  0.532000  0.148600  0.247200  1.0
  C  C175  1  0.752800  0.468000  0.927800  1.0
  C  C176  1  0.072200  0.247200  0.148600  1.0
  C  C177  1  0.851400  0.752800  0.927800  1.0
  C  C178  1  0.072200  0.148600  0.532000  1.0
  C  C179  1  0.468000  0.927800  0.752800  1.0
  C  C180  1  0.247200  0.532000  0.148600  1.0
  C  C181  1  0.752800  0.851400  0.468000  1.0
  C  C182  1  0.532000  0.247200  0.072200  1.0
  C  C183  1  0.927800  0.468000  0.851400  1.0
  C  C184  1  0.148600  0.072200  0.247200  1.0
  C  C185  1  0.752800  0.927800  0.851400  1.0
  C  C186  1  0.247200  0.148600  0.072200  1.0
  C  C187  1  0.148600  0.247200  0.532000  1.0
  C  C188  1  0.532000  0.072200  0.148600  1.0
  C  C189  1  0.072200  0.532000  0.247200  1.0
  C  C190  1  0.927800  0.752800  0.468000  1.0
  C  C191  1  0.468000  0.851400  0.927800  1.0
  C  C192  1  0.851400  0.468000  0.752800  1.0
  C  C193  1  0.935200  0.800000  0.749400  1.0
  C  C194  1  0.250600  0.064800  0.484600  1.0
  C  C195  1  0.515400  0.749400  0.800000  1.0
  C  C196  1  0.200000  0.484600  0.064800  1.0
  C  C197  1  0.800000  0.935200  0.515400  1.0
  C  C198  1  0.484600  0.200000  0.250600  1.0
  C  C199  1  0.749400  0.515400  0.935200  1.0
  C  C200  1  0.064800  0.250600  0.200000  1.0
  C  C201  1  0.800000  0.749400  0.935200  1.0
  C  C202  1  0.064800  0.200000  0.484600  1.0
  C  C203  1  0.515400  0.935200  0.749400  1.0
  C  C204  1  0.250600  0.484600  0.200000  1.0
  C  C205  1  0.749400  0.800000  0.515400  1.0
  C  C206  1  0.484600  0.250600  0.064800  1.0
  C  C207  1  0.935200  0.515400  0.800000  1.0
  C  C208  1  0.200000  0.064800  0.250600  1.0
  C  C209  1  0.749400  0.935200  0.800000  1.0
  C  C210  1  0.250600  0.200000  0.064800  1.0
  C  C211  1  0.200000  0.250600  0.484600  1.0
  C  C212  1  0.484600  0.064800  0.200000  1.0
  C  C213  1  0.064800  0.484600  0.250600  1.0
  C  C214  1  0.935200  0.749400  0.515400  1.0
  C  C215  1  0.515400  0.800000  0.935200  1.0
  C  C216  1  0.800000  0.515400  0.749400  1.0
  C  C217  1  0.982600  0.773400  0.712600  1.0
  C  C218  1  0.287400  0.017400  0.468600  1.0
  C  C219  1  0.531400  0.712600  0.773400  1.0
  C  C220  1  0.226600  0.468600  0.017400  1.0
  C  C221  1  0.773400  0.982600  0.531400  1.0
  C  C222  1  0.468600  0.226600  0.287400  1.0
  C  C223  1  0.712600  0.531400  0.982600  1.0
  C  C224  1  0.017400  0.287400  0.226600  1.0
  C  C225  1  0.773400  0.712600  0.982600  1.0
  C  C226  1  0.017400  0.226600  0.468600  1.0
  C  C227  1  0.531400  0.982600  0.712600  1.0
  C  C228  1  0.287400  0.468600  0.226600  1.0
  C  C229  1  0.712600  0.773400  0.531400  1.0
  C  C230  1  0.468600  0.287400  0.017400  1.0
  C  C231  1  0.982600  0.531400  0.773400  1.0
  C  C232  1  0.226600  0.017400  0.287400  1.0
  C  C233  1  0.712600  0.982600  0.773400  1.0
  C  C234  1  0.287400  0.226600  0.017400  1.0
  C  C235  1  0.226600  0.287400  0.468600  1.0
  C  C236  1  0.468600  0.017400  0.226600  1.0
  C  C237  1  0.017400  0.468600  0.287400  1.0
  C  C238  1  0.982600  0.712600  0.531400  1.0
  C  C239  1  0.531400  0.773400  0.982600  1.0
  C  C240  1  0.773400  0.531400  0.712600  1.0
  C  C241  1  0.985600  0.724000  0.713800  1.0
  C  C242  1  0.286200  0.014400  0.423400  1.0
  C  C243  1  0.576600  0.713800  0.724000  1.0
  C  C244  1  0.276000  0.423400  0.014400  1.0
  C  C245  1  0.724000  0.985600  0.576600  1.0
  C  C246  1  0.423400  0.276000  0.286200  1.0
  C  C247  1  0.713800  0.576600  0.985600  1.0
  C  C248  1  0.014400  0.286200  0.276000  1.0
  C  C249  1  0.724000  0.713800  0.985600  1.0
  C  C250  1  0.014400  0.276000  0.423400  1.0
  C  C251  1  0.576600  0.985600  0.713800  1.0
  C  C252  1  0.286200  0.423400  0.276000  1.0
  C  C253  1  0.713800  0.724000  0.576600  1.0
  C  C254  1  0.423400  0.286200  0.014400  1.0
  C  C255  1  0.985600  0.576600  0.724000  1.0
  C  C256  1  0.276000  0.014400  0.286200  1.0
  C  C257  1  0.713800  0.985600  0.724000  1.0
  C  C258  1  0.286200  0.276000  0.014400  1.0
  C  C259  1  0.276000  0.286200  0.423400  1.0
  C  C260  1  0.423400  0.014400  0.276000  1.0
  C  C261  1  0.014400  0.423400  0.286200  1.0
  C  C262  1  0.985600  0.713800  0.576600  1.0
  C  C263  1  0.576600  0.724000  0.985600  1.0
  C  C264  1  0.724000  0.576600  0.713800  1.0
  C  C265  1  0.944000  0.700000  0.754400  1.0
  C  C266  1  0.245600  0.056000  0.398400  1.0
  C  C267  1  0.601600  0.754400  0.700000  1.0
  C  C268  1  0.300000  0.398400  0.056000  1.0
  C  C269  1  0.700000  0.944000  0.601600  1.0
  C  C270  1  0.398400  0.300000  0.245600  1.0
  C  C271  1  0.754400  0.601600  0.944000  1.0
  C  C272  1  0.056000  0.245600  0.300000  1.0
  C  C273  1  0.700000  0.754400  0.944000  1.0
  C  C274  1  0.056000  0.300000  0.398400  1.0
  C  C275  1  0.601600  0.944000  0.754400  1.0
  C  C276  1  0.245600  0.398400  0.300000  1.0
  C  C277  1  0.754400  0.700000  0.601600  1.0
  C  C278  1  0.398400  0.245600  0.056000  1.0
  C  C279  1  0.944000  0.601600  0.700000  1.0
  C  C280  1  0.300000  0.056000  0.245600  1.0
  C  C281  1  0.754400  0.944000  0.700000  1.0
  C  C282  1  0.245600  0.300000  0.056000  1.0
  C  C283  1  0.300000  0.245600  0.398400  1.0
  C  C284  1  0.398400  0.056000  0.300000  1.0
  C  C285  1  0.056000  0.398400  0.245600  1.0
  C  C286  1  0.944000  0.754400  0.601600  1.0
  C  C287  1  0.601600  0.700000  0.944000  1.0
  C  C288  1  0.700000  0.601600  0.754400  1.0
  C  C289  1  0.898900  0.727900  0.791900  1.0
  C  C290  1  0.208100  0.101100  0.418700  1.0
  C  C291  1  0.581300  0.791900  0.727900  1.0
  C  C292  1  0.272100  0.418700  0.101100  1.0
  C  C293  1  0.727900  0.898900  0.581300  1.0
  C  C294  1  0.418700  0.272100  0.208100  1.0
  C  C295  1  0.791900  0.581300  0.898900  1.0
  C  C296  1  0.101100  0.208100  0.272100  1.0
  C  C297  1  0.727900  0.791900  0.898900  1.0
  C  C298  1  0.101100  0.272100  0.418700  1.0
  C  C299  1  0.581300  0.898900  0.791900  1.0
  C  C300  1  0.208100  0.418700  0.272100  1.0
  C  C301  1  0.791900  0.727900  0.581300  1.0
  C  C302  1  0.418700  0.208100  0.101100  1.0
  C  C303  1  0.898900  0.581300  0.727900  1.0
  C  C304  1  0.272100  0.101100  0.208100  1.0
  C  C305  1  0.791900  0.898900  0.727900  1.0
  C  C306  1  0.208100  0.272100  0.101100  1.0
  C  C307  1  0.272100  0.208100  0.418700  1.0
  C  C308  1  0.418700  0.101100  0.272100  1.0
  C  C309  1  0.101100  0.418700  0.208100  1.0
  C  C310  1  0.898900  0.791900  0.581300  1.0
  C  C311  1  0.581300  0.727900  0.898900  1.0
  C  C312  1  0.727900  0.581300  0.791900  1.0
  H  H313  1  0.827500  0.067700  0.749900  1.0
  H  H314  1  0.250100  0.172500  0.645100  1.0
  H  H315  1  0.354900  0.749900  0.067700  1.0
  H  H316  1  0.932300  0.645100  0.172500  1.0
  H  H317  1  0.067700  0.827500  0.354900  1.0
  H  H318  1  0.645100  0.932300  0.250100  1.0
  H  H319  1  0.749900  0.354900  0.827500  1.0
  H  H320  1  0.172500  0.250100  0.932300  1.0
  H  H321  1  0.067700  0.749900  0.827500  1.0
  H  H322  1  0.172500  0.932300  0.645100  1.0
  H  H323  1  0.354900  0.827500  0.749900  1.0
  H  H324  1  0.250100  0.645100  0.932300  1.0
  H  H325  1  0.749900  0.067700  0.354900  1.0
  H  H326  1  0.645100  0.250100  0.172500  1.0
  H  H327  1  0.827500  0.354900  0.067700  1.0
  H  H328  1  0.932300  0.172500  0.250100  1.0
  H  H329  1  0.749900  0.827500  0.067700  1.0
  H  H330  1  0.250100  0.932300  0.172500  1.0
  H  H331  1  0.932300  0.250100  0.645100  1.0
  H  H332  1  0.645100  0.172500  0.932300  1.0
  H  H333  1  0.172500  0.645100  0.250100  1.0
  H  H334  1  0.827500  0.749900  0.354900  1.0
  H  H335  1  0.354900  0.067700  0.827500  1.0
  H  H336  1  0.067700  0.354900  0.749900  1.0
  H  H337  1  0.837900  0.988300  0.738100  1.0
  H  H338  1  0.261900  0.162100  0.564300  1.0
  H  H339  1  0.435700  0.738100  0.988300  1.0
  H  H340  1  0.011700  0.564300  0.162100  1.0
  H  H341  1  0.988300  0.837900  0.435700  1.0
  H  H342  1  0.564300  0.011700  0.261900  1.0
  H  H343  1  0.738100  0.435700  0.837900  1.0
  H  H344  1  0.162100  0.261900  0.011700  1.0
  H  H345  1  0.988300  0.738100  0.837900  1.0
  H  H346  1  0.162100  0.011700  0.564300  1.0
  H  H347  1  0.435700  0.837900  0.738100  1.0
  H  H348  1  0.261900  0.564300  0.011700  1.0
  H  H349  1  0.738100  0.988300  0.435700  1.0
  H  H350  1  0.564300  0.261900  0.162100  1.0
  H  H351  1  0.837900  0.435700  0.988300  1.0
  H  H352  1  0.011700  0.162100  0.261900  1.0
  H  H353  1  0.738100  0.837900  0.988300  1.0
  H  H354  1  0.261900  0.011700  0.162100  1.0
  H  H355  1  0.011700  0.261900  0.564300  1.0
  H  H356  1  0.564300  0.162100  0.011700  1.0
  H  H357  1  0.162100  0.564300  0.261900  1.0
  H  H358  1  0.837900  0.738100  0.435700  1.0
  H  H359  1  0.435700  0.988300  0.837900  1.0
  H  H360  1  0.988300  0.435700  0.738100  1.0
  H  H361  1  0.946200  0.889000  0.827600  1.0
  H  H362  1  0.172400  0.053800  0.662800  1.0
  H  H363  1  0.337200  0.827600  0.889000  1.0
  H  H364  1  0.111000  0.662800  0.053800  1.0
  H  H365  1  0.889000  0.946200  0.337200  1.0
  H  H366  1  0.662800  0.111000  0.172400  1.0
  H  H367  1  0.827600  0.337200  0.946200  1.0
  H  H368  1  0.053800  0.172400  0.111000  1.0
  H  H369  1  0.889000  0.827600  0.946200  1.0
  H  H370  1  0.053800  0.111000  0.662800  1.0
  H  H371  1  0.337200  0.946200  0.827600  1.0
  H  H372  1  0.172400  0.662800  0.111000  1.0
  H  H373  1  0.827600  0.889000  0.337200  1.0
  H  H374  1  0.662800  0.172400  0.053800  1.0
  H  H375  1  0.946200  0.337200  0.889000  1.0
  H  H376  1  0.111000  0.053800  0.172400  1.0
  H  H377  1  0.827600  0.946200  0.889000  1.0
  H  H378  1  0.172400  0.111000  0.053800  1.0
  H  H379  1  0.111000  0.172400  0.662800  1.0
  H  H380  1  0.662800  0.053800  0.111000  1.0
  H  H381  1  0.053800  0.662800  0.172400  1.0
  H  H382  1  0.946200  0.827600  0.337200  1.0
  H  H383  1  0.337200  0.889000  0.946200  1.0
  H  H384  1  0.889000  0.337200  0.827600  1.0
  H  H385  1  0.935900  0.968500  0.839300  1.0
  H  H386  1  0.160700  0.064100  0.743700  1.0
  H  H387  1  0.256300  0.839300  0.968500  1.0
  H  H388  1  0.031500  0.743700  0.064100  1.0
  H  H389  1  0.968500  0.935900  0.256300  1.0
  H  H390  1  0.743700  0.031500  0.160700  1.0
  H  H391  1  0.839300  0.256300  0.935900  1.0
  H  H392  1  0.064100  0.160700  0.031500  1.0
  H  H393  1  0.968500  0.839300  0.935900  1.0
  H  H394  1  0.064100  0.031500  0.743700  1.0
  H  H395  1  0.256300  0.935900  0.839300  1.0
  H  H396  1  0.160700  0.743700  0.031500  1.0
  H  H397  1  0.839300  0.968500  0.256300  1.0
  H  H398  1  0.743700  0.160700  0.064100  1.0
  H  H399  1  0.935900  0.256300  0.968500  1.0
  H  H400  1  0.031500  0.064100  0.160700  1.0
  H  H401  1  0.839300  0.935900  0.968500  1.0
  H  H402  1  0.160700  0.031500  0.064100  1.0
  H  H403  1  0.031500  0.160700  0.743700  1.0
  H  H404  1  0.743700  0.064100  0.031500  1.0
  H  H405  1  0.064100  0.743700  0.160700  1.0
  H  H406  1  0.935900  0.839300  0.256300  1.0
  H  H407  1  0.256300  0.968500  0.935900  1.0
  H  H408  1  0.968500  0.256300  0.839300  1.0
  H  H409  1  0.958500  0.865100  0.726300  1.0
  H  H410  1  0.273700  0.041500  0.549900  1.0
  H  H411  1  0.450100  0.726300  0.865100  1.0
  H  H412  1  0.134900  0.549900  0.041500  1.0
  H  H413  1  0.865100  0.958500  0.450100  1.0
  H  H414  1  0.549900  0.134900  0.273700  1.0
  H  H415  1  0.726300  0.450100  0.958500  1.0
  H  H416  1  0.041500  0.273700  0.134900  1.0
  H  H417  1  0.865100  0.726300  0.958500  1.0
  H  H418  1  0.041500  0.134900  0.549900  1.0
  H  H419  1  0.450100  0.958500  0.726300  1.0
  H  H420  1  0.273700  0.549900  0.134900  1.0
  H  H421  1  0.726300  0.865100  0.450100  1.0
  H  H422  1  0.549900  0.273700  0.041500  1.0
  H  H423  1  0.958500  0.450100  0.865100  1.0
  H  H424  1  0.134900  0.041500  0.273700  1.0
  H  H425  1  0.726300  0.958500  0.865100  1.0
  H  H426  1  0.273700  0.134900  0.041500  1.0
  H  H427  1  0.134900  0.273700  0.549900  1.0
  H  H428  1  0.549900  0.041500  0.134900  1.0
  H  H429  1  0.041500  0.549900  0.273700  1.0
  H  H430  1  0.958500  0.726300  0.450100  1.0
  H  H431  1  0.450100  0.865100  0.958500  1.0
  H  H432  1  0.865100  0.450100  0.726300  1.0
  H  H433  1  0.012200  0.789000  0.687200  1.0
  H  H434  1  0.312800  0.987800  0.488400  1.0
  H  H435  1  0.511600  0.687200  0.789000  1.0
  H  H436  1  0.211000  0.488400  0.987800  1.0
  H  H437  1  0.789000  0.012200  0.511600  1.0
  H  H438  1  0.488400  0.211000  0.312800  1.0
  H  H439  1  0.687200  0.511600  0.012200  1.0
  H  H440  1  0.987800  0.312800  0.211000  1.0
  H  H441  1  0.789000  0.687200  0.012200  1.0
  H  H442  1  0.987800  0.211000  0.488400  1.0
  H  H443  1  0.511600  0.012200  0.687200  1.0
  H  H444  1  0.312800  0.488400  0.211000  1.0
  H  H445  1  0.687200  0.789000  0.511600  1.0
  H  H446  1  0.488400  0.312800  0.987800  1.0
  H  H447  1  0.012200  0.511600  0.789000  1.0
  H  H448  1  0.211000  0.987800  0.312800  1.0
  H  H449  1  0.687200  0.012200  0.789000  1.0
  H  H450  1  0.312800  0.211000  0.987800  1.0
  H  H451  1  0.211000  0.312800  0.488400  1.0
  H  H452  1  0.488400  0.987800  0.211000  1.0
  H  H453  1  0.987800  0.488400  0.312800  1.0
  H  H454  1  0.012200  0.687200  0.511600  1.0
  H  H455  1  0.511600  0.789000  0.012200  1.0
  H  H456  1  0.789000  0.511600  0.687200  1.0
  H  H457  1  0.016100  0.706300  0.687100  1.0
  H  H458  1  0.312900  0.983900  0.409500  1.0
  H  H459  1  0.590500  0.687100  0.706300  1.0
  H  H460  1  0.293700  0.409500  0.983900  1.0
  H  H461  1  0.706300  0.016100  0.590500  1.0
  H  H462  1  0.409500  0.293700  0.312900  1.0
  H  H463  1  0.687100  0.590500  0.016100  1.0
  H  H464  1  0.983900  0.312900  0.293700  1.0
  H  H465  1  0.706300  0.687100  0.016100  1.0
  H  H466  1  0.983900  0.293700  0.409500  1.0
  H  H467  1  0.590500  0.016100  0.687100  1.0
  H  H468  1  0.312900  0.409500  0.293700  1.0
  H  H469  1  0.687100  0.706300  0.590500  1.0
  H  H470  1  0.409500  0.312900  0.983900  1.0
  H  H471  1  0.016100  0.590500  0.706300  1.0
  H  H472  1  0.293700  0.983900  0.312900  1.0
  H  H473  1  0.687100  0.016100  0.706300  1.0
  H  H474  1  0.312900  0.293700  0.983900  1.0
  H  H475  1  0.293700  0.312900  0.409500  1.0
  H  H476  1  0.409500  0.983900  0.293700  1.0
  H  H477  1  0.983900  0.409500  0.312900  1.0
  H  H478  1  0.016100  0.687100  0.590500  1.0
  H  H479  1  0.590500  0.706300  0.016100  1.0
  H  H480  1  0.706300  0.590500  0.687100  1.0
  H  H481  1  0.946100  0.665100  0.756500  1.0
  H  H482  1  0.243500  0.053900  0.367700  1.0
  H  H483  1  0.632300  0.756500  0.665100  1.0
  H  H484  1  0.334900  0.367700  0.053900  1.0
  H  H485  1  0.665100  0.946100  0.632300  1.0
  H  H486  1  0.367700  0.334900  0.243500  1.0
  H  H487  1  0.756500  0.632300  0.946100  1.0
  H  H488  1  0.053900  0.243500  0.334900  1.0
  H  H489  1  0.665100  0.756500  0.946100  1.0
  H  H490  1  0.053900  0.334900  0.367700  1.0
  H  H491  1  0.632300  0.946100  0.756500  1.0
  H  H492  1  0.243500  0.367700  0.334900  1.0
  H  H493  1  0.756500  0.665100  0.632300  1.0
  H  H494  1  0.367700  0.243500  0.053900  1.0
  H  H495  1  0.946100  0.632300  0.665100  1.0
  H  H496  1  0.334900  0.053900  0.243500  1.0
  H  H497  1  0.756500  0.946100  0.665100  1.0
  H  H498  1  0.243500  0.334900  0.053900  1.0
  H  H499  1  0.334900  0.243500  0.367700  1.0
  H  H500  1  0.367700  0.053900  0.334900  1.0
  H  H501  1  0.053900  0.367700  0.243500  1.0
  H  H502  1  0.946100  0.756500  0.632300  1.0
  H  H503  1  0.632300  0.665100  0.946100  1.0
  H  H504  1  0.665100  0.632300  0.756500  1.0
  H  H505  1  0.870600  0.711200  0.820000  1.0
  H  H506  1  0.180000  0.129400  0.401800  1.0
  H  H507  1  0.598200  0.820000  0.711200  1.0
  H  H508  1  0.288800  0.401800  0.129400  1.0
  H  H509  1  0.711200  0.870600  0.598200  1.0
  H  H510  1  0.401800  0.288800  0.180000  1.0
  H  H511  1  0.820000  0.598200  0.870600  1.0
  H  H512  1  0.129400  0.180000  0.288800  1.0
  H  H513  1  0.711200  0.820000  0.870600  1.0
  H  H514  1  0.129400  0.288800  0.401800  1.0
  H  H515  1  0.598200  0.870600  0.820000  1.0
  H  H516  1  0.180000  0.401800  0.288800  1.0
  H  H517  1  0.820000  0.711200  0.598200  1.0
  H  H518  1  0.401800  0.180000  0.129400  1.0
  H  H519  1  0.870600  0.598200  0.711200  1.0
  H  H520  1  0.288800  0.129400  0.180000  1.0
  H  H521  1  0.820000  0.870600  0.711200  1.0
  H  H522  1  0.180000  0.288800  0.129400  1.0
  H  H523  1  0.288800  0.180000  0.401800  1.0
  H  H524  1  0.401800  0.129400  0.288800  1.0
  H  H525  1  0.129400  0.401800  0.180000  1.0
  H  H526  1  0.870600  0.820000  0.598200  1.0
  H  H527  1  0.598200  0.711200  0.870600  1.0
  H  H528  1  0.711200  0.598200  0.820000  1.0
  Mo  Mo529  1  0.809050  0.190950  0.809050  1.0
  Mo  Mo530  1  0.190950  0.190950  0.809050  1.0
  Mo  Mo531  1  0.190950  0.809050  0.190950  1.0
  Mo  Mo532  1  0.809050  0.809050  0.190950  1.0
  Mo  Mo533  1  0.190950  0.809050  0.809050  1.0
  Mo  Mo534  1  0.809050  0.190950  0.190950  1.0
  Mo  Mo535  1  0.862790  0.137210  0.862790  1.0
  Mo  Mo536  1  0.137210  0.137210  0.862790  1.0
  Mo  Mo537  1  0.137210  0.862790  0.137210  1.0
  Mo  Mo538  1  0.862790  0.862790  0.137210  1.0
  Mo  Mo539  1  0.137210  0.862790  0.862790  1.0
  Mo  Mo540  1  0.862790  0.137210  0.137210  1.0
  N  N541  1  0.894100  0.777700  0.789500  1.0
  N  N542  1  0.210500  0.105900  0.461300  1.0
  N  N543  1  0.538700  0.789500  0.777700  1.0
  N  N544  1  0.222300  0.461300  0.105900  1.0
  N  N545  1  0.777700  0.894100  0.538700  1.0
  N  N546  1  0.461300  0.222300  0.210500  1.0
  N  N547  1  0.789500  0.538700  0.894100  1.0
  N  N548  1  0.105900  0.210500  0.222300  1.0
  N  N549  1  0.777700  0.789500  0.894100  1.0
  N  N550  1  0.105900  0.222300  0.461300  1.0
  N  N551  1  0.538700  0.894100  0.789500  1.0
  N  N552  1  0.210500  0.461300  0.222300  1.0
  N  N553  1  0.789500  0.777700  0.538700  1.0
  N  N554  1  0.461300  0.210500  0.105900  1.0
  N  N555  1  0.894100  0.538700  0.777700  1.0
  N  N556  1  0.222300  0.105900  0.210500  1.0
  N  N557  1  0.789500  0.894100  0.777700  1.0
  N  N558  1  0.210500  0.222300  0.105900  1.0
  N  N559  1  0.222300  0.210500  0.461300  1.0
  N  N560  1  0.461300  0.105900  0.222300  1.0
  N  N561  1  0.105900  0.461300  0.210500  1.0
  N  N562  1  0.894100  0.789500  0.538700  1.0
  N  N563  1  0.538700  0.777700  0.894100  1.0
  N  N564  1  0.777700  0.538700  0.789500  1.0
  N  N565  1  0.890400  0.882800  0.782600  1.0
  N  N566  1  0.217400  0.109600  0.555800  1.0
  N  N567  1  0.444200  0.782600  0.882800  1.0
  N  N568  1  0.117200  0.555800  0.109600  1.0
  N  N569  1  0.882800  0.890400  0.444200  1.0
  N  N570  1  0.555800  0.117200  0.217400  1.0
  N  N571  1  0.782600  0.444200  0.890400  1.0
  N  N572  1  0.109600  0.217400  0.117200  1.0
  N  N573  1  0.882800  0.782600  0.890400  1.0
  N  N574  1  0.109600  0.117200  0.555800  1.0
  N  N575  1  0.444200  0.890400  0.782600  1.0
  N  N576  1  0.217400  0.555800  0.117200  1.0
  N  N577  1  0.782600  0.882800  0.444200  1.0
  N  N578  1  0.555800  0.217400  0.109600  1.0
  N  N579  1  0.890400  0.444200  0.882800  1.0
  N  N580  1  0.117200  0.109600  0.217400  1.0
  N  N581  1  0.782600  0.890400  0.882800  1.0
  N  N582  1  0.217400  0.117200  0.109600  1.0
  N  N583  1  0.117200  0.217400  0.555800  1.0
  N  N584  1  0.555800  0.109600  0.117200  1.0
  N  N585  1  0.109600  0.555800  0.217400  1.0
  N  N586  1  0.890400  0.782600  0.444200  1.0
  N  N587  1  0.444200  0.882800  0.890400  1.0
  N  N588  1  0.882800  0.444200  0.782600  1.0
  O  O589  1  0.758100  0.241900  0.758100  1.0
  O  O590  1  0.241900  0.241900  0.758100  1.0
  O  O591  1  0.241900  0.758100  0.241900  1.0
  O  O592  1  0.758100  0.758100  0.241900  1.0
  O  O593  1  0.241900  0.758100  0.758100  1.0
  O  O594  1  0.758100  0.241900  0.241900  1.0
  O  O595  1  0.925000  0.075000  0.925000  1.0
  O  O596  1  0.075000  0.075000  0.925000  1.0
  O  O597  1  0.075000  0.925000  0.075000  1.0
  O  O598  1  0.925000  0.925000  0.075000  1.0
  O  O599  1  0.075000  0.925000  0.925000  1.0
  O  O600  1  0.925000  0.075000  0.075000  1.0
  O  O601  1  0.843700  0.126300  0.776500  1.0
  O  O602  1  0.223500  0.156300  0.746500  1.0
  O  O603  1  0.253500  0.776500  0.126300  1.0
  O  O604  1  0.873700  0.746500  0.156300  1.0
  O  O605  1  0.126300  0.843700  0.253500  1.0
  O  O606  1  0.746500  0.873700  0.223500  1.0
  O  O607  1  0.776500  0.253500  0.843700  1.0
  O  O608  1  0.156300  0.223500  0.873700  1.0
  O  O609  1  0.126300  0.776500  0.843700  1.0
  O  O610  1  0.156300  0.873700  0.746500  1.0
  O  O611  1  0.253500  0.843700  0.776500  1.0
  O  O612  1  0.223500  0.746500  0.873700  1.0
  O  O613  1  0.776500  0.126300  0.253500  1.0
  O  O614  1  0.746500  0.223500  0.156300  1.0
  O  O615  1  0.843700  0.253500  0.126300  1.0
  O  O616  1  0.873700  0.156300  0.223500  1.0
  O  O617  1  0.776500  0.843700  0.126300  1.0
  O  O618  1  0.223500  0.873700  0.156300  1.0
  O  O619  1  0.873700  0.223500  0.746500  1.0
  O  O620  1  0.746500  0.156300  0.873700  1.0
  O  O621  1  0.156300  0.746500  0.223500  1.0
  O  O622  1  0.843700  0.776500  0.253500  1.0
  O  O623  1  0.253500  0.126300  0.843700  1.0
  O  O624  1  0.126300  0.253500  0.776500  1.0
  O  O625  1  0.897900  0.075900  0.827900  1.0
  O  O626  1  0.172100  0.102100  0.801700  1.0
  O  O627  1  0.198300  0.827900  0.075900  1.0
  O  O628  1  0.924100  0.801700  0.102100  1.0
  O  O629  1  0.075900  0.897900  0.198300  1.0
  O  O630  1  0.801700  0.924100  0.172100  1.0
  O  O631  1  0.827900  0.198300  0.897900  1.0
  O  O632  1  0.102100  0.172100  0.924100  1.0
  O  O633  1  0.075900  0.827900  0.897900  1.0
  O  O634  1  0.102100  0.924100  0.801700  1.0
  O  O635  1  0.198300  0.897900  0.827900  1.0
  O  O636  1  0.172100  0.801700  0.924100  1.0
  O  O637  1  0.827900  0.075900  0.198300  1.0
  O  O638  1  0.801700  0.172100  0.102100  1.0
  O  O639  1  0.897900  0.198300  0.075900  1.0
  O  O640  1  0.924100  0.102100  0.172100  1.0
  O  O641  1  0.827900  0.897900  0.075900  1.0
  O  O642  1  0.172100  0.924100  0.102100  1.0
  O  O643  1  0.924100  0.172100  0.801700  1.0
  O  O644  1  0.801700  0.102100  0.924100  1.0
  O  O645  1  0.102100  0.801700  0.172100  1.0
  O  O646  1  0.897900  0.827900  0.198300  1.0
  O  O647  1  0.198300  0.075900  0.897900  1.0
  O  O648  1  0.075900  0.198300  0.827900  1.0
  Zn  Zn649  1  0.835430  0.835430  0.835430  1.0
  Zn  Zn650  1  0.164570  0.164570  0.506290  1.0
  Zn  Zn651  1  0.493710  0.835430  0.835430  1.0
  Zn  Zn652  1  0.164570  0.506290  0.164570  1.0
  Zn  Zn653  1  0.835430  0.835430  0.493710  1.0
  Zn  Zn654  1  0.506290  0.164570  0.164570  1.0
  Zn  Zn655  1  0.835430  0.493710  0.835430  1.0
  Zn  Zn656  1  0.164570  0.164570  0.164570  1.0
