# generated using pymatgen
data_CoH16C11N4O11
_symmetry_space_group_name_H-M   'P 1'
_cell_length_a   17.20306558
_cell_length_b   17.20306558
_cell_length_c   17.20306558
_cell_angle_alpha   95.83943303
_cell_angle_beta   116.68784773
_cell_angle_gamma   116.68784773
_symmetry_Int_Tables_number   1
_chemical_formula_structural   CoH16C11N4O11
_chemical_formula_sum   'Co8 H128 C88 N32 O88'
_cell_volume   3759.09096572
_cell_formula_units_Z   8
loop_
 _symmetry_equiv_pos_site_id
 _symmetry_equiv_pos_as_xyz
  1  'x, y, z'
loop_
 _atom_site_type_symbol
 _atom_site_label
 _atom_site_symmetry_multiplicity
 _atom_site_fract_x
 _atom_site_fract_y
 _atom_site_fract_z
 _atom_site_occupancy
  C  C1  1  0.198300  0.641700  0.344800  1
  C  C2  1  0.301700  0.146500  0.943400  1
  C  C3  1  0.296900  0.943400  0.641700  1
  C  C4  1  0.203100  0.344800  0.146500  1
  C  C5  1  0.203100  0.358300  0.056600  1
  C  C6  1  0.296900  0.853500  0.655200  1
  C  C7  1  0.198300  0.056600  0.853500  1
  C  C8  1  0.301700  0.655200  0.358300  1
  C  C9  1  0.801700  0.358300  0.655200  1
  C  C10  1  0.698300  0.853500  0.056600  1
  C  C11  1  0.703100  0.056600  0.358300  1
  C  C12  1  0.796900  0.655200  0.853500  1
  C  C13  1  0.796900  0.641700  0.943400  1
  C  C14  1  0.703100  0.146500  0.344800  1
  C  C15  1  0.801700  0.943400  0.146500  1
  C  C16  1  0.698300  0.344800  0.641700  1
  C  C17  1  0.078500  0.349980  0.428480  1.0
  C  C18  1  0.421500  0.349980  0.771480  1.0
  C  C19  1  0.921500  0.771480  0.349980  1.0
  C  C20  1  0.578500  0.428480  0.349980  1.0
  C  C21  1  0.578500  0.650020  0.228520  1.0
  C  C22  1  0.921500  0.650020  0.571520  1.0
  C  C23  1  0.078500  0.228520  0.650020  1.0
  C  C24  1  0.421500  0.571520  0.650020  1.0
  C  C25  1  0.127600  0.477330  0.528550  1.0
  C  C26  1  0.372400  0.400950  0.849730  1.0
  C  C27  1  0.948780  0.849730  0.477330  1.0
  C  C28  1  0.551220  0.528550  0.400950  1.0
  C  C29  1  0.551220  0.522670  0.150270  1.0
  C  C30  1  0.948780  0.599050  0.471450  1.0
  C  C31  1  0.127600  0.150270  0.599050  1.0
  C  C32  1  0.372400  0.471450  0.522670  1.0
  C  C33  1  0.872400  0.522670  0.471450  1.0
  C  C34  1  0.627600  0.599050  0.150270  1.0
  C  C35  1  0.051220  0.150270  0.522670  1.0
  C  C36  1  0.448780  0.471450  0.599050  1.0
  C  C37  1  0.448780  0.477330  0.849730  1.0
  C  C38  1  0.051220  0.400950  0.528550  1.0
  C  C39  1  0.872400  0.849730  0.400950  1.0
  C  C40  1  0.627600  0.528550  0.477330  1.0
  C  C41  1  0.194160  0.581500  0.576160  1.0
  C  C42  1  0.305840  0.382000  0.887340  1.0
  C  C43  1  0.005340  0.887340  0.581500  1.0
  C  C44  1  0.494660  0.576160  0.382000  1.0
  C  C45  1  0.494660  0.418500  0.112660  1.0
  C  C46  1  0.005340  0.618000  0.423840  1.0
  C  C47  1  0.194160  0.112660  0.618000  1.0
  C  C48  1  0.305840  0.423840  0.418500  1.0
  C  C49  1  0.805840  0.418500  0.423840  1.0
  C  C50  1  0.694160  0.618000  0.112660  1.0
  C  C51  1  0.994660  0.112660  0.418500  1.0
  C  C52  1  0.505340  0.423840  0.618000  1.0
  C  C53  1  0.505340  0.581500  0.887340  1.0
  C  C54  1  0.994660  0.382000  0.576160  1.0
  C  C55  1  0.805840  0.887340  0.382000  1.0
  C  C56  1  0.694160  0.576160  0.581500  1.0
  C  C57  1  0.204600  0.616000  0.318800  1.0
  C  C58  1  0.295400  0.114200  0.911400  1.0
  C  C59  1  0.297200  0.911400  0.616000  1.0
  C  C60  1  0.202800  0.318800  0.114200  1.0
  C  C61  1  0.202800  0.384000  0.088600  1.0
  C  C62  1  0.297200  0.885800  0.681200  1.0
  C  C63  1  0.204600  0.088600  0.885800  1.0
  C  C64  1  0.295400  0.681200  0.384000  1.0
  C  C65  1  0.795400  0.384000  0.681200  1.0
  C  C66  1  0.704600  0.885800  0.088600  1.0
  C  C67  1  0.702800  0.088600  0.384000  1.0
  C  C68  1  0.797200  0.681200  0.885800  1.0
  C  C69  1  0.797200  0.616000  0.911400  1.0
  C  C70  1  0.702800  0.114200  0.318800  1.0
  C  C71  1  0.795400  0.911400  0.114200  1.0
  C  C72  1  0.704600  0.318800  0.616000  1.0
  C  C73  1  0.148900  0.641900  0.246600  1.0
  C  C74  1  0.351100  0.097700  0.993000  1.0
  C  C75  1  0.395300  0.993000  0.641900  1.0
  C  C76  1  0.104700  0.246600  0.097700  1.0
  C  C77  1  0.104700  0.358100  0.007000  1.0
  C  C78  1  0.395300  0.902300  0.753400  1.0
  C  C79  1  0.148900  0.007000  0.902300  1.0
  C  C80  1  0.351100  0.753400  0.358100  1.0
  C  C81  1  0.851100  0.358100  0.753400  1.0
  C  C82  1  0.648900  0.902300  0.007000  1.0
  C  C83  1  0.604700  0.007000  0.358100  1.0
  C  C84  1  0.895300  0.753400  0.902300  1.0
  C  C85  1  0.895300  0.641900  0.993000  1.0
  C  C86  1  0.604700  0.097700  0.246600  1.0
  C  C87  1  0.851100  0.993000  0.097700  1.0
  C  C88  1  0.648900  0.246600  0.641900  1.0
  Co  Co89  1  0.250000  0.541200  0.458800  1.0
  Co  Co90  1  0.250000  0.208800  0.791200  1.0
  Co  Co91  1  0.082400  0.791200  0.541200  1.0
  Co  Co92  1  0.417600  0.458800  0.208800  1.0
  Co  Co93  1  0.750000  0.458800  0.541200  1.0
  Co  Co94  1  0.750000  0.791200  0.208800  1.0
  Co  Co95  1  0.917600  0.208800  0.458800  1.0
  Co  Co96  1  0.582400  0.541200  0.791200  1.0
  H  H97  1  0.118000  0.696800  0.078800  1
  H  H98  1  0.382000  0.960800  0.078800  1
  H  H99  1  0.618000  0.078800  0.696800  1
  H  H100  1  0.882000  0.078800  0.960800  1
  H  H101  1  0.882000  0.303200  0.921200  1
  H  H102  1  0.618000  0.039200  0.921200  1
  H  H103  1  0.118000  0.921200  0.039200  1
  H  H104  1  0.382000  0.921200  0.303200  1
  H  H105  1  0.005700  0.710700  0.205000  1
  H  H106  1  0.494300  0.199300  0.205000  1
  H  H107  1  0.505700  0.205000  0.710700  1
  H  H108  1  0.994300  0.205000  0.199300  1
  H  H109  1  0.994300  0.289300  0.795000  1
  H  H110  1  0.505700  0.800700  0.795000  1
  H  H111  1  0.005700  0.795000  0.800700  1
  H  H112  1  0.494300  0.795000  0.289300  1
  H  H113  1  0.089000  0.769300  0.180300  1
  H  H114  1  0.411000  0.091300  0.180300  1
  H  H115  1  0.589000  0.180300  0.769300  1
  H  H116  1  0.911000  0.180300  0.091300  1
  H  H117  1  0.911000  0.230700  0.819700  1
  H  H118  1  0.589000  0.908700  0.819700  1
  H  H119  1  0.089000  0.819700  0.908700  1
  H  H120  1  0.411000  0.819700  0.230700  1
  H  H121  1  0.959000  0.329000  0.160000  1
  H  H122  1  0.541000  0.201000  0.870000  1
  H  H123  1  0.169000  0.870000  0.329000  1
  H  H124  1  0.331000  0.160000  0.201000  1
  H  H125  1  0.331000  0.671000  0.130000  1
  H  H126  1  0.169000  0.799000  0.840000  1
  H  H127  1  0.959000  0.130000  0.799000  1
  H  H128  1  0.541000  0.840000  0.671000  1
  H  H129  1  0.041000  0.671000  0.840000  1
  H  H130  1  0.459000  0.799000  0.130000  1
  H  H131  1  0.831000  0.130000  0.671000  1
  H  H132  1  0.669000  0.840000  0.799000  1
  H  H133  1  0.669000  0.329000  0.870000  1
  H  H134  1  0.831000  0.201000  0.160000  1
  H  H135  1  0.041000  0.870000  0.201000  1
  H  H136  1  0.459000  0.160000  0.329000  1
  H  H137  1  0.924000  0.394400  0.172400  1
  H  H138  1  0.576000  0.248400  0.970400  1
  H  H139  1  0.222000  0.970400  0.394400  1
  H  H140  1  0.278000  0.172400  0.248400  1
  H  H141  1  0.278000  0.605600  0.029600  1
  H  H142  1  0.222000  0.751600  0.827600  1
  H  H143  1  0.924000  0.029600  0.751600  1
  H  H144  1  0.576000  0.827600  0.605600  1
  H  H145  1  0.076000  0.605600  0.827600  1
  H  H146  1  0.424000  0.751600  0.029600  1
  H  H147  1  0.778000  0.029600  0.605600  1
  H  H148  1  0.722000  0.827600  0.751600  1
  H  H149  1  0.722000  0.394400  0.970400  1
  H  H150  1  0.778000  0.248400  0.172400  1
  H  H151  1  0.076000  0.970400  0.248400  1
  H  H152  1  0.424000  0.172400  0.394400  1
  H  H153  1  0.216000  0.807000  0.137000  1
  H  H154  1  0.284000  0.921000  0.091000  1
  H  H155  1  0.670000  0.091000  0.807000  1
  H  H156  1  0.830000  0.137000  0.921000  1
  H  H157  1  0.830000  0.193000  0.909000  1
  H  H158  1  0.670000  0.079000  0.863000  1
  H  H159  1  0.216000  0.909000  0.079000  1
  H  H160  1  0.284000  0.863000  0.193000  1
  H  H161  1  0.784000  0.193000  0.863000  1
  H  H162  1  0.716000  0.079000  0.909000  1
  H  H163  1  0.330000  0.909000  0.193000  1
  H  H164  1  0.170000  0.863000  0.079000  1
  H  H165  1  0.170000  0.807000  0.091000  1
  H  H166  1  0.330000  0.921000  0.137000  1
  H  H167  1  0.784000  0.091000  0.921000  1
  H  H168  1  0.716000  0.137000  0.807000  1
  H  H169  1  0.399700  0.667700  0.834000  1.0
  H  H170  1  0.100300  0.434300  0.768000  1.0
  H  H171  1  0.833700  0.768000  0.667700  1.0
  H  H172  1  0.666300  0.834000  0.434300  1.0
  H  H173  1  0.666300  0.332300  0.232000  1.0
  H  H174  1  0.833700  0.565700  0.166000  1.0
  H  H175  1  0.399700  0.232000  0.565700  1.0
  H  H176  1  0.100300  0.166000  0.332300  1.0
  H  H177  1  0.600300  0.332300  0.166000  1.0
  H  H178  1  0.899700  0.565700  0.232000  1.0
  H  H179  1  0.166300  0.232000  0.332300  1.0
  H  H180  1  0.333700  0.166000  0.565700  1.0
  H  H181  1  0.333700  0.667700  0.768000  1.0
  H  H182  1  0.166300  0.434300  0.834000  1.0
  H  H183  1  0.600300  0.768000  0.434300  1.0
  H  H184  1  0.899700  0.834000  0.667700  1.0
  H  H185  1  0.147000  0.598000  0.023000  1.0
  H  H186  1  0.353000  0.876000  0.951000  1.0
  H  H187  1  0.575000  0.951000  0.598000  1.0
  H  H188  1  0.925000  0.023000  0.876000  1.0
  H  H189  1  0.925000  0.402000  0.049000  1.0
  H  H190  1  0.575000  0.124000  0.977000  1.0
  H  H191  1  0.147000  0.049000  0.124000  1.0
  H  H192  1  0.353000  0.977000  0.402000  1.0
  H  H193  1  0.853000  0.402000  0.977000  1.0
  H  H194  1  0.647000  0.124000  0.049000  1.0
  H  H195  1  0.425000  0.049000  0.402000  1.0
  H  H196  1  0.075000  0.977000  0.124000  1.0
  H  H197  1  0.075000  0.598000  0.951000  1.0
  H  H198  1  0.425000  0.876000  0.023000  1.0
  H  H199  1  0.853000  0.951000  0.876000  1.0
  H  H200  1  0.647000  0.023000  0.598000  1.0
  H  H201  1  0.225000  0.629400  0.786400  1.0
  H  H202  1  0.275000  0.561400  0.904400  1.0
  H  H203  1  0.843000  0.904400  0.629400  1.0
  H  H204  1  0.657000  0.786400  0.561400  1.0
  H  H205  1  0.657000  0.370600  0.095600  1.0
  H  H206  1  0.843000  0.438600  0.213600  1.0
  H  H207  1  0.225000  0.095600  0.438600  1.0
  H  H208  1  0.275000  0.213600  0.370600  1.0
  H  H209  1  0.775000  0.370600  0.213600  1.0
  H  H210  1  0.725000  0.438600  0.095600  1.0
  H  H211  1  0.157000  0.095600  0.370600  1.0
  H  H212  1  0.343000  0.213600  0.438600  1.0
  H  H213  1  0.343000  0.629400  0.904400  1.0
  H  H214  1  0.157000  0.561400  0.786400  1.0
  H  H215  1  0.775000  0.904400  0.561400  1.0
  H  H216  1  0.725000  0.786400  0.629400  1.0
  H  H217  1  0.073400  0.309800  0.383200  1.0
  H  H218  1  0.426600  0.309800  0.736400  1.0
  H  H219  1  0.926600  0.736400  0.309800  1.0
  H  H220  1  0.573400  0.383200  0.309800  1.0
  H  H221  1  0.573400  0.690200  0.263600  1.0
  H  H222  1  0.926600  0.690200  0.616800  1.0
  H  H223  1  0.073400  0.263600  0.690200  1.0
  H  H224  1  0.426600  0.616800  0.690200  1.0
  N  N225  1  0.143810  0.443840  0.465450  1.0
  N  N226  1  0.356190  0.321640  0.800030  1.0
  N  N227  1  0.978390  0.800030  0.443840  1.0
  N  N228  1  0.521610  0.465450  0.321640  1.0
  N  N229  1  0.521610  0.556160  0.199970  1.0
  N  N230  1  0.978390  0.678360  0.534550  1.0
  N  N231  1  0.143810  0.199970  0.678360  1.0
  N  N232  1  0.356190  0.534550  0.556160  1.0
  N  N233  1  0.856190  0.556160  0.534550  1.0
  N  N234  1  0.643810  0.678360  0.199970  1.0
  N  N235  1  0.021610  0.199970  0.556160  1.0
  N  N236  1  0.478390  0.534550  0.678360  1.0
  N  N237  1  0.478390  0.443840  0.800030  1.0
  N  N238  1  0.021610  0.321640  0.465450  1.0
  N  N239  1  0.856190  0.800030  0.321640  1.0
  N  N240  1  0.643810  0.465450  0.443840  1.0
  N  N241  1  0.146070  0.544660  0.351530  1.0
  N  N242  1  0.353930  0.205460  0.898590  1.0
  N  N243  1  0.193130  0.898590  0.544660  1.0
  N  N244  1  0.306870  0.351530  0.205460  1.0
  N  N245  1  0.306870  0.455340  0.101410  1.0
  N  N246  1  0.193130  0.794540  0.648470  1.0
  N  N247  1  0.146070  0.101410  0.794540  1.0
  N  N248  1  0.353930  0.648470  0.455340  1.0
  N  N249  1  0.853930  0.455340  0.648470  1.0
  N  N250  1  0.646070  0.794540  0.101410  1.0
  N  N251  1  0.806870  0.101410  0.455340  1.0
  N  N252  1  0.693130  0.648470  0.794540  1.0
  N  N253  1  0.693130  0.544660  0.898590  1.0
  N  N254  1  0.806870  0.205460  0.351530  1.0
  N  N255  1  0.853930  0.898590  0.205460  1.0
  N  N256  1  0.646070  0.351530  0.544660  1.0
  O  O257  1  0.142600  0.761130  0.118530  1
  O  O258  1  0.357400  0.975930  0.118530  1
  O  O259  1  0.642600  0.118530  0.761130  1
  O  O260  1  0.857400  0.118530  0.975930  1
  O  O261  1  0.857400  0.238870  0.881470  1
  O  O262  1  0.642600  0.024070  0.881470  1
  O  O263  1  0.142600  0.881470  0.024070  1
  O  O264  1  0.357400  0.881470  0.238870  1
  O  O265  1  0.058800  0.776000  0.217200  1
  O  O266  1  0.441200  0.158400  0.217200  1
  O  O267  1  0.558800  0.217200  0.776000  1
  O  O268  1  0.941200  0.217200  0.158400  1
  O  O269  1  0.941200  0.224000  0.782800  1
  O  O270  1  0.558800  0.841600  0.782800  1
  O  O271  1  0.058800  0.782800  0.841600  1
  O  O272  1  0.441200  0.782800  0.224000  1
  O  O273  1  0.975600  0.392250  0.162650  1
  O  O274  1  0.524400  0.187050  0.916650  1
  O  O275  1  0.229600  0.916650  0.392250  1
  O  O276  1  0.270400  0.162650  0.187050  1
  O  O277  1  0.270400  0.607750  0.083350  1
  O  O278  1  0.229600  0.812950  0.837350  1
  O  O279  1  0.975600  0.083350  0.812950  1
  O  O280  1  0.524400  0.837350  0.607750  1
  O  O281  1  0.024400  0.607750  0.837350  1
  O  O282  1  0.475600  0.812950  0.083350  1
  O  O283  1  0.770400  0.083350  0.607750  1
  O  O284  1  0.729600  0.837350  0.812950  1
  O  O285  1  0.729600  0.392250  0.916650  1
  O  O286  1  0.770400  0.187050  0.162650  1
  O  O287  1  0.024400  0.916650  0.187050  1
  O  O288  1  0.475600  0.162650  0.392250  1
  O  O289  1  0.410800  0.716700  0.805900  1
  O  O290  1  0.089200  0.395100  0.805900  1
  O  O291  1  0.910800  0.805900  0.716700  1
  O  O292  1  0.589200  0.805900  0.395100  1
  O  O293  1  0.589200  0.283300  0.194100  1
  O  O294  1  0.910800  0.604900  0.194100  1
  O  O295  1  0.410800  0.194100  0.604900  1
  O  O296  1  0.089200  0.194100  0.283300  1
  O  O297  1  0.076900  0.585300  0.008400  1
  O  O298  1  0.423100  0.931500  0.008400  1
  O  O299  1  0.576900  0.008400  0.585300  1
  O  O300  1  0.923100  0.008400  0.931500  1
  O  O301  1  0.923100  0.414700  0.991600  1
  O  O302  1  0.576900  0.068500  0.991600  1
  O  O303  1  0.076900  0.991600  0.068500  1
  O  O304  1  0.423100  0.991600  0.414700  1
  O  O305  1  0.172300  0.625700  0.798000  1
  O  O306  1  0.327700  0.625700  0.953400  1
  O  O307  1  0.827700  0.953400  0.625700  1
  O  O308  1  0.672300  0.798000  0.625700  1
  O  O309  1  0.672300  0.374300  0.046600  1
  O  O310  1  0.827700  0.374300  0.202000  1
  O  O311  1  0.172300  0.046600  0.374300  1
  O  O312  1  0.327700  0.202000  0.374300  1
  O  O313  1  0.193470  0.623370  0.637940  1.0
  O  O314  1  0.306530  0.444470  0.929900  1.0
  O  O315  1  0.985430  0.929900  0.623370  1.0
  O  O316  1  0.514570  0.637940  0.444470  1.0
  O  O317  1  0.514570  0.376630  0.070100  1.0
  O  O318  1  0.985430  0.555530  0.362060  1.0
  O  O319  1  0.193470  0.070100  0.555530  1.0
  O  O320  1  0.306530  0.362060  0.376630  1.0
  O  O321  1  0.806530  0.376630  0.362060  1.0
  O  O322  1  0.693470  0.555530  0.070100  1.0
  O  O323  1  0.014570  0.070100  0.376630  1.0
  O  O324  1  0.485430  0.362060  0.555530  1.0
  O  O325  1  0.485430  0.623370  0.929900  1.0
  O  O326  1  0.014570  0.444470  0.637940  1.0
  O  O327  1  0.806530  0.929900  0.444470  1.0
  O  O328  1  0.693470  0.637940  0.623370  1.0
  O  O329  1  0.252340  0.623030  0.545890  1.0
  O  O330  1  0.247660  0.293550  0.870690  1.0
  O  O331  1  0.077140  0.870690  0.623030  1.0
  O  O332  1  0.422860  0.545890  0.293550  1.0
  O  O333  1  0.422860  0.376970  0.129310  1.0
  O  O334  1  0.077140  0.706450  0.454110  1.0
  O  O335  1  0.252340  0.129310  0.706450  1.0
  O  O336  1  0.247660  0.454110  0.376970  1.0
  O  O337  1  0.747660  0.376970  0.454110  1.0
  O  O338  1  0.752340  0.706450  0.129310  1.0
  O  O339  1  0.922860  0.129310  0.376970  1.0
  O  O340  1  0.577140  0.454110  0.706450  1.0
  O  O341  1  0.577140  0.623030  0.870690  1.0
  O  O342  1  0.922860  0.293550  0.545890  1.0
  O  O343  1  0.747660  0.870690  0.293550  1.0
  O  O344  1  0.752340  0.545890  0.623030  1.0
