# generated using pymatgen
data_H117Ru6C121N7Cl6O53
_symmetry_space_group_name_H-M   'P 1'
_cell_length_a   13.18100000
_cell_length_b   23.30700000
_cell_length_c   25.69800000
_cell_angle_alpha   107.76000000
_cell_angle_beta   102.02000000
_cell_angle_gamma   98.37000000
_symmetry_Int_Tables_number   1
_chemical_formula_structural   H117Ru6C121N7Cl6O53
_chemical_formula_sum   'H234 Ru12 C242 N14 Cl12 O106'
_cell_volume   7165.92778105
_cell_formula_units_Z   2
loop_
 _symmetry_equiv_pos_site_id
 _symmetry_equiv_pos_as_xyz
  1  'x, y, z'
loop_
 _atom_site_type_symbol
 _atom_site_label
 _atom_site_symmetry_multiplicity
 _atom_site_fract_x
 _atom_site_fract_y
 _atom_site_fract_z
 _atom_site_occupancy
  H  H1  1  0.138800  0.906300  0.224300  1
  H  H2  1  0.861200  0.093700  0.775700  1
  H  H3  1  0.972300  0.831300  0.304500  1
  H  H4  1  0.027700  0.168700  0.695500  1
  H  H5  1  0.094300  0.811200  0.148000  1
  H  H6  1  0.905700  0.188800  0.852000  1
  H  H7  1  0.920100  0.741000  0.232200  1
  H  H8  1  0.079900  0.259000  0.767800  1
  H  H9  1  0.876900  0.598700  0.997000  1
  H  H10  1  0.123100  0.401300  0.003000  1
  H  H11  1  0.862100  0.421200  0.986300  1
  H  H12  1  0.137900  0.578800  0.013700  1
  H  H13  1  0.967200  0.558200  0.137200  1
  H  H14  1  0.032800  0.441800  0.862800  1
  H  H15  1  0.713800  0.505700  0.793500  1
  H  H16  1  0.286200  0.494300  0.206500  1
  H  H17  1  0.811900  0.353900  0.805300  1
  H  H18  1  0.188100  0.646100  0.194700  1
  H  H19  1  0.682300  0.465100  0.695200  1
  H  H20  1  0.317700  0.534900  0.304800  1
  H  H21  1  0.790300  0.318800  0.707600  1
  H  H22  1  0.209700  0.681200  0.292400  1
  H  H23  1  0.863900  0.284800  0.086100  1
  H  H24  1  0.136100  0.715200  0.913900  1
  H  H25  1  0.108800  0.415500  0.202700  1
  H  H26  1  0.891200  0.584500  0.797300  1
  H  H27  1  0.163700  0.341200  0.240900  1
  H  H28  1  0.836300  0.658800  0.759100  1
  H  H29  1  0.911100  0.215200  0.131200  1
  H  H30  1  0.088900  0.784800  0.868800  1
  H  H31  1  0.341500  0.408000  0.670400  1
  H  H32  1  0.658500  0.592000  0.329600  1
  H  H33  1  0.451800  0.263100  0.700400  1
  H  H34  1  0.548200  0.736900  0.299600  1
  H  H35  1  0.412000  0.465600  0.764300  1
  H  H36  1  0.588000  0.534400  0.235700  1
  H  H37  1  0.517300  0.318900  0.796200  1
  H  H38  1  0.482700  0.681100  0.203800  1
  H  H39  1  0.604600  0.582300  0.958500  1
  H  H40  1  0.395400  0.417700  0.041500  1
  H  H41  1  0.703700  0.571500  0.114000  1
  H  H42  1  0.296300  0.428500  0.886000  1
  H  H43  1  0.612800  0.748300  0.178600  1
  H  H44  1  0.387200  0.251700  0.821400  1
  H  H45  1  0.763800  0.810800  0.078400  1
  H  H46  1  0.236200  0.189200  0.921600  1
  H  H47  1  0.767600  0.910100  0.133000  1
  H  H48  1  0.232400  0.089900  0.867000  1
  H  H49  1  0.782100  0.468300  0.232100  1
  H  H50  1  0.217900  0.531700  0.767900  1
  H  H51  1  0.646400  0.305800  0.103500  1
  H  H52  1  0.353600  0.694200  0.896500  1
  H  H53  1  0.807000  0.416800  0.291400  1
  H  H54  1  0.193000  0.583200  0.708600  1
  H  H55  1  0.677700  0.257300  0.169200  1
  H  H56  1  0.322300  0.742700  0.830800  1
  H  H57  1  0.063200  0.107900  0.267800  1
  H  H58  1  0.936800  0.892100  0.732200  1
  H  H59  1  0.148200  0.164000  0.139600  1
  H  H60  1  0.851800  0.836000  0.860400  1
  H  H61  1  0.262400  0.255400  0.209300  1
  H  H62  1  0.737600  0.744600  0.790700  1
  H  H63  1  0.175600  0.201000  0.335000  1
  H  H64  1  0.824400  0.799000  0.665000  1
  H  H65  1  0.964100  0.061500  0.172300  1
  H  H66  1  0.035900  0.938500  0.827700  1
  H  H67  1  0.930300  0.030100  0.073100  1
  H  H68  1  0.069700  0.969900  0.926900  1
  H  H69  1  0.037800  0.076700  0.079600  1
  H  H70  1  0.962200  0.923300  0.920400  1
  H  H71  1  0.941900  0.103100  0.100100  1
  H  H72  1  0.058100  0.896900  0.899900  1
  H  H73  1  0.266700  0.156400  0.520500  1
  H  H74  1  0.733300  0.843600  0.479500  1
  H  H75  1  0.236900  0.224500  0.475900  1
  H  H76  1  0.763100  0.775500  0.524100  1
  H  H77  1  0.176900  0.256000  0.656400  1
  H  H78  1  0.823100  0.744000  0.343600  1
  H  H79  1  0.139500  0.330100  0.610500  1
  H  H80  1  0.860500  0.669900  0.389500  1
  H  H81  1  0.204300  0.372700  0.537600  1
  H  H82  1  0.795700  0.627300  0.462400  1
  H  H83  1  0.046200  0.368500  0.473100  1
  H  H84  1  0.953800  0.631500  0.526900  1
  H  H85  1  0.020500  0.341800  0.520500  1
  H  H86  1  0.979500  0.658200  0.479500  1
  H  H87  1  0.011500  0.295500  0.458400  1
  H  H88  1  0.988500  0.704500  0.541600  1
  H  H89  1  0.034200  0.502300  0.621700  1
  H  H90  1  0.965800  0.497700  0.378300  1
  H  H91  1  0.001800  0.567700  0.634500  1
  H  H92  1  0.998200  0.432300  0.365500  1
  H  H93  1  0.954000  0.515500  0.573100  1
  H  H94  1  0.046000  0.484500  0.426900  1
  H  H95  1  0.680600  0.317100  0.485200  1
  H  H96  1  0.319400  0.682900  0.514800  1
  H  H97  1  0.902200  0.300400  0.619700  1
  H  H98  1  0.097800  0.699600  0.380300  1
  H  H99  1  0.949600  0.407900  0.666000  1
  H  H100  1  0.050400  0.592100  0.334000  1
  H  H101  1  0.723500  0.426600  0.534400  1
  H  H102  1  0.276500  0.573400  0.465600  1
  H  H103  1  0.714900  0.219300  0.481000  1
  H  H104  1  0.285100  0.780700  0.519000  1
  H  H105  1  0.740900  0.212400  0.542200  1
  H  H106  1  0.259100  0.787600  0.457800  1
  H  H107  1  0.832500  0.215900  0.510200  1
  H  H108  1  0.167500  0.784100  0.489800  1
  H  H109  1  0.912000  0.509000  0.673600  1
  H  H110  1  0.088000  0.491000  0.326400  1
  H  H111  1  0.736200  0.517100  0.631600  1
  H  H112  1  0.263800  0.482900  0.368400  1
  H  H113  1  0.773200  0.524800  0.578200  1
  H  H114  1  0.226800  0.475200  0.421800  1
  H  H115  1  0.821500  0.577500  0.639400  1
  H  H116  1  0.178500  0.422500  0.360600  1
  H  H117  1  0.647100  0.390800  0.333100  1
  H  H118  1  0.352900  0.609200  0.666900  1
  H  H119  1  0.680000  0.191800  0.337500  1
  H  H120  1  0.320000  0.808200  0.662500  1
  H  H121  1  0.790400  0.278500  0.398900  1
  H  H122  1  0.209600  0.721500  0.601100  1
  H  H123  1  0.522300  0.298200  0.260700  1
  H  H124  1  0.477700  0.701800  0.739300  1
  H  H125  1  0.575900  0.149500  0.234800  1
  H  H126  1  0.424100  0.850500  0.765200  1
  H  H127  1  0.516300  0.212000  0.178800  1
  H  H128  1  0.483700  0.788000  0.821200  1
  H  H129  1  0.411800  0.213200  0.201200  1
  H  H130  1  0.588200  0.786800  0.798800  1
  H  H131  1  0.427300  0.149700  0.160400  1
  H  H132  1  0.572700  0.850300  0.839600  1
  H  H133  1  0.404400  0.098100  0.233500  1
  H  H134  1  0.595600  0.901900  0.766500  1
  H  H135  1  0.389000  0.160900  0.275600  1
  H  H136  1  0.611000  0.839100  0.724400  1
  H  H137  1  0.477900  0.127400  0.297400  1
  H  H138  1  0.522100  0.872600  0.702600  1
  H  H139  1  0.019800  0.972200  0.119900  1
  H  H140  1  0.980200  0.027800  0.880100  1
  H  H141  1  0.089800  0.001300  0.184500  1
  H  H142  1  0.910200  0.998700  0.815500  1
  H  H143  1  0.137100  0.013800  0.135500  1
  H  H144  1  0.862900  0.986200  0.864500  1
  H  H145  1  0.304500  0.294800  0.363500  1
  H  H146  1  0.695500  0.705200  0.636500  1
  H  H147  1  0.281200  0.329100  0.318500  1
  H  H148  1  0.718800  0.670900  0.681500  1
  H  H149  1  0.382300  0.298600  0.323900  1
  H  H150  1  0.617700  0.701400  0.676100  1
  H  H151  1  0.615400  0.416100  0.977800  1
  H  H152  1  0.384600  0.583900  0.022200  1
  H  H153  1  0.609400  0.852600  0.228300  1
  H  H154  1  0.390600  0.147400  0.771700  1
  H  H155  1  0.200100  0.893000  0.391800  1
  H  H156  1  0.799900  0.107000  0.608200  1
  H  H157  1  0.098500  0.052900  0.437700  1
  H  H158  1  0.901500  0.947100  0.562300  1
  H  H159  1  0.180400  0.090400  0.380100  1
  H  H160  1  0.819600  0.909600  0.619900  1
  H  H161  1  0.292700  0.926900  0.332300  1
  H  H162  1  0.707300  0.073100  0.667700  1
  H  H163  1  0.292400  0.080300  0.317100  1
  H  H164  1  0.707600  0.919700  0.682900  1
  H  H165  1  0.269500  0.010600  0.274500  1
  H  H166  1  0.730500  0.989400  0.725500  1
  H  H167  1  0.380700  0.040400  0.322000  1
  H  H168  1  0.619300  0.959600  0.678000  1
  H  H169  1  0.026700  0.967400  0.462600  1
  H  H170  1  0.973300  0.032600  0.537400  1
  H  H171  1  0.012500  0.871000  0.470600  1
  H  H172  1  0.987500  0.129000  0.529400  1
  H  H173  1  0.124200  0.864500  0.457000  1
  H  H174  1  0.875800  0.135500  0.543000  1
  H  H175  1  0.024000  0.861200  0.407900  1
  H  H176  1  0.976000  0.138800  0.592100  1
  H  H177  1  0.745100  0.088700  0.214300  1
  H  H178  1  0.254900  0.911300  0.785700  1
  H  H179  1  0.494100  0.936900  0.158000  1
  H  H180  1  0.505900  0.063100  0.842000  1
  H  H181  1  0.506300  0.944500  0.248900  1
  H  H182  1  0.493700  0.055500  0.751100  1
  H  H183  1  0.745300  0.100900  0.311100  1
  H  H184  1  0.254700  0.899100  0.688900  1
  H  H185  1  0.668100  0.063200  0.377000  1
  H  H186  1  0.331900  0.936800  0.623000  1
  H  H187  1  0.642100  0.989200  0.353400  1
  H  H188  1  0.357900  0.010800  0.646600  1
  H  H189  1  0.547200  0.024900  0.355500  1
  H  H190  1  0.452800  0.975100  0.644500  1
  H  H191  1  0.231900  0.162800  0.660900  1
  H  H192  1  0.768100  0.837200  0.339100  1
  H  H193  1  0.321900  0.149600  0.628400  1
  H  H194  1  0.678100  0.850400  0.371600  1
  H  H195  1  0.203400  0.107800  0.601100  1
  H  H196  1  0.796600  0.892200  0.398900  1
  H  H197  1  0.709200  0.027000  0.066900  1
  H  H198  1  0.290800  0.973000  0.933100  1
  H  H199  1  0.767500  0.012700  0.121200  1
  H  H200  1  0.232500  0.987300  0.878800  1
  H  H201  1  0.736400  0.078100  0.128900  1
  H  H202  1  0.263600  0.921900  0.871100  1
  H  H203  1  0.593200  0.964200  0.090800  1
  H  H204  1  0.406800  0.035800  0.909200  1
  H  H205  1  0.454400  0.024300  0.095500  1
  H  H206  1  0.545600  0.975700  0.904500  1
  H  H207  1  0.514100  0.035900  0.050100  1
  H  H208  1  0.485900  0.964100  0.949900  1
  H  H209  1  0.541800  0.086900  0.112100  1
  H  H210  1  0.458200  0.913100  0.887900  1
  H  H211  1  0.130400  0.963100  0.551500  1
  H  H212  1  0.869600  0.036900  0.448500  1
  H  H213  1  0.183700  0.022300  0.539600  1
  H  H214  1  0.816300  0.977700  0.460400  1
  H  H215  1  0.233000  0.962300  0.527400  1
  H  H216  1  0.767000  0.037700  0.472600  1
  H  H217  1  0.299300  0.324800  0.479800  1
  H  H218  1  0.700700  0.675200  0.520200  1
  H  H219  1  0.222200  0.357700  0.447800  1
  H  H220  1  0.777800  0.642300  0.552200  1
  H  H221  1  0.192000  0.284400  0.432600  1
  H  H222  1  0.808000  0.715600  0.567400  1
  H  H223  1  0.856100  0.388900  0.444700  1
  H  H224  1  0.143900  0.611100  0.555300  1
  H  H225  1  0.768200  0.429100  0.439900  1
  H  H226  1  0.231800  0.570900  0.560100  1
  H  H227  1  0.839300  0.418500  0.395800  1
  H  H228  1  0.160700  0.581500  0.604200  1
  H  H229  1  0.647600  0.865600  0.012100  1
  H  H230  1  0.352400  0.134400  0.987900  1
  H  H231  1  0.649100  0.837900  0.947200  1
  H  H232  1  0.350900  0.162100  0.052800  1
  H  H233  1  0.620800  0.903900  0.970800  1
  H  H234  1  0.379200  0.096100  0.029200  1
  Ru  Ru235  1  0.096920  0.963460  0.338150  1
  Ru  Ru236  1  0.903080  0.036540  0.661850  1
  Ru  Ru237  1  0.731180  0.357950  0.605680  1
  Ru  Ru238  1  0.268820  0.642050  0.394320  1
  Ru  Ru239  1  0.077620  0.214470  0.236230  1
  Ru  Ru240  1  0.922380  0.785530  0.763770  1
  Ru  Ru241  1  0.314770  0.275870  0.593820  1
  Ru  Ru242  1  0.685230  0.724130  0.406180  1
  Ru  Ru243  1  0.733050  0.289440  0.298100  1
  Ru  Ru244  1  0.266950  0.710560  0.701900  1
  Ru  Ru245  1  0.699230  0.981550  0.234400  1
  Ru  Ru246  1  0.300770  0.018450  0.765600  1
  C  C247  1  0.092100  0.871800  0.225300  1
  C  C248  1  0.907900  0.128200  0.774700  1
  C  C249  1  0.994900  0.828500  0.271300  1
  C  C250  1  0.005100  0.171500  0.728700  1
  C  C251  1  0.067100  0.814600  0.180000  1
  C  C252  1  0.932900  0.185400  0.820000  1
  C  C253  1  0.967200  0.774100  0.229200  1
  C  C254  1  0.032800  0.225900  0.770800  1
  C  C255  1  0.003100  0.764200  0.182900  1
  C  C256  1  0.996900  0.235800  0.817100  1
  C  C257  1  0.976700  0.705000  0.139800  1
  C  C258  1  0.023300  0.295000  0.860200  1
  C  C259  1  0.951100  0.649800  0.102800  1
  C  C260  1  0.048900  0.350200  0.897200  1
  C  C261  1  0.929200  0.589800  0.071300  1
  C  C262  1  0.070800  0.410200  0.928700  1
  C  C263  1  0.888500  0.569200  0.015000  1
  C  C264  1  0.111500  0.430800  0.985000  1
  C  C265  1  0.861900  0.506400  0.981000  1
  C  C266  1  0.138100  0.493600  0.019000  1
  C  C267  1  0.878900  0.464100  0.007900  1
  C  C268  1  0.121100  0.535900  0.992100  1
  C  C269  1  0.919800  0.483900  0.065500  1
  C  C270  1  0.080200  0.516100  0.934500  1
  C  C271  1  0.942200  0.545300  0.097000  1
  C  C272  1  0.057800  0.454700  0.903000  1
  C  C273  1  0.826600  0.483800  0.921600  1
  C  C274  1  0.173400  0.516200  0.078400  1
  C  C275  1  0.796200  0.461100  0.870400  1
  C  C276  1  0.203800  0.538900  0.129600  1
  C  C277  1  0.771800  0.435200  0.808700  1
  C  C278  1  0.228200  0.564800  0.191300  1
  C  C279  1  0.730500  0.467300  0.776200  1
  C  C280  1  0.269500  0.532700  0.223800  1
  C  C281  1  0.789700  0.378400  0.783500  1
  C  C282  1  0.210300  0.621600  0.216500  1
  C  C283  1  0.713000  0.443600  0.718200  1
  C  C284  1  0.287000  0.556400  0.281800  1
  C  C285  1  0.774800  0.357500  0.725400  1
  C  C286  1  0.225200  0.642500  0.274600  1
  C  C287  1  0.939700  0.437800  0.092800  1
  C  C288  1  0.060300  0.562200  0.907200  1
  C  C289  1  0.956200  0.399800  0.112300  1
  C  C290  1  0.043800  0.600200  0.887700  1
  C  C291  1  0.987800  0.357400  0.140100  1
  C  C292  1  0.012200  0.642600  0.859900  1
  C  C293  1  0.924100  0.297100  0.118000  1
  C  C294  1  0.075900  0.702900  0.882000  1
  C  C295  1  0.070100  0.373700  0.186100  1
  C  C296  1  0.929900  0.626300  0.813900  1
  C  C297  1  0.100900  0.329700  0.210600  1
  C  C298  1  0.899100  0.670300  0.789400  1
  C  C299  1  0.953700  0.256100  0.145100  1
  C  C300  1  0.046300  0.743900  0.854900  1
  C  C301  1  0.376300  0.390700  0.696200  1
  C  C302  1  0.623700  0.609300  0.303800  1
  C  C303  1  0.442400  0.304100  0.715300  1
  C  C304  1  0.557600  0.695900  0.284700  1
  C  C305  1  0.420100  0.424200  0.751400  1
  C  C306  1  0.579900  0.575800  0.248600  1
  C  C307  1  0.484400  0.337700  0.771200  1
  C  C308  1  0.515600  0.662300  0.228800  1
  C  C309  1  0.479200  0.401900  0.793000  1
  C  C310  1  0.520800  0.598100  0.207000  1
  C  C311  1  0.521400  0.437500  0.851000  1
  C  C312  1  0.478600  0.562500  0.149000  1
  C  C313  1  0.560800  0.463700  0.899800  1
  C  C314  1  0.439200  0.536300  0.100200  1
  C  C315  1  0.597900  0.494700  0.959400  1
  C  C316  1  0.402100  0.505300  0.040600  1
  C  C317  1  0.615700  0.558600  0.982500  1
  C  C318  1  0.384300  0.441400  0.017500  1
  C  C319  1  0.650900  0.588300  0.042600  1
  C  C320  1  0.349100  0.411700  0.957400  1
  C  C321  1  0.675000  0.552100  0.074200  1
  C  C322  1  0.325000  0.447900  0.925800  1
  C  C323  1  0.660100  0.490100  0.051700  1
  C  C324  1  0.339900  0.509900  0.948300  1
  C  C325  1  0.665900  0.650600  0.065700  1
  C  C326  1  0.334100  0.349400  0.934300  1
  C  C327  1  0.674700  0.709000  0.090800  1
  C  C328  1  0.325300  0.291000  0.909200  1
  C  C329  1  0.683600  0.768900  0.122600  1
  C  C330  1  0.316400  0.231100  0.877400  1
  C  C331  1  0.642100  0.781000  0.167600  1
  C  C332  1  0.357900  0.219000  0.832400  1
  C  C333  1  0.732500  0.818100  0.109200  1
  C  C334  1  0.267500  0.181900  0.890800  1
  C  C335  1  0.733800  0.876800  0.141900  1
  C  C336  1  0.266200  0.123200  0.858100  1
  C  C337  1  0.679200  0.454600  0.089500  1
  C  C338  1  0.320800  0.545400  0.910500  1
  C  C339  1  0.696100  0.425700  0.120000  1
  C  C340  1  0.303900  0.574300  0.880000  1
  C  C341  1  0.712400  0.395000  0.159200  1
  C  C342  1  0.287600  0.605000  0.840800  1
  C  C343  1  0.758900  0.424600  0.217500  1
  C  C344  1  0.241100  0.575400  0.782500  1
  C  C345  1  0.679800  0.329800  0.142300  1
  C  C346  1  0.320200  0.670200  0.857700  1
  C  C347  1  0.771600  0.393500  0.252800  1
  C  C348  1  0.228400  0.606500  0.747200  1
  C  C349  1  0.696600  0.301200  0.181900  1
  C  C350  1  0.303400  0.698800  0.818100  1
  C  C351  1  0.106000  0.123600  0.198200  1
  C  C352  1  0.894000  0.876400  0.801800  1
  C  C353  1  0.114900  0.133700  0.255900  1
  C  C354  1  0.885100  0.866300  0.744100  1
  C  C355  1  0.166300  0.167400  0.180400  1
  C  C356  1  0.833700  0.832600  0.819600  1
  C  C357  1  0.234500  0.221000  0.221700  1
  C  C358  1  0.765500  0.779000  0.778300  1
  C  C359  1  0.183900  0.188800  0.295600  1
  C  C360  1  0.816100  0.811200  0.704400  1
  C  C361  1  0.241800  0.234700  0.281800  1
  C  C362  1  0.758200  0.765300  0.718200  1
  C  C363  1  0.025500  0.067500  0.155700  1
  C  C364  1  0.974500  0.932500  0.844300  1
  C  C365  1  0.979800  0.069500  0.096900  1
  C  C366  1  0.020200  0.930500  0.903100  1
  C  C367  1  0.216500  0.194700  0.592500  1
  C  C368  1  0.783500  0.805300  0.407500  1
  C  C369  1  0.224600  0.186700  0.535800  1
  C  C370  1  0.775400  0.813300  0.464200  1
  C  C371  1  0.208300  0.227200  0.509500  1
  C  C372  1  0.791700  0.772800  0.490500  1
  C  C373  1  0.173300  0.244100  0.615100  1
  C  C374  1  0.826700  0.755900  0.384900  1
  C  C375  1  0.152700  0.289600  0.588600  1
  C  C376  1  0.847300  0.710400  0.411400  1
  C  C377  1  0.175500  0.279800  0.534400  1
  C  C378  1  0.824500  0.720200  0.465600  1
  C  C379  1  0.167200  0.332300  0.506900  1
  C  C380  1  0.832800  0.667700  0.493100  1
  C  C381  1  0.051000  0.334700  0.488100  1
  C  C382  1  0.949000  0.665300  0.511900  1
  C  C383  1  0.976600  0.523200  0.613900  1
  C  C384  1  0.023400  0.476800  0.386100  1
  C  C385  1  0.745500  0.336400  0.518000  1
  C  C386  1  0.254500  0.663600  0.482000  1
  C  C387  1  0.797600  0.298600  0.544100  1
  C  C388  1  0.202400  0.701400  0.455900  1
  C  C389  1  0.877900  0.327300  0.598100  1
  C  C390  1  0.122100  0.672700  0.401900  1
  C  C391  1  0.907200  0.391100  0.625400  1
  C  C392  1  0.092800  0.608900  0.374600  1
  C  C393  1  0.857500  0.430900  0.602400  1
  C  C394  1  0.142500  0.569100  0.397600  1
  C  C395  1  0.770800  0.401000  0.547400  1
  C  C396  1  0.229200  0.599000  0.452600  1
  C  C397  1  0.769100  0.230900  0.517100  1
  C  C398  1  0.230900  0.769100  0.482900  1
  C  C399  1  0.888400  0.499800  0.631800  1
  C  C400  1  0.111600  0.500200  0.368200  1
  C  C401  1  0.796300  0.532900  0.619100  1
  C  C402  1  0.203700  0.467100  0.380900  1
  C  C403  1  0.863300  0.218700  0.246000  1
  C  C404  1  0.136700  0.781300  0.754000  1
  C  C405  1  0.722000  0.341900  0.379400  1
  C  C406  1  0.278000  0.658100  0.620600  1
  C  C407  1  0.643900  0.349400  0.337400  1
  C  C408  1  0.356100  0.650600  0.662600  1
  C  C409  1  0.588500  0.240000  0.299000  1
  C  C410  1  0.411500  0.760000  0.701000  1
  C  C411  1  0.663800  0.233000  0.339800  1
  C  C412  1  0.336200  0.767000  0.660200  1
  C  C413  1  0.723400  0.283400  0.375600  1
  C  C414  1  0.276600  0.716600  0.624400  1
  C  C415  1  0.571500  0.295700  0.294900  1
  C  C416  1  0.428500  0.704300  0.705100  1
  C  C417  1  0.523300  0.174700  0.245600  1
  C  C418  1  0.476700  0.825300  0.754400  1
  C  C419  1  0.463900  0.188800  0.191200  1
  C  C420  1  0.536100  0.811200  0.808800  1
  C  C421  1  0.441100  0.136800  0.264800  1
  C  C422  1  0.558900  0.863200  0.735200  1
  C  C423  1  0.950100  0.277700  0.296800  1
  C  C424  1  0.049900  0.722300  0.703200  1
  C  C425  1  0.072500  0.008100  0.148200  1
  C  C426  1  0.927500  0.991900  0.851800  1
  C  C427  1  0.308200  0.294500  0.325700  1
  C  C428  1  0.691800  0.705500  0.674300  1
  C  C429  1  0.623300  0.459500  0.993800  1
  C  C430  1  0.376700  0.540500  0.006200  1
  C  C431  1  0.642700  0.843500  0.198300  1
  C  C432  1  0.357300  0.156500  0.801700  1
  C  C433  1  0.210400  0.937400  0.394900  1
  C  C434  1  0.789600  0.062600  0.605100  1
  C  C435  1  0.156400  0.974600  0.426800  1
  C  C436  1  0.843600  0.025400  0.573200  1
  C  C437  1  0.151200  0.031100  0.421900  1
  C  C438  1  0.848800  0.968900  0.578100  1
  C  C439  1  0.199500  0.053300  0.388000  1
  C  C440  1  0.800500  0.946700  0.612000  1
  C  C441  1  0.259200  0.016800  0.352700  1
  C  C442  1  0.740800  0.983200  0.647300  1
  C  C443  1  0.267000  0.957700  0.360100  1
  C  C444  1  0.733000  0.042300  0.639900  1
  C  C445  1  0.304100  0.038800  0.313400  1
  C  C446  1  0.695900  0.961200  0.686600  1
  C  C447  1  0.092100  0.950300  0.463500  1
  C  C448  1  0.907900  0.049700  0.536500  1
  C  C449  1  0.060400  0.880500  0.448400  1
  C  C450  1  0.939600  0.119500  0.551600  1
  C  C451  1  0.682500  0.064700  0.220800  1
  C  C452  1  0.317500  0.935300  0.779200  1
  C  C453  1  0.616700  0.019600  0.175900  1
  C  C454  1  0.383300  0.980400  0.824100  1
  C  C455  1  0.535000  0.976500  0.188800  1
  C  C456  1  0.465000  0.023500  0.811200  1
  C  C457  1  0.544000  0.980800  0.242100  1
  C  C458  1  0.456000  0.019200  0.757900  1
  C  C459  1  0.613200  0.026300  0.287700  1
  C  C460  1  0.386800  0.973700  0.712300  1
  C  C461  1  0.685300  0.071500  0.279000  1
  C  C462  1  0.314700  0.928500  0.721000  1
  C  C463  1  0.618100  0.025900  0.349200  1
  C  C464  1  0.381900  0.974100  0.650800  1
  C  C465  1  0.538400  0.283700  0.600000  1
  C  C466  1  0.461600  0.716300  0.400000  1
  C  C467  1  0.505600  0.344800  0.590800  1
  C  C468  1  0.494400  0.655200  0.409200  1
  C  C469  1  0.246100  0.149600  0.623600  1
  C  C470  1  0.753900  0.850400  0.376400  1
  C  C471  1  0.715000  0.033700  0.107000  1
  C  C472  1  0.285000  0.966300  0.893000  1
  C  C473  1  0.876300  0.960300  0.307200  1
  C  C474  1  0.123700  0.039700  0.692800  1
  C  C475  1  0.918100  0.988600  0.266200  1
  C  C476  1  0.081900  0.011400  0.733800  1
  C  C477  1  0.614500  0.009500  0.113000  1
  C  C478  1  0.385500  0.990500  0.887000  1
  C  C479  1  0.522000  0.042400  0.090400  1
  C  C480  1  0.478000  0.957600  0.909600  1
  C  C481  1  0.167000  0.977100  0.526500  1
  C  C482  1  0.833000  0.022900  0.473500  1
  C  C483  1  0.225000  0.324100  0.463100  1
  C  C484  1  0.775000  0.675900  0.536900  1
  C  C485  1  0.803500  0.399700  0.418400  1
  C  C486  1  0.196500  0.600300  0.581600  1
  C  C487  1  0.664000  0.875900  0.980100  1
  C  C488  1  0.336000  0.124100  0.019900  1
  N  N489  1  0.051300  0.878200  0.269300  1
  N  N490  1  0.948700  0.121800  0.730700  1
  N  N491  1  0.739900  0.389500  0.694000  1
  N  N492  1  0.260100  0.610500  0.306000  1
  N  N493  1  0.040300  0.271400  0.190600  1
  N  N494  1  0.959700  0.728600  0.809400  1
  N  N495  1  0.384800  0.330100  0.679200  1
  N  N496  1  0.615200  0.669900  0.320800  1
  N  N497  1  0.692100  0.890200  0.184100  1
  N  N498  1  0.307900  0.109800  0.815900  1
  N  N499  1  0.739500  0.333000  0.239400  1
  N  N500  1  0.260500  0.667000  0.760600  1
  N  N501  1  0.767000  0.903300  0.994200  1
  N  N502  1  0.233000  0.096700  0.005800  1
  Cl  Cl503  1  0.955900  0.151820  0.384720  1
  Cl  Cl504  1  0.044100  0.848180  0.615280  1
  Cl  Cl505  1  0.578300  0.594800  0.763500  1
  Cl  Cl506  1  0.421700  0.405200  0.236500  1
  Cl  Cl507  1  0.118500  0.381700  0.739500  1
  Cl  Cl508  1  0.881500  0.618300  0.260500  1
  Cl  Cl509  1  0.380700  0.822700  0.266900  1
  Cl  Cl510  1  0.619300  0.177300  0.733100  1
  Cl  Cl511  1  0.717000  0.698300  0.929200  1
  Cl  Cl512  1  0.283000  0.301700  0.070800  1
  Cl  Cl513  1  0.630900  0.175700  0.026800  1
  Cl  Cl514  1  0.369100  0.824300  0.973200  1
  O  O515  1  0.587000  0.384900  0.594700  1
  O  O516  1  0.413000  0.615100  0.405300  1
  O  O517  1  0.630700  0.280300  0.606200  1
  O  O518  1  0.369300  0.719700  0.393800  1
  O  O519  1  0.410200  0.347800  0.581500  1
  O  O520  1  0.589800  0.652200  0.418500  1
  O  O521  1  0.458500  0.247500  0.600200  1
  O  O522  1  0.541500  0.752500  0.399800  1
  O  O523  1  0.911900  0.181600  0.217200  1
  O  O524  1  0.088100  0.818400  0.782800  1
  O  O525  1  0.044100  0.281200  0.300800  1
  O  O526  1  0.955900  0.718800  0.699200  1
  O  O527  1  0.895800  0.316200  0.321000  1
  O  O528  1  0.104200  0.683800  0.679000  1
  O  O529  1  0.766900  0.215300  0.241000  1
  O  O530  1  0.233100  0.784700  0.759000  1
  O  O531  1  0.937000  0.945100  0.341100  1
  O  O532  1  0.063000  0.054900  0.658900  1
  O  O533  1  0.020900  0.995400  0.274600  1
  O  O534  1  0.979100  0.004600  0.725400  1
  O  O535  1  0.775100  0.952800  0.299200  1
  O  O536  1  0.224900  0.047200  0.700800  1
  O  O537  1  0.855700  0.999900  0.230300  1
  O  O538  1  0.144300  0.000100  0.769700  1
  O  O539  1  0.914600  0.087900  0.365100  1
  O  O540  1  0.085400  0.912100  0.634900  1
  O  O541  1  0.950200  0.175900  0.442000  1
  O  O542  1  0.049800  0.824100  0.558000  1
  O  O543  1  0.898200  0.180500  0.352000  1
  O  O544  1  0.101800  0.819500  0.648000  1
  O  O545  1  0.065500  0.165600  0.386500  1
  O  O546  1  0.934500  0.834400  0.613500  1
  O  O547  1  0.600700  0.661300  0.786600  1
  O  O548  1  0.399300  0.338700  0.213400  1
  O  O549  1  0.589400  0.571000  0.808900  1
  O  O550  1  0.410600  0.429000  0.191100  1
  O  O551  1  0.652300  0.577200  0.731500  1
  O  O552  1  0.347700  0.422800  0.268500  1
  O  O553  1  0.472400  0.574100  0.729000  1
  O  O554  1  0.527600  0.425900  0.271000  1
  O  O555  1  0.188000  0.341300  0.745000  1
  O  O556  1  0.812000  0.658700  0.255000  1
  O  O557  1  0.013700  0.373700  0.743900  1
  O  O558  1  0.986300  0.626300  0.256100  1
  O  O559  1  0.126000  0.409500  0.698000  1
  O  O560  1  0.874000  0.590500  0.302000  1
  O  O561  1  0.181000  0.427300  0.792700  1
  O  O562  1  0.819000  0.572700  0.207300  1
  O  O563  1  0.493300  0.837400  0.291500  1
  O  O564  1  0.506700  0.162600  0.708500  1
  O  O565  1  0.350100  0.867900  0.245300  1
  O  O566  1  0.649900  0.132100  0.754700  1
  O  O567  1  0.349000  0.762800  0.226200  1
  O  O568  1  0.651000  0.237200  0.773800  1
  O  O569  1  0.330100  0.821800  0.312300  1
  O  O570  1  0.669900  0.178200  0.687700  1
  O  O571  1  0.766000  0.720000  0.892300  1
  O  O572  1  0.234000  0.280000  0.107700  1
  O  O573  1  0.606000  0.693000  0.921400  1
  O  O574  1  0.394000  0.307000  0.078600  1
  O  O575  1  0.776000  0.652000  0.918000  1
  O  O576  1  0.224000  0.348000  0.082000  1
  O  O577  1  0.782000  0.755200  0.971300  1
  O  O578  1  0.218000  0.244800  0.028700  1
  O  O579  1  0.577400  0.182900  0.070400  1
  O  O580  1  0.422600  0.817100  0.929600  1
  O  O581  1  0.622000  0.224600  0.005600  1
  O  O582  1  0.378000  0.775400  0.994400  1
  O  O583  1  0.739100  0.176200  0.048600  1
  O  O584  1  0.260900  0.823800  0.951400  1
  O  O585  1  0.582000  0.118100  0.982100  1
  O  O586  1  0.418000  0.881900  0.017900  1
  O  O587  1  0.792000  0.908500  0.950000  1
  O  O588  1  0.208000  0.091500  0.050000  1
  O  O589  1  0.822400  0.916800  0.042700  1
  O  O590  1  0.177600  0.083200  0.957300  1
  O  O591  1  0.647000  0.510800  0.445300  1
  O  O592  1  0.353000  0.489200  0.554700  1
  O  O593  1  0.505000  0.494100  0.404000  1
  O  O594  1  0.495000  0.505900  0.596000  1
  O  O595  1  0.969000  0.818000  0.972000  1
  O  O596  1  0.031000  0.182000  0.028000  1
  O  O597  1  0.201800  0.789000  0.352100  1
  O  O598  1  0.798200  0.211000  0.647900  1
  O  O599  1  0.602000  0.481000  0.471900  1
  O  O600  1  0.398000  0.519000  0.528100  1
  O  O601  1  0.910000  0.790000  0.009000  1
  O  O602  1  0.090000  0.210000  0.991000  1
  O  O603  1  0.981000  0.753000  0.006000  1
  O  O604  1  0.019000  0.247000  0.994000  1
  O  O605  1  0.196500  0.372100  0.781200  1
  O  O606  1  0.803500  0.627900  0.218800  1
  O  O607  1  0.166800  0.411400  0.707100  1
  O  O608  1  0.833200  0.588600  0.292900  1
  O  O609  1  0.051600  0.323000  0.702100  1
  O  O610  1  0.948400  0.677000  0.297900  1
  O  O611  1  0.281200  0.782900  0.253500  1
  O  O612  1  0.718800  0.217100  0.746500  1
  O  O613  1  0.450000  0.791600  0.239700  1
  O  O614  1  0.550000  0.208400  0.760300  1
  O  O615  1  0.365000  0.872000  0.245200  1
  O  O616  1  0.635000  0.128000  0.754800  1
  O  O617  1  0.426000  0.848800  0.325900  1
  O  O618  1  0.574000  0.151200  0.674100  1
  O  O619  1  0.052700  0.418700  0.765800  1
  O  O620  1  0.947300  0.581300  0.234200  1
