# generated using pymatgen
data_Co2B7H77C92N19OF31
_symmetry_space_group_name_H-M   'P 1'
_cell_length_a   15.00712000
_cell_length_b   16.86690000
_cell_length_c   20.43900000
_cell_angle_alpha   73.17270000
_cell_angle_beta   68.64230000
_cell_angle_gamma   80.31640000
_symmetry_Int_Tables_number   1
_chemical_formula_structural   Co2B7H77C92N19OF31
_chemical_formula_sum   'Co4 B14 H154 C184 N38 O2 F62'
_cell_volume   4600.53418991
_cell_formula_units_Z   2
loop_
 _symmetry_equiv_pos_site_id
 _symmetry_equiv_pos_as_xyz
  1  'x, y, z'
loop_
 _atom_site_type_symbol
 _atom_site_label
 _atom_site_symmetry_multiplicity
 _atom_site_fract_x
 _atom_site_fract_y
 _atom_site_fract_z
 _atom_site_occupancy
  Co  Co1  1  0.182920  0.219310  0.461700  1
  Co  Co2  1  0.817080  0.780690  0.538300  1
  Co  Co3  1  0.698210  0.734920  0.107630  1
  Co  Co4  1  0.301790  0.265080  0.892370  1
  B  B5  1  0.021900  0.661320  0.169920  1
  B  B6  1  0.978100  0.338680  0.830080  1
  B  B7  1  0.619050  0.075130  0.137230  1
  B  B8  1  0.380950  0.924870  0.862770  1
  B  B9  1  0.839600  0.407900  0.439260  1
  B  B10  1  0.160400  0.592100  0.560740  1
  B  B11  1  0.821320  0.235360  0.240100  1
  B  B12  1  0.178680  0.764640  0.759900  1
  B  B13  1  0.449700  0.154120  0.565210  1
  B  B14  1  0.550300  0.845880  0.434790  1
  B  B15  1  0.239800  0.219200  0.201100  1
  B  B16  1  0.760200  0.780800  0.798900  1
  B  B17  1  0.218300  0.216000  0.190500  1
  B  B18  1  0.781700  0.784000  0.809500  1
  H  H19  1  0.971700  0.180800  0.530000  1
  H  H20  1  0.028300  0.819200  0.470000  1
  H  H21  1  0.848500  0.196100  0.635700  1
  H  H22  1  0.151500  0.803900  0.364300  1
  H  H23  1  0.874900  0.261100  0.713200  1
  H  H24  1  0.125100  0.738900  0.286800  1
  H  H25  1  0.026900  0.310500  0.682100  1
  H  H26  1  0.973100  0.689500  0.317900  1
  H  H27  1  0.168400  0.367600  0.634800  1
  H  H28  1  0.831600  0.632400  0.365200  1
  H  H29  1  0.318000  0.424200  0.574100  1
  H  H30  1  0.682000  0.575800  0.425900  1
  H  H31  1  0.374000  0.285400  0.430700  1
  H  H32  1  0.626000  0.714600  0.569300  1
  H  H33  1  0.528200  0.295500  0.417700  1
  H  H34  1  0.471800  0.704500  0.582300  1
  H  H35  1  0.662700  0.360200  0.330600  1
  H  H36  1  0.337300  0.639800  0.669400  1
  H  H37  1  0.545100  0.580800  0.377200  1
  H  H38  1  0.454900  0.419200  0.622800  1
  H  H39  1  0.410600  0.516000  0.464600  1
  H  H40  1  0.589400  0.484000  0.535400  1
  H  H41  1  0.831400  0.802100  0.954700  1
  H  H42  1  0.168600  0.197900  0.045300  1
  H  H43  1  0.982900  0.760800  0.883200  1
  H  H44  1  0.017100  0.239200  0.116800  1
  H  H45  1  0.067200  0.642300  0.931600  1
  H  H46  1  0.932800  0.357700  0.068400  1
  H  H47  1  0.995100  0.565800  0.051100  1
  H  H48  1  0.004900  0.434200  0.948900  1
  H  H49  1  0.907100  0.494100  0.162200  1
  H  H50  1  0.092900  0.505900  0.837800  1
  H  H51  1  0.801500  0.427500  0.274200  1
  H  H52  1  0.198500  0.572500  0.725800  1
  H  H53  1  0.613300  0.628200  0.259800  1
  H  H54  1  0.386700  0.371800  0.740200  1
  H  H55  1  0.143300  0.049900  0.456600  1
  H  H56  1  0.856700  0.950100  0.543400  1
  H  H57  1  0.047000  0.003600  0.410000  1
  H  H58  1  0.953000  0.996400  0.590000  1
  H  H59  1  0.953100  0.101100  0.349400  1
  H  H60  1  0.046900  0.898900  0.650600  1
  H  H61  1  0.968100  0.243500  0.328800  1
  H  H62  1  0.031900  0.756500  0.671200  1
  H  H63  1  0.014800  0.374200  0.297800  1
  H  H64  1  0.985200  0.625800  0.702200  1
  H  H65  1  0.077300  0.502700  0.269300  1
  H  H66  1  0.922700  0.497300  0.730700  1
  H  H67  1  0.211900  0.404000  0.416700  1
  H  H68  1  0.788100  0.596000  0.583300  1
  H  H69  1  0.197400  0.542400  0.420000  1
  H  H70  1  0.802600  0.457600  0.580000  1
  H  H71  1  0.300700  0.647000  0.385500  1
  H  H72  1  0.699300  0.353000  0.614500  1
  H  H73  1  0.345000  0.664800  0.173800  1
  H  H74  1  0.655000  0.335200  0.826200  1
  H  H75  1  0.237300  0.563400  0.208400  1
  H  H76  1  0.762700  0.436600  0.791600  1
  H  H77  1  0.882100  0.798900  0.096400  1
  H  H78  1  0.117900  0.201100  0.903600  1
  H  H79  1  0.922200  0.875200  0.159300  1
  H  H80  1  0.077800  0.124800  0.840700  1
  H  H81  1  0.800400  0.926200  0.251200  1
  H  H82  1  0.199600  0.073800  0.748800  1
  H  H83  1  0.640800  0.898500  0.278800  1
  H  H84  1  0.359200  0.101500  0.721200  1
  H  H85  1  0.498000  0.847700  0.309100  1
  H  H86  1  0.502000  0.152300  0.690900  1
  H  H87  1  0.362400  0.775600  0.340000  1
  H  H88  1  0.637600  0.224400  0.660000  1
  H  H89  1  0.492700  0.686800  0.162000  1
  H  H90  1  0.507300  0.313200  0.838000  1
  H  H91  1  0.121900  0.096500  0.610300  1
  H  H92  1  0.878100  0.903500  0.389700  1
  H  H93  1  0.185900  0.971000  0.665300  1
  H  H94  1  0.814100  0.029000  0.334700  1
  H  H95  1  0.334000  0.913000  0.599900  1
  H  H96  1  0.666000  0.087000  0.400100  1
  H  H97  1  0.413400  0.984300  0.479600  1
  H  H98  1  0.586600  0.015700  0.520400  1
  H  H99  1  0.483800  0.065400  0.369500  1
  H  H100  1  0.516200  0.934600  0.630500  1
  H  H101  1  0.550500  0.165500  0.262000  1
  H  H102  1  0.449500  0.834500  0.738000  1
  H  H103  1  0.299900  0.306200  0.309000  1
  H  H104  1  0.700100  0.693800  0.691000  1
  H  H105  1  0.348200  0.365800  0.192800  1
  H  H106  1  0.651800  0.634200  0.807200  1
  H  H107  1  0.404300  0.490300  0.112000  1
  H  H108  1  0.595700  0.509700  0.888000  1
  H  H109  1  0.668200  0.420800  0.131100  1
  H  H110  1  0.331800  0.579200  0.868900  1
  H  H111  1  0.611300  0.296400  0.213200  1
  H  H112  1  0.388700  0.703600  0.786800  1
  H  H113  1  0.709600  0.922100  0.056400  1
  H  H114  1  0.290400  0.077900  0.943600  1
  H  H115  1  0.652300  0.028000  0.976600  1
  H  H116  1  0.347700  0.972000  0.023400  1
  H  H117  1  0.575200  0.995600  0.907500  1
  H  H118  1  0.424800  0.004400  0.092500  1
  H  H119  1  0.553100  0.855500  0.922500  1
  H  H120  1  0.446900  0.144500  0.077500  1
  H  H121  1  0.527200  0.719300  0.953200  1
  H  H122  1  0.472800  0.280700  0.046800  1
  H  H123  1  0.492700  0.579900  0.003900  1
  H  H124  1  0.507300  0.420100  0.996100  1
  H  H125  1  0.658900  0.558600  0.125900  1
  H  H126  1  0.341100  0.441400  0.874100  1
  H  H127  1  0.983700  0.496100  0.470400  1
  H  H128  1  0.016300  0.503900  0.529600  1
  H  H129  1  0.012600  0.548100  0.505800  1
  H  H130  1  0.987400  0.451900  0.494200  1
  H  H131  1  0.143800  0.046700  0.149600  1
  H  H132  1  0.856200  0.953300  0.850400  1
  H  H133  1  0.134200  0.055200  0.227900  1
  H  H134  1  0.865800  0.944800  0.772100  1
  H  H135  1  0.063000  0.110000  0.187100  1
  H  H136  1  0.937000  0.890000  0.812900  1
  H  H137  1  0.258300  0.412900  0.093900  1
  H  H138  1  0.741700  0.587100  0.906100  1
  H  H139  1  0.149500  0.388800  0.122400  1
  H  H140  1  0.850500  0.611200  0.877600  1
  H  H141  1  0.173300  0.473000  0.132000  1
  H  H142  1  0.826700  0.527000  0.868000  1
  H  H143  1  0.240400  0.705400  0.930000  1
  H  H144  1  0.759600  0.294600  0.070000  1
  H  H145  1  0.272500  0.773400  0.956200  1
  H  H146  1  0.727500  0.226600  0.043800  1
  H  H147  1  0.168700  0.738000  0.998300  1
  H  H148  1  0.831300  0.262000  0.001700  1
  H  H149  1  0.187900  0.888900  0.075200  1
  H  H150  1  0.812100  0.111100  0.924800  1
  H  H151  1  0.177300  0.870200  0.159000  1
  H  H152  1  0.822700  0.129800  0.841000  1
  H  H153  1  0.167400  0.797600  0.126600  1
  H  H154  1  0.832600  0.202400  0.873400  1
  H  H155  1  0.864900  0.068700  0.063200  1
  H  H156  1  0.135100  0.931300  0.936800  1
  H  H157  1  0.891000  0.148700  0.077900  1
  H  H158  1  0.109000  0.851300  0.922100  1
  H  H159  1  0.878300  0.062700  0.138700  1
  H  H160  1  0.121700  0.937300  0.861300  1
  H  H161  1  0.743100  0.226500  0.420600  1
  H  H162  1  0.256900  0.773500  0.579400  1
  H  H163  1  0.708000  0.273500  0.484300  1
  H  H164  1  0.292000  0.726500  0.515700  1
  H  H165  1  0.647500  0.201700  0.488100  1
  H  H166  1  0.352500  0.798300  0.511900  1
  H  H167  1  0.419800  0.004500  0.252300  1
  H  H168  1  0.580200  0.995500  0.747700  1
  H  H169  1  0.353500  0.972500  0.334900  1
  H  H170  1  0.646500  0.027500  0.665100  1
  H  H171  1  0.321900  0.056400  0.285000  1
  H  H172  1  0.678100  0.943600  0.715000  1
  C  C173  1  0.983150  0.206600  0.561480  1
  C  C174  1  0.016850  0.793400  0.438520  1
  C  C175  1  0.909340  0.215970  0.624210  1
  C  C176  1  0.090660  0.784030  0.375790  1
  C  C177  1  0.924800  0.254440  0.669910  1
  C  C178  1  0.075200  0.745560  0.330090  1
  C  C179  1  0.014700  0.283450  0.651620  1
  C  C180  1  0.985300  0.716550  0.348380  1
  C  C181  1  0.086050  0.272170  0.588200  1
  C  C182  1  0.913950  0.727830  0.411800  1
  C  C183  1  0.182400  0.301270  0.562320  1
  C  C184  1  0.817600  0.698730  0.437680  1
  C  C185  1  0.210080  0.353780  0.591260  1
  C  C186  1  0.789920  0.646220  0.408740  1
  C  C187  1  0.299270  0.386020  0.556050  1
  C  C188  1  0.700730  0.613980  0.443950  1
  C  C189  1  0.361840  0.362140  0.493660  1
  C  C190  1  0.638160  0.637860  0.506340  1
  C  C191  1  0.330720  0.305420  0.470640  1
  C  C192  1  0.669280  0.694580  0.529360  1
  C  C193  1  0.453670  0.399910  0.447510  1
  C  C194  1  0.546330  0.600090  0.552490  1
  C  C195  1  0.530790  0.353700  0.408500  1
  C  C196  1  0.469210  0.646300  0.591500  1
  C  C197  1  0.610840  0.392240  0.356590  1
  C  C198  1  0.389160  0.607760  0.643410  1
  C  C199  1  0.615620  0.478220  0.342240  1
  C  C200  1  0.384380  0.521780  0.657760  1
  C  C201  1  0.540930  0.523190  0.384340  1
  C  C202  1  0.459070  0.476810  0.615660  1
  C  C203  1  0.460670  0.484640  0.436470  1
  C  C204  1  0.539330  0.515360  0.563530  1
  C  C205  1  0.865010  0.753730  0.974470  1
  C  C206  1  0.134990  0.246270  0.025530  1
  C  C207  1  0.955420  0.729450  0.931620  1
  C  C208  1  0.044580  0.270550  0.068380  1
  C  C209  1  0.004950  0.659370  0.960010  1
  C  C210  1  0.995050  0.340630  0.039990  1
  C  C211  1  0.962440  0.614320  0.030590  1
  C  C212  1  0.037560  0.385680  0.969410  1
  C  C213  1  0.871780  0.640870  0.070850  1
  C  C214  1  0.128220  0.359130  0.929150  1
  C  C215  1  0.817570  0.597310  0.144830  1
  C  C216  1  0.182430  0.402690  0.855170  1
  C  C217  1  0.845530  0.519950  0.182190  1
  C  C218  1  0.154470  0.480050  0.817810  1
  C  C219  1  0.783270  0.480670  0.248660  1
  C  C220  1  0.216730  0.519330  0.751340  1
  C  C221  1  0.693050  0.519980  0.278050  1
  C  C222  1  0.306950  0.480020  0.721950  1
  C  C223  1  0.672100  0.599070  0.239110  1
  C  C224  1  0.327900  0.400930  0.760890  1
  C  C225  1  0.107180  0.089390  0.430640  1
  C  C226  1  0.892820  0.910610  0.569360  1
  C  C227  1  0.049480  0.061390  0.403480  1
  C  C228  1  0.950520  0.938610  0.596520  1
  C  C229  1  0.995290  0.119050  0.366460  1
  C  C230  1  0.004710  0.880950  0.633540  1
  C  C231  1  0.003580  0.203160  0.354760  1
  C  C232  1  0.996420  0.796840  0.645240  1
  C  C233  1  0.064590  0.227360  0.381640  1
  C  C234  1  0.935410  0.772640  0.618360  1
  C  C235  1  0.085630  0.313230  0.368450  1
  C  C236  1  0.914370  0.686770  0.631550  1
  C  C237  1  0.058140  0.380590  0.319770  1
  C  C238  1  0.941860  0.619410  0.680230  1
  C  C239  1  0.094230  0.456870  0.303520  1
  C  C240  1  0.905770  0.543130  0.696480  1
  C  C241  1  0.155880  0.465770  0.338080  1
  C  C242  1  0.844120  0.534230  0.661920  1
  C  C243  1  0.174890  0.397370  0.389810  1
  C  C244  1  0.825110  0.602630  0.610190  1
  C  C245  1  0.209520  0.540090  0.317740  1
  C  C246  1  0.790480  0.459910  0.682260  1
  C  C247  1  0.227800  0.566810  0.370030  1
  C  C248  1  0.772200  0.433190  0.629970  1
  C  C249  1  0.289920  0.628580  0.349440  1
  C  C250  1  0.710080  0.371420  0.650560  1
  C  C251  1  0.336920  0.664060  0.275940  1
  C  C252  1  0.663080  0.335940  0.724060  1
  C  C253  1  0.315620  0.639560  0.223800  1
  C  C254  1  0.684380  0.360440  0.776200  1
  C  C255  1  0.252020  0.578780  0.244290  1
  C  C256  1  0.747980  0.421220  0.755710  1
  C  C257  1  0.833060  0.818560  0.134310  1
  C  C258  1  0.166940  0.181440  0.865690  1
  C  C259  1  0.857230  0.864440  0.171200  1
  C  C260  1  0.142770  0.135560  0.828800  1
  C  C261  1  0.785300  0.894400  0.225610  1
  C  C262  1  0.214700  0.105600  0.774390  1
  C  C263  1  0.691140  0.877510  0.242340  1
  C  C264  1  0.308860  0.122490  0.757660  1
  C  C265  1  0.671610  0.829650  0.205160  1
  C  C266  1  0.328390  0.170350  0.794840  1
  C  C267  1  0.577200  0.800860  0.221930  1
  C  C268  1  0.422800  0.199140  0.778070  1
  C  C269  1  0.497220  0.811900  0.281040  1
  C  C270  1  0.502780  0.188100  0.718960  1
  C  C271  1  0.416410  0.770130  0.298600  1
  C  C272  1  0.583590  0.229870  0.701400  1
  C  C273  1  0.414220  0.720000  0.255460  1
  C  C274  1  0.585780  0.280000  0.744540  1
  C  C275  1  0.494690  0.716860  0.194150  1
  C  C276  1  0.505310  0.283140  0.805850  1
  C  C277  1  0.181420  0.073140  0.583470  1
  C  C278  1  0.818580  0.926860  0.416530  1
  C  C279  1  0.219330  0.998490  0.616650  1
  C  C280  1  0.780670  0.001510  0.383350  1
  C  C281  1  0.306710  0.964210  0.578180  1
  C  C282  1  0.693290  0.035790  0.421820  1
  C  C283  1  0.353550  0.006430  0.507130  1
  C  C284  1  0.646450  0.993570  0.492870  1
  C  C285  1  0.312150  0.081060  0.476860  1
  C  C286  1  0.687850  0.918940  0.523140  1
  C  C287  1  0.356240  0.132680  0.403770  1
  C  C288  1  0.643760  0.867320  0.596230  1
  C  C289  1  0.448260  0.116380  0.357360  1
  C  C290  1  0.551740  0.883620  0.642640  1
  C  C291  1  0.487320  0.175280  0.293380  1
  C  C292  1  0.512680  0.824720  0.706620  1
  C  C293  1  0.433340  0.249130  0.275240  1
  C  C294  1  0.566660  0.750870  0.724760  1
  C  C295  1  0.339240  0.258330  0.322300  1
  C  C296  1  0.660760  0.741670  0.677700  1
  C  C297  1  0.472490  0.320550  0.214320  1
  C  C298  1  0.527510  0.679450  0.785680  1
  C  C299  1  0.412490  0.377740  0.181660  1
  C  C300  1  0.587510  0.622260  0.818340  1
  C  C301  1  0.446010  0.451570  0.133260  1
  C  C302  1  0.553990  0.548430  0.866740  1
  C  C303  1  0.541210  0.469580  0.115450  1
  C  C304  1  0.458790  0.530420  0.884550  1
  C  C305  1  0.602810  0.410440  0.144730  1
  C  C306  1  0.397190  0.589560  0.855270  1
  C  C307  1  0.568880  0.336340  0.193710  1
  C  C308  1  0.431120  0.663660  0.806290  1
  C  C309  1  0.677250  0.908600  0.029280  1
  C  C310  1  0.322750  0.091400  0.970720  1
  C  C311  1  0.643700  0.971780  0.981500  1
  C  C312  1  0.356300  0.028220  0.018500  1
  C  C313  1  0.597620  0.952760  0.940910  1
  C  C314  1  0.402380  0.047240  0.059090  1
  C  C315  1  0.584610  0.870100  0.949690  1
  C  C316  1  0.415390  0.129900  0.050310  1
  C  C317  1  0.618600  0.809420  0.998970  1
  C  C318  1  0.381400  0.190580  0.001030  1
  C  C319  1  0.604740  0.720770  0.016730  1
  C  C320  1  0.395260  0.279230  0.983270  1
  C  C321  1  0.550760  0.686440  0.990660  1
  C  C322  1  0.449240  0.313560  0.009340  1
  C  C323  1  0.531660  0.603560  0.019970  1
  C  C324  1  0.468340  0.396440  0.980030  1
  C  C325  1  0.569720  0.554470  0.073220  1
  C  C326  1  0.430280  0.445530  0.926780  1
  C  C327  1  0.628350  0.591870  0.092820  1
  C  C328  1  0.371650  0.408130  0.907180  1
  C  C329  1  0.031900  0.990680  0.229840  1
  C  C330  1  0.968100  0.009320  0.770160  1
  C  C331  1  0.098700  0.055980  0.195850  1
  C  C332  1  0.901300  0.944020  0.804150  1
  C  C333  1  0.182930  0.478840  0.030410  1
  C  C334  1  0.817070  0.521160  0.969590  1
  C  C335  1  0.191700  0.434800  0.100360  1
  C  C336  1  0.808300  0.565200  0.899640  1
  C  C337  1  0.275300  0.658410  0.020150  1
  C  C338  1  0.724700  0.341590  0.979850  1
  C  C339  1  0.236000  0.724100  0.972300  1
  C  C340  1  0.764000  0.275900  0.027700  1
  C  C341  1  0.303400  0.825860  0.098040  1
  C  C342  1  0.696600  0.174140  0.901960  1
  C  C343  1  0.200600  0.847400  0.116200  1
  C  C344  1  0.799400  0.152600  0.883800  1
  C  C345  1  0.002800  0.064800  0.055900  1
  C  C346  1  0.997200  0.935200  0.944100  1
  C  C347  1  0.900900  0.088100  0.086400  1
  C  C348  1  0.099100  0.911900  0.913600  1
  C  C349  1  0.768400  0.158840  0.511190  1
  C  C350  1  0.231600  0.841160  0.488810  1
  C  C351  1  0.712200  0.220100  0.472900  1
  C  C352  1  0.287800  0.779900  0.527100  1
  C  C353  1  0.302300  0.953430  0.263320  1
  C  C354  1  0.697700  0.046570  0.736680  1
  C  C355  1  0.353600  0.000600  0.285700  1
  C  C356  1  0.646400  0.999400  0.714300  1
  N  N357  1  0.070880  0.233140  0.543820  1
  N  N358  1  0.929120  0.766860  0.456180  1
  N  N359  1  0.242490  0.277380  0.502060  1
  N  N360  1  0.757510  0.722620  0.497940  1
  N  N361  1  0.823840  0.710560  0.043130  1
  N  N362  1  0.176160  0.289440  0.956870  1
  N  N363  1  0.731430  0.636170  0.173470  1
  N  N364  1  0.268570  0.363830  0.826530  1
  N  N365  1  0.113670  0.170970  0.421270  1
  N  N366  1  0.886330  0.829030  0.578730  1
  N  N367  1  0.143210  0.322160  0.403580  1
  N  N368  1  0.856790  0.677840  0.596420  1
  N  N369  1  0.742220  0.801280  0.150770  1
  N  N370  1  0.257780  0.198720  0.849230  1
  N  N371  1  0.575080  0.754390  0.178400  1
  N  N372  1  0.424920  0.245610  0.821600  1
  N  N373  1  0.225960  0.113900  0.514410  1
  N  N374  1  0.774040  0.886100  0.485590  1
  N  N375  1  0.302050  0.202630  0.385400  1
  N  N376  1  0.697950  0.797370  0.614600  1
  N  N377  1  0.664970  0.828550  0.038090  1
  N  N378  1  0.335030  0.171450  0.961910  1
  N  N379  1  0.643930  0.673120  0.067070  1
  N  N380  1  0.356070  0.326880  0.932930  1
  N  N381  1  0.978870  0.940290  0.256580  1
  N  N382  1  0.021130  0.059710  0.743420  1
  N  N383  1  0.176550  0.512560  0.974860  1
  N  N384  1  0.823450  0.487440  0.025140  1
  N  N385  1  0.305000  0.607000  0.058020  1
  N  N386  1  0.695000  0.393000  0.941980  1
  N  N387  1  0.384100  0.810200  0.084500  1
  N  N388  1  0.615900  0.189800  0.915500  1
  N  N389  1  0.083000  0.047000  0.033700  1
  N  N390  1  0.917000  0.953000  0.966300  1
  N  N391  1  0.812200  0.110310  0.541070  1
  N  N392  1  0.187800  0.889690  0.458930  1
  N  N393  1  0.262400  0.915560  0.245890  1
  N  N394  1  0.737600  0.084440  0.754110  1
  O  O395  1  0.965100  0.551700  0.479200  1
  O  O396  1  0.034900  0.448300  0.520800  1
  F  F397  1  0.927970  0.664530  0.218030  1
  F  F398  1  0.072030  0.335470  0.781970  1
  F  F399  1  0.029150  0.722930  0.105660  1
  F  F400  1  0.970850  0.277070  0.894340  1
  F  F401  1  0.084670  0.674740  0.200970  1
  F  F402  1  0.915330  0.325260  0.799030  1
  F  F403  1  0.045100  0.583170  0.154890  1
  F  F404  1  0.954900  0.416830  0.845110  1
  F  F405  1  0.571140  0.153180  0.120000  1
  F  F406  1  0.428860  0.846820  0.880000  1
  F  F407  1  0.648860  0.067770  0.193310  1
  F  F408  1  0.351140  0.932230  0.806690  1
  F  F409  1  0.699910  0.066130  0.075210  1
  F  F410  1  0.300090  0.933870  0.924790  1
  F  F411  1  0.558270  0.013140  0.149050  1
  F  F412  1  0.441730  0.986860  0.850950  1
  F  F413  1  0.889200  0.469100  0.449800  1
  F  F414  1  0.110800  0.530900  0.550200  1
  F  F415  1  0.848700  0.426900  0.371200  1
  F  F416  1  0.151300  0.573100  0.628800  1
  F  F417  1  0.877600  0.333600  0.467800  1
  F  F418  1  0.122400  0.666400  0.532200  1
  F  F419  1  0.743670  0.415080  0.482590  1
  F  F420  1  0.256330  0.584920  0.517410  1
  F  F421  1  0.869000  0.290800  0.254800  1
  F  F422  1  0.131000  0.709200  0.745200  1
  F  F423  1  0.883590  0.160960  0.239920  1
  F  F424  1  0.116410  0.839040  0.760080  1
  F  F425  1  0.729200  0.213700  0.294370  1
  F  F426  1  0.270800  0.786300  0.705630  1
  F  F427  1  0.808060  0.270500  0.177700  1
  F  F428  1  0.191940  0.729500  0.822300  1
  F  F429  1  0.476480  0.225720  0.571640  1
  F  F430  1  0.523520  0.774280  0.428360  1
  F  F431  1  0.487300  0.084790  0.607670  1
  F  F432  1  0.512700  0.915210  0.392330  1
  F  F433  1  0.487840  0.149690  0.492540  1
  F  F434  1  0.512160  0.850310  0.507460  1
  F  F435  1  0.350820  0.153770  0.589210  1
  F  F436  1  0.649180  0.846230  0.410790  1
  F  F437  1  0.206000  0.220660  0.146900  1
  F  F438  1  0.794000  0.779340  0.853100  1
  F  F439  1  0.212040  0.149990  0.258140  1
  F  F440  1  0.787960  0.850010  0.741860  1
  F  F441  1  0.341050  0.214510  0.173110  1
  F  F442  1  0.658950  0.785490  0.826890  1
  F  F443  1  0.209470  0.290800  0.227090  1
  F  F444  1  0.790530  0.709200  0.772910  1
  F  F445  1  0.854500  0.473200  0.379200  1
  F  F446  1  0.145500  0.526800  0.620800  1
  F  F447  1  0.853300  0.342800  0.401700  1
  F  F448  1  0.146700  0.657200  0.598300  1
  F  F449  1  0.905300  0.398700  0.470300  1
  F  F450  1  0.094700  0.601300  0.529700  1
  F  F451  1  0.231400  0.140500  0.169100  1
  F  F452  1  0.768600  0.859500  0.830900  1
  F  F453  1  0.293300  0.259300  0.139900  1
  F  F454  1  0.706700  0.740700  0.860100  1
  F  F455  1  0.231200  0.192400  0.257800  1
  F  F456  1  0.768800  0.807600  0.742200  1
  F  F457  1  0.126600  0.247700  0.194600  1
  F  F458  1  0.873400  0.752300  0.805400  1
