# generated using pymatgen
data_CoB3H33C42(NF2)6
_symmetry_space_group_name_H-M   'P 1'
_cell_length_a   17.35770000
_cell_length_b   17.35770000
_cell_length_c   36.17034147
_cell_angle_alpha   76.11677524
_cell_angle_beta   76.11677524
_cell_angle_gamma   60.00000000
_symmetry_Int_Tables_number   1
_chemical_formula_structural   CoB3H33C42(NF2)6
_chemical_formula_sum   'Co8 B24 H264 C336 N48 F96'
_cell_volume   9068.25971644
_cell_formula_units_Z   8
loop_
 _symmetry_equiv_pos_site_id
 _symmetry_equiv_pos_as_xyz
  1  'x, y, z'
loop_
 _atom_site_type_symbol
 _atom_site_label
 _atom_site_symmetry_multiplicity
 _atom_site_fract_x
 _atom_site_fract_y
 _atom_site_fract_z
 _atom_site_occupancy
  B  B1  1  0.073530  0.528230  0.653510  1
  B  B2  1  0.744730  0.073530  0.653510  1
  B  B3  1  0.528230  0.744730  0.653510  1
  B  B4  1  0.755270  0.971770  0.846490  1
  B  B5  1  0.971770  0.426470  0.846490  1
  B  B6  1  0.426470  0.755270  0.846490  1
  B  B7  1  0.926470  0.471770  0.346490  1
  B  B8  1  0.255270  0.926470  0.346490  1
  B  B9  1  0.471770  0.255270  0.346490  1
  B  B10  1  0.244730  0.028230  0.153510  1
  B  B11  1  0.028230  0.573530  0.153510  1
  B  B12  1  0.573530  0.244730  0.153510  1
  B  B13  1  0.413300  0.210100  0.550100  1
  B  B14  1  0.826500  0.413300  0.550100  1
  B  B15  1  0.210100  0.826500  0.550100  1
  B  B16  1  0.673500  0.289900  0.949900  1
  B  B17  1  0.289900  0.086700  0.949900  1
  B  B18  1  0.086700  0.673500  0.949900  1
  B  B19  1  0.586700  0.789900  0.449900  1
  B  B20  1  0.173500  0.586700  0.449900  1
  B  B21  1  0.789900  0.173500  0.449900  1
  B  B22  1  0.326500  0.710100  0.050100  1
  B  B23  1  0.710100  0.913300  0.050100  1
  B  B24  1  0.913300  0.326500  0.050100  1
  C  C25  1  0.223840  0.205340  0.666380  1.0
  C  C26  1  0.904440  0.223840  0.666380  1.0
  C  C27  1  0.205340  0.904440  0.666380  1.0
  C  C28  1  0.595560  0.294660  0.833620  1.0
  C  C29  1  0.294660  0.276160  0.833620  1.0
  C  C30  1  0.276160  0.595560  0.833620  1.0
  C  C31  1  0.776160  0.794660  0.333620  1.0
  C  C32  1  0.095560  0.776160  0.333620  1.0
  C  C33  1  0.794660  0.095560  0.333620  1.0
  C  C34  1  0.404440  0.705340  0.166380  1.0
  C  C35  1  0.705340  0.723840  0.166380  1.0
  C  C36  1  0.723840  0.404440  0.166380  1.0
  C  C37  1  0.117910  0.331310  0.517370  1.0
  C  C38  1  0.033410  0.117910  0.517370  1.0
  C  C39  1  0.331310  0.033410  0.517370  1.0
  C  C40  1  0.466590  0.168690  0.982630  1.0
  C  C41  1  0.168690  0.382090  0.982630  1.0
  C  C42  1  0.382090  0.466590  0.982630  1.0
  C  C43  1  0.882090  0.668690  0.482630  1.0
  C  C44  1  0.966590  0.882090  0.482630  1.0
  C  C45  1  0.668690  0.966590  0.482630  1.0
  C  C46  1  0.533410  0.831310  0.017370  1.0
  C  C47  1  0.831310  0.617910  0.017370  1.0
  C  C48  1  0.617910  0.533410  0.017370  1.0
  C  C49  1  0.155040  0.303040  0.553880  1.0
  C  C50  1  0.988040  0.155040  0.553880  1.0
  C  C51  1  0.303040  0.988040  0.553880  1.0
  C  C52  1  0.511960  0.196960  0.946120  1.0
  C  C53  1  0.196960  0.344960  0.946120  1.0
  C  C54  1  0.344960  0.511960  0.946120  1.0
  C  C55  1  0.844960  0.696960  0.446120  1.0
  C  C56  1  0.011960  0.844960  0.446120  1.0
  C  C57  1  0.696960  0.011960  0.446120  1.0
  C  C58  1  0.488040  0.803040  0.053880  1.0
  C  C59  1  0.803040  0.655040  0.053880  1.0
  C  C60  1  0.655040  0.488040  0.053880  1.0
  C  C61  1  0.210040  0.238640  0.624980  1.0
  C  C62  1  0.926340  0.210040  0.624980  1.0
  C  C63  1  0.238640  0.926340  0.624980  1.0
  C  C64  1  0.573660  0.261360  0.875020  1.0
  C  C65  1  0.261360  0.289960  0.875020  1.0
  C  C66  1  0.289960  0.573660  0.875020  1.0
  C  C67  1  0.789960  0.761360  0.375020  1.0
  C  C68  1  0.073660  0.789960  0.375020  1.0
  C  C69  1  0.761360  0.073660  0.375020  1.0
  C  C70  1  0.426340  0.738640  0.124980  1.0
  C  C71  1  0.738640  0.710040  0.124980  1.0
  C  C72  1  0.710040  0.426340  0.124980  1.0
  C  C73  1  0.222730  0.108230  0.787010  1.0
  C  C74  1  0.882030  0.222730  0.787010  1.0
  C  C75  1  0.108230  0.882030  0.787010  1.0
  C  C76  1  0.617970  0.391770  0.712990  1.0
  C  C77  1  0.391770  0.277270  0.712990  1.0
  C  C78  1  0.277270  0.617970  0.712990  1.0
  C  C79  1  0.777270  0.891770  0.212990  1.0
  C  C80  1  0.117970  0.777270  0.212990  1.0
  C  C81  1  0.891770  0.117970  0.212990  1.0
  C  C82  1  0.382030  0.608230  0.287010  1.0
  C  C83  1  0.608230  0.722730  0.287010  1.0
  C  C84  1  0.722730  0.382030  0.287010  1.0
  C  C85  1  0.292310  0.122110  0.679370  1.0
  C  C86  1  0.906210  0.292310  0.679370  1.0
  C  C87  1  0.122110  0.906210  0.679370  1.0
  C  C88  1  0.593790  0.377890  0.820630  1.0
  C  C89  1  0.377890  0.207690  0.820630  1.0
  C  C90  1  0.207690  0.593790  0.820630  1.0
  C  C91  1  0.707690  0.877890  0.320630  1.0
  C  C92  1  0.093790  0.707690  0.320630  1.0
  C  C93  1  0.877890  0.093790  0.320630  1.0
  C  C94  1  0.406210  0.622110  0.179370  1.0
  C  C95  1  0.622110  0.792310  0.179370  1.0
  C  C96  1  0.792310  0.406210  0.179370  1.0
  C  C97  1  0.205990  0.184590  0.603530  1.0
  C  C98  1  0.005890  0.205990  0.603530  1.0
  C  C99  1  0.184590  0.005890  0.603530  1.0
  C  C100  1  0.494110  0.315410  0.896470  1.0
  C  C101  1  0.315410  0.294010  0.896470  1.0
  C  C102  1  0.294010  0.494110  0.896470  1.0
  C  C103  1  0.794010  0.815410  0.396470  1.0
  C  C104  1  0.994110  0.794010  0.396470  1.0
  C  C105  1  0.815410  0.994110  0.396470  1.0
  C  C106  1  0.505890  0.684590  0.103530  1.0
  C  C107  1  0.684590  0.705990  0.103530  1.0
  C  C108  1  0.705990  0.505890  0.103530  1.0
  C  C109  1  0.213980  0.950380  0.894560  1.0
  C  C110  1  0.941080  0.213980  0.894560  1.0
  C  C111  1  0.950380  0.941080  0.894560  1.0
  C  C112  1  0.558920  0.549620  0.605440  1.0
  C  C113  1  0.549620  0.286020  0.605440  1.0
  C  C114  1  0.286020  0.558920  0.605440  1.0
  C  C115  1  0.786020  0.049620  0.105440  1.0
  C  C116  1  0.058920  0.786020  0.105440  1.0
  C  C117  1  0.049620  0.058920  0.105440  1.0
  C  C118  1  0.441080  0.450380  0.394560  1.0
  C  C119  1  0.450380  0.713980  0.394560  1.0
  C  C120  1  0.713980  0.441080  0.394560  1.0
  C  C121  1  0.062250  0.291550  0.476750  1.0
  C  C122  1  0.169450  0.062250  0.476750  1.0
  C  C123  1  0.291550  0.169450  0.476750  1.0
  C  C124  1  0.330550  0.208450  0.023250  1.0
  C  C125  1  0.208450  0.437750  0.023250  1.0
  C  C126  1  0.437750  0.330550  0.023250  1.0
  C  C127  1  0.937750  0.708450  0.523250  1.0
  C  C128  1  0.830550  0.937750  0.523250  1.0
  C  C129  1  0.708450  0.830550  0.523250  1.0
  C  C130  1  0.669450  0.791550  0.976750  1.0
  C  C131  1  0.791550  0.562250  0.976750  1.0
  C  C132  1  0.562250  0.669450  0.976750  1.0
  C  C133  1  0.220280  0.010180  0.858860  1.0
  C  C134  1  0.910680  0.220280  0.858860  1.0
  C  C135  1  0.010180  0.910680  0.858860  1.0
  C  C136  1  0.589320  0.489820  0.641140  1.0
  C  C137  1  0.489820  0.279720  0.641140  1.0
  C  C138  1  0.279720  0.589320  0.641140  1.0
  C  C139  1  0.779720  0.989820  0.141140  1.0
  C  C140  1  0.089320  0.779720  0.141140  1.0
  C  C141  1  0.989820  0.089320  0.141140  1.0
  C  C142  1  0.410680  0.510180  0.358860  1.0
  C  C143  1  0.510180  0.720280  0.358860  1.0
  C  C144  1  0.720280  0.410680  0.358860  1.0
  C  C145  1  0.158840  0.260540  0.692780  1.0
  C  C146  1  0.887840  0.158840  0.692780  1.0
  C  C147  1  0.260540  0.887840  0.692780  1.0
  C  C148  1  0.612160  0.239460  0.807220  1.0
  C  C149  1  0.239460  0.341160  0.807220  1.0
  C  C150  1  0.341160  0.612160  0.807220  1.0
  C  C151  1  0.841160  0.739460  0.307220  1.0
  C  C152  1  0.112160  0.841160  0.307220  1.0
  C  C153  1  0.739460  0.112160  0.307220  1.0
  C  C154  1  0.387840  0.760540  0.192780  1.0
  C  C155  1  0.760540  0.658840  0.192780  1.0
  C  C156  1  0.658840  0.387840  0.192780  1.0
  C  C157  1  0.143910  0.109410  0.808370  1.0
  C  C158  1  0.938310  0.143910  0.808370  1.0
  C  C159  1  0.109410  0.938310  0.808370  1.0
  C  C160  1  0.561690  0.390590  0.691630  1.0
  C  C161  1  0.390590  0.356090  0.691630  1.0
  C  C162  1  0.356090  0.561690  0.691630  1.0
  C  C163  1  0.856090  0.890590  0.191630  1.0
  C  C164  1  0.061690  0.856090  0.191630  1.0
  C  C165  1  0.890590  0.061690  0.191630  1.0
  C  C166  1  0.438310  0.609410  0.308370  1.0
  C  C167  1  0.609410  0.643910  0.308370  1.0
  C  C168  1  0.643910  0.438310  0.308370  1.0
  C  C169  1  0.189800  0.326600  0.608600  1.0
  C  C170  1  0.875000  0.189800  0.608600  1.0
  C  C171  1  0.326600  0.875000  0.608600  1.0
  C  C172  1  0.625000  0.173400  0.891400  1.0
  C  C173  1  0.173400  0.310200  0.891400  1.0
  C  C174  1  0.310200  0.625000  0.891400  1.0
  C  C175  1  0.810200  0.673400  0.391400  1.0
  C  C176  1  0.125000  0.810200  0.391400  1.0
  C  C177  1  0.673400  0.125000  0.391400  1.0
  C  C178  1  0.375000  0.826600  0.108600  1.0
  C  C179  1  0.826600  0.689800  0.108600  1.0
  C  C180  1  0.689800  0.375000  0.108600  1.0
  C  C181  1  0.222790  0.149690  0.745730  1.0
  C  C182  1  0.881790  0.222790  0.745730  1.0
  C  C183  1  0.149690  0.881790  0.745730  1.0
  C  C184  1  0.618210  0.350310  0.754270  1.0
  C  C185  1  0.350310  0.277210  0.754270  1.0
  C  C186  1  0.277210  0.618210  0.754270  1.0
  C  C187  1  0.777210  0.850310  0.254270  1.0
  C  C188  1  0.118210  0.777210  0.254270  1.0
  C  C189  1  0.850310  0.118210  0.254270  1.0
  C  C190  1  0.381790  0.649690  0.245730  1.0
  C  C191  1  0.649690  0.722790  0.245730  1.0
  C  C192  1  0.722790  0.381790  0.245730  1.0
  C  C193  1  0.155780  0.234580  0.732260  1.0
  C  C194  1  0.877380  0.155780  0.732260  1.0
  C  C195  1  0.234580  0.877380  0.732260  1.0
  C  C196  1  0.622620  0.265420  0.767740  1.0
  C  C197  1  0.265420  0.344220  0.767740  1.0
  C  C198  1  0.344220  0.622620  0.767740  1.0
  C  C199  1  0.844220  0.765420  0.267740  1.0
  C  C200  1  0.122620  0.844220  0.267740  1.0
  C  C201  1  0.765420  0.122620  0.267740  1.0
  C  C202  1  0.377380  0.734580  0.232260  1.0
  C  C203  1  0.734580  0.655780  0.232260  1.0
  C  C204  1  0.655780  0.377380  0.232260  1.0
  C  C205  1  0.290530  0.096430  0.719210  1.0
  C  C206  1  0.893830  0.290530  0.719210  1.0
  C  C207  1  0.096430  0.893830  0.719210  1.0
  C  C208  1  0.606170  0.403570  0.780790  1.0
  C  C209  1  0.403570  0.209470  0.780790  1.0
  C  C210  1  0.209470  0.606170  0.780790  1.0
  C  C211  1  0.709470  0.903570  0.280790  1.0
  C  C212  1  0.106170  0.709470  0.280790  1.0
  C  C213  1  0.903570  0.106170  0.280790  1.0
  C  C214  1  0.393830  0.596430  0.219210  1.0
  C  C215  1  0.596430  0.790530  0.219210  1.0
  C  C216  1  0.790530  0.393830  0.219210  1.0
  C  C217  1  0.368090  0.060790  0.652730  1.0
  C  C218  1  0.918390  0.368090  0.652730  1.0
  C  C219  1  0.060790  0.918390  0.652730  1.0
  C  C220  1  0.581610  0.439210  0.847270  1.0
  C  C221  1  0.439210  0.131910  0.847270  1.0
  C  C222  1  0.131910  0.581610  0.847270  1.0
  C  C223  1  0.631910  0.939210  0.347270  1.0
  C  C224  1  0.081610  0.631910  0.347270  1.0
  C  C225  1  0.939210  0.081610  0.347270  1.0
  C  C226  1  0.418390  0.560790  0.152730  1.0
  C  C227  1  0.560790  0.868090  0.152730  1.0
  C  C228  1  0.868090  0.418390  0.152730  1.0
  C  C229  1  0.041370  0.372170  0.452990  1.0
  C  C230  1  0.133470  0.041370  0.452990  1.0
  C  C231  1  0.372170  0.133470  0.452990  1.0
  C  C232  1  0.366530  0.127830  0.047010  1.0
  C  C233  1  0.127830  0.458630  0.047010  1.0
  C  C234  1  0.458630  0.366530  0.047010  1.0
  C  C235  1  0.958630  0.627830  0.547010  1.0
  C  C236  1  0.866530  0.958630  0.547010  1.0
  C  C237  1  0.627830  0.866530  0.547010  1.0
  C  C238  1  0.633470  0.872170  0.952990  1.0
  C  C239  1  0.872170  0.541370  0.952990  1.0
  C  C240  1  0.541370  0.633470  0.952990  1.0
  C  C241  1  0.162460  0.358660  0.572720  1.0
  C  C242  1  0.906160  0.162460  0.572720  1.0
  C  C243  1  0.358660  0.906160  0.572720  1.0
  C  C244  1  0.593840  0.141340  0.927280  1.0
  C  C245  1  0.141340  0.337540  0.927280  1.0
  C  C246  1  0.337540  0.593840  0.927280  1.0
  C  C247  1  0.837540  0.641340  0.427280  1.0
  C  C248  1  0.093840  0.837540  0.427280  1.0
  C  C249  1  0.641340  0.093840  0.427280  1.0
  C  C250  1  0.406160  0.858660  0.072720  1.0
  C  C251  1  0.858660  0.662460  0.072720  1.0
  C  C252  1  0.662460  0.406160  0.072720  1.0
  C  C253  1  0.299510  0.010710  0.840170  1.0
  C  C254  1  0.849610  0.299510  0.840170  1.0
  C  C255  1  0.010710  0.849610  0.840170  1.0
  C  C256  1  0.650390  0.489290  0.659830  1.0
  C  C257  1  0.489290  0.200490  0.659830  1.0
  C  C258  1  0.200490  0.650390  0.659830  1.0
  C  C259  1  0.700490  0.989290  0.159830  1.0
  C  C260  1  0.150390  0.700490  0.159830  1.0
  C  C261  1  0.989290  0.150390  0.159830  1.0
  C  C262  1  0.349610  0.510710  0.340170  1.0
  C  C263  1  0.510710  0.799510  0.340170  1.0
  C  C264  1  0.799510  0.349610  0.340170  1.0
  C  C265  1  0.102060  0.410960  0.494120  1.0
  C  C266  1  0.992860  0.102060  0.494120  1.0
  C  C267  1  0.410960  0.992860  0.494120  1.0
  C  C268  1  0.507140  0.089040  0.005880  1.0
  C  C269  1  0.089040  0.397940  0.005880  1.0
  C  C270  1  0.397940  0.507140  0.005880  1.0
  C  C271  1  0.897940  0.589040  0.505880  1.0
  C  C272  1  0.007140  0.897940  0.505880  1.0
  C  C273  1  0.589040  0.007140  0.505880  1.0
  C  C274  1  0.492860  0.910960  0.994120  1.0
  C  C275  1  0.910960  0.602060  0.994120  1.0
  C  C276  1  0.602060  0.492860  0.994120  1.0
  C  C277  1  0.282000  0.898500  0.916400  1.0
  C  C278  1  0.903100  0.282000  0.916400  1.0
  C  C279  1  0.898500  0.903100  0.916400  1.0
  C  C280  1  0.596900  0.601500  0.583600  1.0
  C  C281  1  0.601500  0.218000  0.583600  1.0
  C  C282  1  0.218000  0.596900  0.583600  1.0
  C  C283  1  0.718000  0.101500  0.083600  1.0
  C  C284  1  0.096900  0.718000  0.083600  1.0
  C  C285  1  0.101500  0.096900  0.083600  1.0
  C  C286  1  0.403100  0.398500  0.416400  1.0
  C  C287  1  0.398500  0.782000  0.416400  1.0
  C  C288  1  0.782000  0.403100  0.416400  1.0
  C  C289  1  0.081480  0.298180  0.758660  1.0
  C  C290  1  0.861680  0.081480  0.758660  1.0
  C  C291  1  0.298180  0.861680  0.758660  1.0
  C  C292  1  0.638320  0.201820  0.741340  1.0
  C  C293  1  0.201820  0.418520  0.741340  1.0
  C  C294  1  0.418520  0.638320  0.741340  1.0
  C  C295  1  0.918520  0.701820  0.241340  1.0
  C  C296  1  0.138320  0.918520  0.241340  1.0
  C  C297  1  0.701820  0.138320  0.241340  1.0
  C  C298  1  0.361680  0.798180  0.258660  1.0
  C  C299  1  0.798180  0.581480  0.258660  1.0
  C  C300  1  0.581480  0.361680  0.258660  1.0
  C  C301  1  0.300970  0.059670  0.803990  1.0
  C  C302  1  0.835370  0.300970  0.803990  1.0
  C  C303  1  0.059670  0.835370  0.803990  1.0
  C  C304  1  0.664630  0.440330  0.696010  1.0
  C  C305  1  0.440330  0.199030  0.696010  1.0
  C  C306  1  0.199030  0.664630  0.696010  1.0
  C  C307  1  0.699030  0.940330  0.196010  1.0
  C  C308  1  0.164630  0.699030  0.196010  1.0
  C  C309  1  0.940330  0.164630  0.196010  1.0
  C  C310  1  0.335370  0.559670  0.303990  1.0
  C  C311  1  0.559670  0.800970  0.303990  1.0
  C  C312  1  0.800970  0.335370  0.303990  1.0
  C  C313  1  0.064010  0.431910  0.460970  1.0
  C  C314  1  0.043110  0.064010  0.460970  1.0
  C  C315  1  0.431910  0.043110  0.460970  1.0
  C  C316  1  0.456890  0.068090  0.039030  1.0
  C  C317  1  0.068090  0.435990  0.039030  1.0
  C  C318  1  0.435990  0.456890  0.039030  1.0
  C  C319  1  0.935990  0.568090  0.539030  1.0
  C  C320  1  0.956890  0.935990  0.539030  1.0
  C  C321  1  0.568090  0.956890  0.539030  1.0
  C  C322  1  0.543110  0.931910  0.960970  1.0
  C  C323  1  0.931910  0.564010  0.960970  1.0
  C  C324  1  0.564010  0.543110  0.960970  1.0
  C  C325  1  0.188930  0.837130  0.957110  1.0
  C  C326  1  0.016830  0.188930  0.957110  1.0
  C  C327  1  0.837130  0.016830  0.957110  1.0
  C  C328  1  0.483170  0.662870  0.542890  1.0
  C  C329  1  0.662870  0.311070  0.542890  1.0
  C  C330  1  0.311070  0.483170  0.542890  1.0
  C  C331  1  0.811070  0.162870  0.042890  1.0
  C  C332  1  0.983170  0.811070  0.042890  1.0
  C  C333  1  0.162870  0.983170  0.042890  1.0
  C  C334  1  0.516830  0.337130  0.457110  1.0
  C  C335  1  0.337130  0.688930  0.457110  1.0
  C  C336  1  0.688930  0.516830  0.457110  1.0
  C  C337  1  0.268760  0.842160  0.948920  1.0
  C  C338  1  0.940160  0.268760  0.948920  1.0
  C  C339  1  0.842160  0.940160  0.948920  1.0
  C  C340  1  0.559840  0.657840  0.551080  1.0
  C  C341  1  0.657840  0.231240  0.551080  1.0
  C  C342  1  0.231240  0.559840  0.551080  1.0
  C  C343  1  0.731240  0.157840  0.051080  1.0
  C  C344  1  0.059840  0.731240  0.051080  1.0
  C  C345  1  0.157840  0.059840  0.051080  1.0
  C  C346  1  0.440160  0.342160  0.448920  1.0
  C  C347  1  0.342160  0.768760  0.448920  1.0
  C  C348  1  0.768760  0.440160  0.448920  1.0
  C  C349  1  0.122590  0.891990  0.934730  1.0
  C  C350  1  0.050690  0.122590  0.934730  1.0
  C  C351  1  0.891990  0.050690  0.934730  1.0
  C  C352  1  0.449310  0.608010  0.565270  1.0
  C  C353  1  0.608010  0.377410  0.565270  1.0
  C  C354  1  0.377410  0.449310  0.565270  1.0
  C  C355  1  0.877410  0.108010  0.065270  1.0
  C  C356  1  0.949310  0.877410  0.065270  1.0
  C  C357  1  0.108010  0.949310  0.065270  1.0
  C  C358  1  0.550690  0.391990  0.434730  1.0
  C  C359  1  0.391990  0.622590  0.434730  1.0
  C  C360  1  0.622590  0.550690  0.434730  1.0
  Co  Co361  1  0.153627  0.153627  0.539120  1
  Co  Co362  1  0.346373  0.346373  0.960880  1
  Co  Co363  1  0.846373  0.846373  0.460880  1
  Co  Co364  1  0.653627  0.653627  0.039120  1
  Co  Co365  1  0.042297  0.042297  0.873110  1
  Co  Co366  1  0.457703  0.457703  0.626890  1
  Co  Co367  1  0.957703  0.957703  0.126890  1
  Co  Co368  1  0.542297  0.542297  0.373110  1
  F  F369  1  0.165730  0.479730  0.654110  1
  F  F370  1  0.700430  0.165730  0.654110  1
  F  F371  1  0.479730  0.700430  0.654110  1
  F  F372  1  0.799570  0.020270  0.845890  1
  F  F373  1  0.020270  0.334270  0.845890  1
  F  F374  1  0.334270  0.799570  0.845890  1
  F  F375  1  0.834270  0.520270  0.345890  1
  F  F376  1  0.299570  0.834270  0.345890  1
  F  F377  1  0.520270  0.299570  0.345890  1
  F  F378  1  0.200430  0.979730  0.154110  1
  F  F379  1  0.979730  0.665730  0.154110  1
  F  F380  1  0.665730  0.200430  0.154110  1
  F  F381  1  0.032450  0.478350  0.677150  1
  F  F382  1  0.812050  0.032450  0.677150  1
  F  F383  1  0.478350  0.812050  0.677150  1
  F  F384  1  0.687950  0.021650  0.822850  1
  F  F385  1  0.021650  0.467550  0.822850  1
  F  F386  1  0.467550  0.687950  0.822850  1
  F  F387  1  0.967550  0.521650  0.322850  1
  F  F388  1  0.187950  0.967550  0.322850  1
  F  F389  1  0.521650  0.187950  0.322850  1
  F  F390  1  0.312050  0.978350  0.177150  1
  F  F391  1  0.978350  0.532450  0.177150  1
  F  F392  1  0.532450  0.312050  0.177150  1
  F  F393  1  0.061400  0.534200  0.616100  1
  F  F394  1  0.788300  0.061400  0.616100  1
  F  F395  1  0.534200  0.788300  0.616100  1
  F  F396  1  0.711700  0.965800  0.883900  1
  F  F397  1  0.965800  0.438600  0.883900  1
  F  F398  1  0.438600  0.711700  0.883900  1
  F  F399  1  0.938600  0.465800  0.383900  1
  F  F400  1  0.211700  0.938600  0.383900  1
  F  F401  1  0.465800  0.211700  0.383900  1
  F  F402  1  0.288300  0.034200  0.116100  1
  F  F403  1  0.034200  0.561400  0.116100  1
  F  F404  1  0.561400  0.288300  0.116100  1
  F  F405  1  0.039930  0.607630  0.664910  1
  F  F406  1  0.687530  0.039930  0.664910  1
  F  F407  1  0.607630  0.687530  0.664910  1
  F  F408  1  0.812470  0.892370  0.835090  1
  F  F409  1  0.892370  0.460070  0.835090  1
  F  F410  1  0.460070  0.812470  0.835090  1
  F  F411  1  0.960070  0.392370  0.335090  1
  F  F412  1  0.312470  0.960070  0.335090  1
  F  F413  1  0.392370  0.312470  0.335090  1
  F  F414  1  0.187530  0.107630  0.164910  1
  F  F415  1  0.107630  0.539930  0.164910  1
  F  F416  1  0.539930  0.187530  0.164910  1
  F  F417  1  0.490550  0.202450  0.525650  1
  F  F418  1  0.781350  0.490550  0.525650  1
  F  F419  1  0.202450  0.781350  0.525650  1
  F  F420  1  0.718650  0.297550  0.974350  1
  F  F421  1  0.297550  0.009450  0.974350  1
  F  F422  1  0.009450  0.718650  0.974350  1
  F  F423  1  0.509450  0.797550  0.474350  1
  F  F424  1  0.218650  0.509450  0.474350  1
  F  F425  1  0.797550  0.218650  0.474350  1
  F  F426  1  0.281350  0.702450  0.025650  1
  F  F427  1  0.702450  0.990550  0.025650  1
  F  F428  1  0.990550  0.281350  0.025650  1
  F  F429  1  0.393970  0.144970  0.553190  1
  F  F430  1  0.907870  0.393970  0.553190  1
  F  F431  1  0.144970  0.907870  0.553190  1
  F  F432  1  0.592130  0.355030  0.946810  1
  F  F433  1  0.355030  0.106030  0.946810  1
  F  F434  1  0.106030  0.592130  0.946810  1
  F  F435  1  0.606030  0.855030  0.446810  1
  F  F436  1  0.092130  0.606030  0.446810  1
  F  F437  1  0.855030  0.092130  0.446810  1
  F  F438  1  0.407870  0.644970  0.053190  1
  F  F439  1  0.644970  0.893970  0.053190  1
  F  F440  1  0.893970  0.407870  0.053190  1
  F  F441  1  0.398890  0.244790  0.581930  1
  F  F442  1  0.774390  0.398890  0.581930  1
  F  F443  1  0.244790  0.774390  0.581930  1
  F  F444  1  0.725610  0.255210  0.918070  1
  F  F445  1  0.255210  0.101110  0.918070  1
  F  F446  1  0.101110  0.725610  0.918070  1
  F  F447  1  0.601110  0.755210  0.418070  1
  F  F448  1  0.225610  0.601110  0.418070  1
  F  F449  1  0.755210  0.225610  0.418070  1
  F  F450  1  0.274390  0.744790  0.081930  1
  F  F451  1  0.744790  0.898890  0.081930  1
  F  F452  1  0.898890  0.274390  0.081930  1
  F  F453  1  0.338800  0.284100  0.527300  1
  F  F454  1  0.849800  0.338800  0.527300  1
  F  F455  1  0.284100  0.849800  0.527300  1
  F  F456  1  0.650200  0.215900  0.972700  1
  F  F457  1  0.215900  0.161200  0.972700  1
  F  F458  1  0.161200  0.650200  0.972700  1
  F  F459  1  0.661200  0.715900  0.472700  1
  F  F460  1  0.150200  0.661200  0.472700  1
  F  F461  1  0.715900  0.150200  0.472700  1
  F  F462  1  0.349800  0.784100  0.027300  1
  F  F463  1  0.784100  0.838800  0.027300  1
  F  F464  1  0.838800  0.349800  0.027300  1
  H  H465  1  0.224700  0.123000  0.613400  1.0
  H  H466  1  0.038900  0.224700  0.613400  1.0
  H  H467  1  0.123000  0.038900  0.613400  1.0
  H  H468  1  0.461100  0.377000  0.886600  1.0
  H  H469  1  0.377000  0.275300  0.886600  1.0
  H  H470  1  0.275300  0.461100  0.886600  1.0
  H  H471  1  0.775300  0.877000  0.386600  1.0
  H  H472  1  0.961100  0.775300  0.386600  1.0
  H  H473  1  0.877000  0.961100  0.386600  1.0
  H  H474  1  0.538900  0.623000  0.113400  1.0
  H  H475  1  0.623000  0.724700  0.113400  1.0
  H  H476  1  0.724700  0.538900  0.113400  1.0
  H  H477  1  0.048600  0.249700  0.470900  1.0
  H  H478  1  0.230800  0.048600  0.470900  1.0
  H  H479  1  0.249700  0.230800  0.470900  1.0
  H  H480  1  0.269200  0.250300  0.029100  1.0
  H  H481  1  0.250300  0.451400  0.029100  1.0
  H  H482  1  0.451400  0.269200  0.029100  1.0
  H  H483  1  0.951400  0.750300  0.529100  1.0
  H  H484  1  0.769200  0.951400  0.529100  1.0
  H  H485  1  0.750300  0.769200  0.529100  1.0
  H  H486  1  0.730800  0.749700  0.970900  1.0
  H  H487  1  0.749700  0.548600  0.970900  1.0
  H  H488  1  0.548600  0.730800  0.970900  1.0
  H  H489  1  0.114800  0.318400  0.683300  1.0
  H  H490  1  0.883500  0.114800  0.683300  1.0
  H  H491  1  0.318400  0.883500  0.683300  1.0
  H  H492  1  0.616500  0.181600  0.816700  1.0
  H  H493  1  0.181600  0.385200  0.816700  1.0
  H  H494  1  0.385200  0.616500  0.816700  1.0
  H  H495  1  0.885200  0.681600  0.316700  1.0
  H  H496  1  0.116500  0.885200  0.316700  1.0
  H  H497  1  0.681600  0.116500  0.316700  1.0
  H  H498  1  0.383500  0.818400  0.183300  1.0
  H  H499  1  0.818400  0.614800  0.183300  1.0
  H  H500  1  0.614800  0.383500  0.183300  1.0
  H  H501  1  0.089200  0.146500  0.797900  1.0
  H  H502  1  0.966400  0.089200  0.797900  1.0
  H  H503  1  0.146500  0.966400  0.797900  1.0
  H  H504  1  0.533600  0.353500  0.702100  1.0
  H  H505  1  0.353500  0.410800  0.702100  1.0
  H  H506  1  0.410800  0.533600  0.702100  1.0
  H  H507  1  0.910800  0.853500  0.202100  1.0
  H  H508  1  0.033600  0.910800  0.202100  1.0
  H  H509  1  0.853500  0.033600  0.202100  1.0
  H  H510  1  0.466400  0.646500  0.297900  1.0
  H  H511  1  0.646500  0.589200  0.297900  1.0
  H  H512  1  0.589200  0.466400  0.297900  1.0
  H  H513  1  0.194700  0.364400  0.622100  1.0
  H  H514  1  0.818800  0.194700  0.622100  1.0
  H  H515  1  0.364400  0.818800  0.622100  1.0
  H  H516  1  0.681200  0.135600  0.877900  1.0
  H  H517  1  0.135600  0.305300  0.877900  1.0
  H  H518  1  0.305300  0.681200  0.877900  1.0
  H  H519  1  0.805300  0.635600  0.377900  1.0
  H  H520  1  0.181200  0.805300  0.377900  1.0
  H  H521  1  0.635600  0.181200  0.377900  1.0
  H  H522  1  0.318800  0.864400  0.122100  1.0
  H  H523  1  0.864400  0.694700  0.122100  1.0
  H  H524  1  0.694700  0.318800  0.122100  1.0
  H  H525  1  0.337300  0.040500  0.728600  1.0
  H  H526  1  0.893600  0.337300  0.728600  1.0
  H  H527  1  0.040500  0.893600  0.728600  1.0
  H  H528  1  0.606400  0.459500  0.771400  1.0
  H  H529  1  0.459500  0.162700  0.771400  1.0
  H  H530  1  0.162700  0.606400  0.771400  1.0
  H  H531  1  0.662700  0.959500  0.271400  1.0
  H  H532  1  0.106400  0.662700  0.271400  1.0
  H  H533  1  0.959500  0.106400  0.271400  1.0
  H  H534  1  0.393600  0.540500  0.228600  1.0
  H  H535  1  0.540500  0.837300  0.228600  1.0
  H  H536  1  0.837300  0.393600  0.228600  1.0
  H  H537  1  0.348900  0.023800  0.644600  1.0
  H  H538  1  0.982700  0.348900  0.644600  1.0
  H  H539  1  0.023800  0.982700  0.644600  1.0
  H  H540  1  0.517300  0.476200  0.855400  1.0
  H  H541  1  0.476200  0.151100  0.855400  1.0
  H  H542  1  0.151100  0.517300  0.855400  1.0
  H  H543  1  0.651100  0.976200  0.355400  1.0
  H  H544  1  0.017300  0.651100  0.355400  1.0
  H  H545  1  0.976200  0.017300  0.355400  1.0
  H  H546  1  0.482700  0.523800  0.144600  1.0
  H  H547  1  0.523800  0.848900  0.144600  1.0
  H  H548  1  0.848900  0.482700  0.144600  1.0
  H  H549  1  0.420400  0.021600  0.666200  1.0
  H  H550  1  0.891800  0.420400  0.666200  1.0
  H  H551  1  0.021600  0.891800  0.666200  1.0
  H  H552  1  0.608200  0.478400  0.833800  1.0
  H  H553  1  0.478400  0.079600  0.833800  1.0
  H  H554  1  0.079600  0.608200  0.833800  1.0
  H  H555  1  0.579600  0.978400  0.333800  1.0
  H  H556  1  0.108200  0.579600  0.333800  1.0
  H  H557  1  0.978400  0.108200  0.333800  1.0
  H  H558  1  0.391800  0.521600  0.166200  1.0
  H  H559  1  0.521600  0.920400  0.166200  1.0
  H  H560  1  0.920400  0.391800  0.166200  1.0
  H  H561  1  0.384300  0.096800  0.630200  1.0
  H  H562  1  0.888700  0.384300  0.630200  1.0
  H  H563  1  0.096800  0.888700  0.630200  1.0
  H  H564  1  0.611300  0.403200  0.869800  1.0
  H  H565  1  0.403200  0.115700  0.869800  1.0
  H  H566  1  0.115700  0.611300  0.869800  1.0
  H  H567  1  0.615700  0.903200  0.369800  1.0
  H  H568  1  0.111300  0.615700  0.369800  1.0
  H  H569  1  0.903200  0.111300  0.369800  1.0
  H  H570  1  0.388700  0.596800  0.130200  1.0
  H  H571  1  0.596800  0.884300  0.130200  1.0
  H  H572  1  0.884300  0.388700  0.130200  1.0
  H  H573  1  0.011900  0.386700  0.431300  1.0
  H  H574  1  0.170100  0.011900  0.431300  1.0
  H  H575  1  0.386700  0.170100  0.431300  1.0
  H  H576  1  0.329900  0.113300  0.068700  1.0
  H  H577  1  0.113300  0.488100  0.068700  1.0
  H  H578  1  0.488100  0.329900  0.068700  1.0
  H  H579  1  0.988100  0.613300  0.568700  1.0
  H  H580  1  0.829900  0.988100  0.568700  1.0
  H  H581  1  0.613300  0.829900  0.568700  1.0
  H  H582  1  0.670100  0.886700  0.931300  1.0
  H  H583  1  0.886700  0.511900  0.931300  1.0
  H  H584  1  0.511900  0.670100  0.931300  1.0
  H  H585  1  0.148900  0.418400  0.561200  1.0
  H  H586  1  0.871500  0.148900  0.561200  1.0
  H  H587  1  0.418400  0.871500  0.561200  1.0
  H  H588  1  0.628500  0.081600  0.938800  1.0
  H  H589  1  0.081600  0.351100  0.938800  1.0
  H  H590  1  0.351100  0.628500  0.938800  1.0
  H  H591  1  0.851100  0.581600  0.438800  1.0
  H  H592  1  0.128500  0.851100  0.438800  1.0
  H  H593  1  0.581600  0.128500  0.438800  1.0
  H  H594  1  0.371500  0.918400  0.061200  1.0
  H  H595  1  0.918400  0.648900  0.061200  1.0
  H  H596  1  0.648900  0.371500  0.061200  1.0
  H  H597  1  0.352300  0.977700  0.852200  1.0
  H  H598  1  0.817800  0.352300  0.852200  1.0
  H  H599  1  0.977700  0.817800  0.852200  1.0
  H  H600  1  0.682200  0.522300  0.647800  1.0
  H  H601  1  0.522300  0.147700  0.647800  1.0
  H  H602  1  0.147700  0.682200  0.647800  1.0
  H  H603  1  0.647700  0.022300  0.147800  1.0
  H  H604  1  0.182200  0.647700  0.147800  1.0
  H  H605  1  0.022300  0.182200  0.147800  1.0
  H  H606  1  0.317800  0.477700  0.352200  1.0
  H  H607  1  0.477700  0.852300  0.352200  1.0
  H  H608  1  0.852300  0.317800  0.352200  1.0
  H  H609  1  0.116800  0.451500  0.500600  1.0
  H  H610  1  0.931100  0.116800  0.500600  1.0
  H  H611  1  0.451500  0.931100  0.500600  1.0
  H  H612  1  0.568900  0.048500  0.999400  1.0
  H  H613  1  0.048500  0.383200  0.999400  1.0
  H  H614  1  0.383200  0.568900  0.999400  1.0
  H  H615  1  0.883200  0.548500  0.499400  1.0
  H  H616  1  0.068900  0.883200  0.499400  1.0
  H  H617  1  0.548500  0.068900  0.499400  1.0
  H  H618  1  0.431100  0.951500  0.000600  1.0
  H  H619  1  0.951500  0.616800  0.000600  1.0
  H  H620  1  0.616800  0.431100  0.000600  1.0
  H  H621  1  0.337100  0.901000  0.909500  1.0
  H  H622  1  0.852400  0.337100  0.909500  1.0
  H  H623  1  0.901000  0.852400  0.909500  1.0
  H  H624  1  0.647600  0.599000  0.590500  1.0
  H  H625  1  0.599000  0.162900  0.590500  1.0
  H  H626  1  0.162900  0.647600  0.590500  1.0
  H  H627  1  0.662900  0.099000  0.090500  1.0
  H  H628  1  0.147600  0.662900  0.090500  1.0
  H  H629  1  0.099000  0.147600  0.090500  1.0
  H  H630  1  0.352400  0.401000  0.409500  1.0
  H  H631  1  0.401000  0.837100  0.409500  1.0
  H  H632  1  0.837100  0.352400  0.409500  1.0
  H  H633  1  0.060600  0.360200  0.745400  1.0
  H  H634  1  0.833800  0.060600  0.745400  1.0
  H  H635  1  0.360200  0.833800  0.745400  1.0
  H  H636  1  0.666200  0.139800  0.754600  1.0
  H  H637  1  0.139800  0.439400  0.754600  1.0
  H  H638  1  0.439400  0.666200  0.754600  1.0
  H  H639  1  0.939400  0.639800  0.254600  1.0
  H  H640  1  0.166200  0.939400  0.254600  1.0
  H  H641  1  0.639800  0.166200  0.254600  1.0
  H  H642  1  0.333800  0.860200  0.245400  1.0
  H  H643  1  0.860200  0.560600  0.245400  1.0
  H  H644  1  0.560600  0.333800  0.245400  1.0
  H  H645  1  0.104400  0.291800  0.782000  1.0
  H  H646  1  0.821800  0.104400  0.782000  1.0
  H  H647  1  0.291800  0.821800  0.782000  1.0
  H  H648  1  0.678200  0.208200  0.718000  1.0
  H  H649  1  0.208200  0.395600  0.718000  1.0
  H  H650  1  0.395600  0.678200  0.718000  1.0
  H  H651  1  0.895600  0.708200  0.218000  1.0
  H  H652  1  0.178200  0.895600  0.218000  1.0
  H  H653  1  0.708200  0.178200  0.218000  1.0
  H  H654  1  0.321800  0.791800  0.282000  1.0
  H  H655  1  0.791800  0.604400  0.282000  1.0
  H  H656  1  0.604400  0.321800  0.282000  1.0
  H  H657  1  0.031500  0.283800  0.765500  1.0
  H  H658  1  0.919200  0.031500  0.765500  1.0
  H  H659  1  0.283800  0.919200  0.765500  1.0
  H  H660  1  0.580800  0.216200  0.734500  1.0
  H  H661  1  0.216200  0.468500  0.734500  1.0
  H  H662  1  0.468500  0.580800  0.734500  1.0
  H  H663  1  0.968500  0.716200  0.234500  1.0
  H  H664  1  0.080800  0.968500  0.234500  1.0
  H  H665  1  0.716200  0.080800  0.234500  1.0
  H  H666  1  0.419200  0.783800  0.265500  1.0
  H  H667  1  0.783800  0.531500  0.265500  1.0
  H  H668  1  0.531500  0.419200  0.265500  1.0
  H  H669  1  0.355200  0.060100  0.790700  1.0
  H  H670  1  0.794000  0.355200  0.790700  1.0
  H  H671  1  0.060100  0.794000  0.790700  1.0
  H  H672  1  0.706000  0.439900  0.709300  1.0
  H  H673  1  0.439900  0.144800  0.709300  1.0
  H  H674  1  0.144800  0.706000  0.709300  1.0
  H  H675  1  0.644800  0.939900  0.209300  1.0
  H  H676  1  0.206000  0.644800  0.209300  1.0
  H  H677  1  0.939900  0.206000  0.209300  1.0
  H  H678  1  0.294000  0.560100  0.290700  1.0
  H  H679  1  0.560100  0.855200  0.290700  1.0
  H  H680  1  0.855200  0.294000  0.290700  1.0
  H  H681  1  0.053800  0.486100  0.444200  1.0
  H  H682  1  0.015900  0.053800  0.444200  1.0
  H  H683  1  0.486100  0.015900  0.444200  1.0
  H  H684  1  0.484100  0.013900  0.055800  1.0
  H  H685  1  0.013900  0.446200  0.055800  1.0
  H  H686  1  0.446200  0.484100  0.055800  1.0
  H  H687  1  0.946200  0.513900  0.555800  1.0
  H  H688  1  0.984100  0.946200  0.555800  1.0
  H  H689  1  0.513900  0.984100  0.555800  1.0
  H  H690  1  0.515900  0.986100  0.944200  1.0
  H  H691  1  0.986100  0.553800  0.944200  1.0
  H  H692  1  0.553800  0.515900  0.944200  1.0
  H  H693  1  0.180500  0.795800  0.978200  1.0
  H  H694  1  0.045500  0.180500  0.978200  1.0
  H  H695  1  0.795800  0.045500  0.978200  1.0
  H  H696  1  0.454500  0.704200  0.521800  1.0
  H  H697  1  0.704200  0.319500  0.521800  1.0
  H  H698  1  0.319500  0.454500  0.521800  1.0
  H  H699  1  0.819500  0.204200  0.021800  1.0
  H  H700  1  0.954500  0.819500  0.021800  1.0
  H  H701  1  0.204200  0.954500  0.021800  1.0
  H  H702  1  0.545500  0.295800  0.478200  1.0
  H  H703  1  0.295800  0.680500  0.478200  1.0
  H  H704  1  0.680500  0.545500  0.478200  1.0
  H  H705  1  0.313800  0.807500  0.965300  1.0
  H  H706  1  0.913400  0.313800  0.965300  1.0
  H  H707  1  0.807500  0.913400  0.965300  1.0
  H  H708  1  0.586600  0.692500  0.534700  1.0
  H  H709  1  0.692500  0.186200  0.534700  1.0
  H  H710  1  0.186200  0.586600  0.534700  1.0
  H  H711  1  0.686200  0.192500  0.034700  1.0
  H  H712  1  0.086600  0.686200  0.034700  1.0
  H  H713  1  0.192500  0.086600  0.034700  1.0
  H  H714  1  0.413400  0.307500  0.465300  1.0
  H  H715  1  0.307500  0.813800  0.465300  1.0
  H  H716  1  0.813800  0.413400  0.465300  1.0
  H  H717  1  0.067400  0.889400  0.941000  1.0
  H  H718  1  0.102200  0.067400  0.941000  1.0
  H  H719  1  0.889400  0.102200  0.941000  1.0
  H  H720  1  0.397800  0.610600  0.559000  1.0
  H  H721  1  0.610600  0.432600  0.559000  1.0
  H  H722  1  0.432600  0.397800  0.559000  1.0
  H  H723  1  0.932600  0.110600  0.059000  1.0
  H  H724  1  0.897800  0.932600  0.059000  1.0
  H  H725  1  0.110600  0.897800  0.059000  1.0
  H  H726  1  0.602200  0.389400  0.441000  1.0
  H  H727  1  0.389400  0.567400  0.441000  1.0
  H  H728  1  0.567400  0.602200  0.441000  1.0
  N  N729  1  0.176920  0.215920  0.569240  1.0
  N  N730  1  0.037920  0.176920  0.569240  1.0
  N  N731  1  0.215920  0.037920  0.569240  1.0
  N  N732  1  0.462080  0.284080  0.930760  1.0
  N  N733  1  0.284080  0.323080  0.930760  1.0
  N  N734  1  0.323080  0.462080  0.930760  1.0
  N  N735  1  0.823080  0.784080  0.430760  1.0
  N  N736  1  0.962080  0.823080  0.430760  1.0
  N  N737  1  0.784080  0.962080  0.430760  1.0
  N  N738  1  0.537920  0.715920  0.069240  1.0
  N  N739  1  0.715920  0.676920  0.069240  1.0
  N  N740  1  0.676920  0.537920  0.069240  1.0
  N  N741  1  0.101380  0.270280  0.508160  1.0
  N  N742  1  0.120180  0.101380  0.508160  1.0
  N  N743  1  0.270280  0.120180  0.508160  1.0
  N  N744  1  0.379820  0.229720  0.991840  1.0
  N  N745  1  0.229720  0.398620  0.991840  1.0
  N  N746  1  0.398620  0.379820  0.991840  1.0
  N  N747  1  0.898620  0.729720  0.491840  1.0
  N  N748  1  0.879820  0.898620  0.491840  1.0
  N  N749  1  0.729720  0.879820  0.491840  1.0
  N  N750  1  0.620180  0.770280  0.008160  1.0
  N  N751  1  0.770280  0.601380  0.008160  1.0
  N  N752  1  0.601380  0.620180  0.008160  1.0
  N  N753  1  0.133120  0.949920  0.904040  1.0
  N  N754  1  0.012920  0.133120  0.904040  1.0
  N  N755  1  0.949920  0.012920  0.904040  1.0
  N  N756  1  0.487080  0.550080  0.595960  1.0
  N  N757  1  0.550080  0.366880  0.595960  1.0
  N  N758  1  0.366880  0.487080  0.595960  1.0
  N  N759  1  0.866880  0.050080  0.095960  1.0
  N  N760  1  0.987080  0.866880  0.095960  1.0
  N  N761  1  0.050080  0.987080  0.095960  1.0
  N  N762  1  0.512920  0.449920  0.404040  1.0
  N  N763  1  0.449920  0.633120  0.404040  1.0
  N  N764  1  0.633120  0.512920  0.404040  1.0
  N  N765  1  0.142880  0.059480  0.843260  1.0
  N  N766  1  0.954380  0.142880  0.843260  1.0
  N  N767  1  0.059480  0.954380  0.843260  1.0
  N  N768  1  0.545620  0.440520  0.656740  1.0
  N  N769  1  0.440520  0.357120  0.656740  1.0
  N  N770  1  0.357120  0.545620  0.656740  1.0
  N  N771  1  0.857120  0.940520  0.156740  1.0
  N  N772  1  0.045620  0.857120  0.156740  1.0
  N  N773  1  0.940520  0.045620  0.156740  1.0
  N  N774  1  0.454380  0.559480  0.343260  1.0
  N  N775  1  0.559480  0.642880  0.343260  1.0
  N  N776  1  0.642880  0.454380  0.343260  1.0
