# generated using pymatgen
data_H71PdC102S3N15(O3F2)6
_symmetry_space_group_name_H-M   'P 1'
_cell_length_a   17.15800000
_cell_length_b   18.80620000
_cell_length_c   20.03260000
_cell_angle_alpha   74.07500000
_cell_angle_beta   89.79000000
_cell_angle_gamma   71.85600000
_symmetry_Int_Tables_number   1
_chemical_formula_structural   H71PdC102S3N15(O3F2)6
_chemical_formula_sum   'H142 Pd2 C204 S6 N30 O36 F24'
_cell_volume   5883.19652674
_cell_formula_units_Z   2
loop_
 _symmetry_equiv_pos_site_id
 _symmetry_equiv_pos_as_xyz
  1  'x, y, z'
loop_
 _atom_site_type_symbol
 _atom_site_label
 _atom_site_symmetry_multiplicity
 _atom_site_fract_x
 _atom_site_fract_y
 _atom_site_fract_z
 _atom_site_occupancy
  H  H1  1  0.728200  0.512800  0.570600  1
  H  H2  1  0.271800  0.487200  0.429400  1
  H  H3  1  0.706000  0.500200  0.649800  1
  H  H4  1  0.294000  0.499800  0.350200  1
  H  H5  1  0.782300  0.437100  0.630100  1
  H  H6  1  0.217700  0.562900  0.369900  1
  H  H7  1  0.232500  0.298100  0.443200  1
  H  H8  1  0.767500  0.701900  0.556800  1
  H  H9  1  0.313200  0.280100  0.493100  1
  H  H10  1  0.686800  0.719900  0.506900  1
  H  H11  1  0.228300  0.278900  0.525800  1
  H  H12  1  0.771700  0.721100  0.474200  1
  H  H13  1  0.348400  0.734100  0.889800  1
  H  H14  1  0.651600  0.265900  0.110200  1
  H  H15  1  0.279500  0.744100  0.831200  1
  H  H16  1  0.720500  0.255900  0.168800  1
  H  H17  1  0.253300  0.758800  0.904300  1
  H  H18  1  0.746700  0.241200  0.095700  1
  H  H19  1  0.258000  0.681600  0.448800  1
  H  H20  1  0.742000  0.318400  0.551200  1
  H  H21  1  0.354100  0.667400  0.463100  1
  H  H22  1  0.645900  0.332600  0.536900  1
  H  H23  1  0.322600  0.640500  0.402000  1
  H  H24  1  0.677400  0.359500  0.598000  1
  H  H25  1  0.034300  0.688400  0.272300  1
  H  H26  1  0.965700  0.311600  0.727700  1
  H  H27  1  0.974100  0.693700  0.333333  1
  H  H28  1  0.025900  0.306300  0.666667  1
  H  H29  1  0.044000  0.612900  0.336800  1
  H  H30  1  0.956000  0.387100  0.663200  1
  H  H31  1  0.679500  0.102200  0.780000  1.0
  H  H32  1  0.320500  0.897800  0.220000  1.0
  H  H33  1  0.812100  0.878100  0.851000  1.0
  H  H34  1  0.187900  0.121900  0.149000  1.0
  H  H35  1  0.700500  0.847100  0.907700  1.0
  H  H36  1  0.299500  0.152900  0.092300  1.0
  H  H37  1  0.580000  0.948200  0.908100  1.0
  H  H38  1  0.420000  0.051800  0.091900  1.0
  H  H39  1  0.474600  0.307000  0.889600  1.0
  H  H40  1  0.525400  0.693000  0.110400  1.0
  H  H41  1  0.288000  0.184300  0.827500  1.0
  H  H42  1  0.712000  0.815700  0.172500  1.0
  H  H43  1  0.332600  0.401300  0.927300  1.0
  H  H44  1  0.667400  0.598700  0.072700  1.0
  H  H45  1  0.173400  0.297600  0.875600  1.0
  H  H46  1  0.826600  0.702400  0.124400  1.0
  H  H47  1  0.255200  0.303300  0.974300  1.0
  H  H48  1  0.744800  0.696700  0.025700  1.0
  H  H49  1  0.186400  0.388600  0.941900  1.0
  H  H50  1  0.813600  0.611400  0.058100  1.0
  H  H51  1  0.297900  0.445400  0.792200  1.0
  H  H52  1  0.702100  0.554600  0.207800  1.0
  H  H53  1  0.202300  0.392600  0.762500  1.0
  H  H54  1  0.797700  0.607400  0.237500  1.0
  H  H55  1  0.216100  0.560600  0.721100  1.0
  H  H56  1  0.783900  0.439400  0.278900  1.0
  H  H57  1  0.117800  0.509000  0.698400  1.0
  H  H58  1  0.882200  0.491000  0.301600  1.0
  H  H59  1  0.994200  0.707000  0.753000  1.0
  H  H60  1  0.005800  0.293000  0.247000  1.0
  H  H61  1  0.043700  0.628400  0.814000  1.0
  H  H62  1  0.956300  0.371600  0.186000  1.0
  H  H63  1  0.143700  0.690400  0.754800  1.0
  H  H64  1  0.856300  0.309600  0.245200  1.0
  H  H65  1  0.969100  0.591600  0.721300  1.0
  H  H66  1  0.030900  0.408400  0.278700  1.0
  H  H67  1  0.160700  0.761300  0.612000  1.0
  H  H68  1  0.839300  0.238700  0.388000  1.0
  H  H69  1  0.943900  0.661000  0.574500  1.0
  H  H70  1  0.056100  0.339000  0.425500  1.0
  H  H71  1  0.873400  0.135400  0.658200  1.0
  H  H72  1  0.126600  0.864600  0.341800  1.0
  H  H73  1  0.870700  0.910800  0.357600  1.0
  H  H74  1  0.129300  0.089200  0.642400  1.0
  H  H75  1  0.851000  0.987800  0.238900  1.0
  H  H76  1  0.149000  0.012200  0.761100  1.0
  H  H77  1  0.030900  0.987900  0.813700  1.0
  H  H78  1  0.969100  0.012100  0.186300  1.0
  H  H79  1  0.799500  0.187800  0.794000  1.0
  H  H80  1  0.200500  0.812200  0.206000  1.0
  H  H81  1  0.881400  0.974700  0.926800  1.0
  H  H82  1  0.118600  0.025300  0.073200  1.0
  H  H83  1  0.869800  0.025500  0.021400  1.0
  H  H84  1  0.130200  0.974500  0.978600  1.0
  H  H85  1  0.807900  0.168400  0.995900  1.0
  H  H86  1  0.192100  0.831600  0.004100  1.0
  H  H87  1  0.846800  0.461700  0.783800  1.0
  H  H88  1  0.153200  0.538300  0.216200  1.0
  H  H89  1  0.638600  0.458700  0.943500  1.0
  H  H90  1  0.361400  0.541300  0.056500  1.0
  H  H91  1  0.822000  0.615300  0.802700  1.0
  H  H92  1  0.178000  0.384700  0.197300  1.0
  H  H93  1  0.651300  0.602500  0.943000  1.0
  H  H94  1  0.348700  0.397500  0.057000  1.0
  H  H95  1  0.798600  0.577800  0.934600  1.0
  H  H96  1  0.201400  0.422200  0.065400  1.0
  H  H97  1  0.752100  0.671000  0.900500  1.0
  H  H98  1  0.247900  0.329000  0.099500  1.0
  H  H99  1  0.679200  0.645600  0.737200  1.0
  H  H100  1  0.320800  0.354400  0.262800  1.0
  H  H101  1  0.580000  0.644400  0.817000  1.0
  H  H102  1  0.420000  0.355600  0.183000  1.0
  H  H103  1  0.602500  0.758600  0.672600  1.0
  H  H104  1  0.397500  0.241400  0.327400  1.0
  H  H105  1  0.499000  0.762200  0.748700  1.0
  H  H106  1  0.501000  0.237800  0.251300  1.0
  H  H107  1  0.592000  0.906800  0.757300  1.0
  H  H108  1  0.408000  0.093200  0.242700  1.0
  H  H109  1  0.525100  0.977600  0.699700  1.0
  H  H110  1  0.474900  0.022400  0.300300  1.0
  H  H111  1  0.622600  0.896200  0.631600  1.0
  H  H112  1  0.377400  0.103800  0.368400  1.0
  H  H113  1  0.451900  0.895000  0.778100  1.0
  H  H114  1  0.548100  0.105000  0.221900  1.0
  H  H115  1  0.519500  0.909700  0.515700  1.0
  H  H116  1  0.480500  0.090300  0.484300  1.0
  H  H117  1  0.315400  0.913100  0.680200  1.0
  H  H118  1  0.684600  0.086900  0.319800  1.0
  H  H119  1  0.756700  0.061400  0.640100  1.0
  H  H120  1  0.243300  0.938600  0.359900  1.0
  H  H121  1  0.143600  0.106700  0.451700  1.0
  H  H122  1  0.856400  0.893300  0.548300  1.0
  H  H123  1  0.043700  0.171900  0.351800  1.0
  H  H124  1  0.956300  0.828100  0.648200  1.0
  H  H125  1  0.946000  0.886400  0.737500  1.0
  H  H126  1  0.054000  0.113600  0.262500  1.0
  H  H127  1  0.200800  0.597200  0.533700  1.0
  H  H128  1  0.799200  0.402800  0.466300  1.0
  H  H129  1  0.074000  0.592700  0.496400  1.0
  H  H130  1  0.926000  0.407300  0.503600  1.0
  H  H131  1  0.136800  0.359100  0.594900  1.0
  H  H132  1  0.863200  0.640900  0.405100  1.0
  H  H133  1  0.259100  0.364700  0.645200  1.0
  H  H134  1  0.740900  0.635300  0.354800  1.0
  H  H135  1  0.915200  0.755700  0.879200  1.0
  H  H136  1  0.084800  0.244300  0.120800  1.0
  H  H137  1  0.917800  0.628300  0.917300  1.0
  H  H138  1  0.082200  0.371700  0.082700  1.0
  H  H139  1  0.127700  0.571700  0.041100  1.0
  H  H140  1  0.872300  0.428300  0.958900  1.0
  H  H141  1  0.130700  0.700300  0.000200  1.0
  H  H142  1  0.869300  0.299700  0.999800  1.0
  Pd  Pd143  1  0.849410  0.026550  0.774100  1.0
  Pd  Pd144  1  0.150590  0.973450  0.225900  1.0
  C  C145  1  0.805000  0.534600  0.631100  1
  C  C146  1  0.195000  0.465400  0.368900  1
  C  C147  1  0.751000  0.492900  0.619500  1
  C  C148  1  0.249000  0.507100  0.380500  1
  C  C149  1  0.283900  0.185000  0.494200  1
  C  C150  1  0.716100  0.815000  0.505800  1
  C  C151  1  0.263000  0.267100  0.488600  1
  C  C152  1  0.737000  0.732900  0.511400  1
  C  C153  1  0.286000  0.842000  0.841800  1
  C  C154  1  0.714000  0.158000  0.158200  1
  C  C155  1  0.292200  0.764100  0.868700  1
  C  C156  1  0.707800  0.235900  0.131300  1
  C  C157  1  0.300000  0.757200  0.377700  1
  C  C158  1  0.700000  0.242800  0.622300  1
  C  C159  1  0.309000  0.680200  0.427000  1
  C  C160  1  0.691000  0.319800  0.573000  1
  C  C161  1  0.089000  0.692000  0.361100  1
  C  C162  1  0.911000  0.308000  0.638900  1
  C  C163  1  0.030000  0.670000  0.323000  1
  C  C164  1  0.970000  0.330000  0.677000  1
  C  C165  1  0.683300  0.050600  0.806200  1.0
  C  C166  1  0.316700  0.949400  0.193800  1.0
  C  C167  1  0.761100  0.917700  0.848900  1.0
  C  C168  1  0.238900  0.082300  0.151100  1.0
  C  C169  1  0.695100  0.899700  0.883500  1.0
  C  C170  1  0.304900  0.100300  0.116500  1.0
  C  C171  1  0.623900  0.957700  0.882000  1.0
  C  C172  1  0.376100  0.042300  0.118000  1.0
  C  C173  1  0.618300  0.034500  0.838600  1.0
  C  C174  1  0.381700  0.965500  0.161400  1.0
  C  C175  1  0.549400  0.161200  0.863700  1.0
  C  C176  1  0.450600  0.838800  0.136300  1.0
  C  C177  1  0.463400  0.099200  0.830200  1.0
  C  C178  1  0.536600  0.900800  0.169800  1.0
  C  C179  1  0.465700  0.211900  0.860800  1.0
  C  C180  1  0.534300  0.788100  0.139200  1.0
  C  C181  1  0.412800  0.177200  0.844600  1.0
  C  C182  1  0.587200  0.822800  0.155400  1.0
  C  C183  1  0.438300  0.282300  0.877800  1.0
  C  C184  1  0.561700  0.717700  0.122200  1.0
  C  C185  1  0.324200  0.207900  0.841500  1.0
  C  C186  1  0.675800  0.792100  0.158500  1.0
  C  C187  1  0.355100  0.312500  0.875800  1.0
  C  C188  1  0.644900  0.687500  0.124200  1.0
  C  C189  1  0.298600  0.275600  0.861500  1.0
  C  C190  1  0.701400  0.724400  0.138500  1.0
  C  C191  1  0.303200  0.381300  0.897400  1.0
  C  C192  1  0.696800  0.618700  0.102600  1.0
  C  C193  1  0.233900  0.348000  0.932000  1.0
  C  C194  1  0.766100  0.652000  0.068000  1.0
  C  C195  1  0.216200  0.324300  0.870000  1.0
  C  C196  1  0.783800  0.675700  0.130000  1.0
  C  C197  1  0.258500  0.440800  0.828800  1.0
  C  C198  1  0.741500  0.559200  0.171200  1.0
  C  C199  1  0.193900  0.402700  0.808900  1.0
  C  C200  1  0.806100  0.597300  0.191100  1.0
  C  C201  1  0.200100  0.521900  0.828200  1.0
  C  C202  1  0.799900  0.478100  0.171800  1.0
  C  C203  1  0.229300  0.561000  0.873900  1.0
  C  C204  1  0.770700  0.439000  0.126100  1.0
  C  C205  1  0.113600  0.469200  0.806400  1.0
  C  C206  1  0.886400  0.530800  0.193600  1.0
  C  C207  1  0.038200  0.446900  0.822200  1.0
  C  C208  1  0.961800  0.553100  0.177800  1.0
  C  C209  1  0.170600  0.569300  0.752200  1.0
  C  C210  1  0.829400  0.430700  0.247800  1.0
  C  C211  1  0.103900  0.532500  0.737800  1.0
  C  C212  1  0.896100  0.467500  0.262200  1.0
  C  C213  1  0.117600  0.659300  0.734600  1.0
  C  C214  1  0.882400  0.340700  0.265400  1.0
  C  C215  1  0.037200  0.655200  0.763400  1.0
  C  C216  1  0.962800  0.344800  0.236600  1.0
  C  C217  1  0.022000  0.603600  0.717800  1.0
  C  C218  1  0.978000  0.396400  0.282200  1.0
  C  C219  1  0.096700  0.690600  0.659600  1.0
  C  C220  1  0.903300  0.309400  0.340400  1.0
  C  C221  1  0.033600  0.658800  0.647900  1.0
  C  C222  1  0.966400  0.341200  0.352100  1.0
  C  C223  1  0.117200  0.741700  0.606400  1.0
  C  C224  1  0.882800  0.258300  0.393600  1.0
  C  C225  1  0.986200  0.681000  0.582900  1.0
  C  C226  1  0.013800  0.319000  0.417100  1.0
  C  C227  1  0.072700  0.763000  0.545200  1.0
  C  C228  1  0.927300  0.237000  0.454800  1.0
  C  C229  1  0.011100  0.737400  0.532200  1.0
  C  C230  1  0.988900  0.262600  0.467800  1.0
  C  C231  1  0.075700  0.819300  0.479200  1.0
  C  C232  1  0.924300  0.180700  0.520800  1.0
  C  C233  1  0.972400  0.778700  0.458200  1.0
  C  C234  1  0.027600  0.221300  0.541800  1.0
  C  C235  1  0.929100  0.108600  0.676500  1.0
  C  C236  1  0.070900  0.891400  0.323500  1.0
  C  C237  1  0.004400  0.878700  0.361000  1.0
  C  C238  1  0.995600  0.121300  0.639000  1.0
  C  C239  1  0.915400  0.917900  0.331400  1.0
  C  C240  1  0.084600  0.082100  0.668600  1.0
  C  C241  1  0.904100  0.964600  0.263700  1.0
  C  C242  1  0.095900  0.035400  0.736300  1.0
  C  C243  1  0.023600  0.023100  0.768200  1.0
  C  C244  1  0.976400  0.976900  0.231800  1.0
  C  C245  1  0.813800  0.154900  0.840500  1.0
  C  C246  1  0.186200  0.845100  0.159500  1.0
  C  C247  1  0.862000  0.029700  0.918700  1.0
  C  C248  1  0.138000  0.970300  0.081300  1.0
  C  C249  1  0.854000  0.058700  0.975100  1.0
  C  C250  1  0.146000  0.941300  0.024900  1.0
  C  C251  1  0.819300  0.144400  0.959400  1.0
  C  C252  1  0.180700  0.855600  0.040600  1.0
  C  C253  1  0.804400  0.187300  0.893100  1.0
  C  C254  1  0.195600  0.812700  0.106900  1.0
  C  C255  1  0.820500  0.316900  0.832900  1.0
  C  C256  1  0.179500  0.683100  0.167100  1.0
  C  C257  1  0.718500  0.313700  0.913800  1.0
  C  C258  1  0.281500  0.686300  0.086200  1.0
  C  C259  1  0.777800  0.396600  0.843900  1.0
  C  C260  1  0.222200  0.603400  0.156100  1.0
  C  C261  1  0.722400  0.395100  0.889000  1.0
  C  C262  1  0.277600  0.604900  0.111000  1.0
  C  C263  1  0.804900  0.463100  0.815000  1.0
  C  C264  1  0.195100  0.536900  0.185000  1.0
  C  C265  1  0.679900  0.458700  0.911800  1.0
  C  C266  1  0.320100  0.541300  0.088200  1.0
  C  C267  1  0.767600  0.526500  0.834800  1.0
  C  C268  1  0.232400  0.473500  0.165200  1.0
  C  C269  1  0.707300  0.526200  0.880400  1.0
  C  C270  1  0.292700  0.473800  0.119600  1.0
  C  C271  1  0.770200  0.607500  0.821500  1.0
  C  C272  1  0.229800  0.392500  0.178500  1.0
  C  C273  1  0.756800  0.617900  0.898300  1.0
  C  C274  1  0.243200  0.382100  0.101700  1.0
  C  C275  1  0.678300  0.604100  0.898500  1.0
  C  C276  1  0.321700  0.395900  0.101500  1.0
  C  C277  1  0.691600  0.663100  0.777600  1.0
  C  C278  1  0.308400  0.336900  0.222400  1.0
  C  C279  1  0.623800  0.663400  0.831300  1.0
  C  C280  1  0.376200  0.336600  0.168700  1.0
  C  C281  1  0.681100  0.755100  0.755600  1.0
  C  C282  1  0.318900  0.244900  0.244400  1.0
  C  C283  1  0.754400  0.775900  0.730500  1.0
  C  C284  1  0.245600  0.224100  0.269500  1.0
  C  C285  1  0.591100  0.750800  0.825300  1.0
  C  C286  1  0.408900  0.249200  0.174700  1.0
  C  C287  1  0.553500  0.770800  0.890600  1.0
  C  C288  1  0.446500  0.229200  0.109400  1.0
  C  C289  1  0.604200  0.792100  0.703400  1.0
  C  C290  1  0.395800  0.207900  0.296600  1.0
  C  C291  1  0.534000  0.793300  0.756700  1.0
  C  C292  1  0.466000  0.206700  0.243300  1.0
  C  C293  1  0.581100  0.879100  0.661400  1.0
  C  C294  1  0.418900  0.120900  0.338600  1.0
  C  C295  1  0.549000  0.920200  0.718800  1.0
  C  C296  1  0.451000  0.079800  0.281200  1.0
  C  C297  1  0.484100  0.880100  0.739500  1.0
  C  C298  1  0.515900  0.119900  0.260500  1.0
  C  C299  1  0.493800  0.897100  0.626400  1.0
  C  C300  1  0.506200  0.102900  0.373600  1.0
  C  C301  1  0.435800  0.901600  0.674800  1.0
  C  C302  1  0.564200  0.098400  0.325200  1.0
  C  C303  1  0.478200  0.913600  0.547400  1.0
  C  C304  1  0.521800  0.086400  0.452600  1.0
  C  C305  1  0.356400  0.917300  0.648800  1.0
  C  C306  1  0.643600  0.082700  0.351200  1.0
  C  C307  1  0.395100  0.934800  0.529900  1.0
  C  C308  1  0.604900  0.065200  0.470100  1.0
  C  C309  1  0.335000  0.938600  0.579200  1.0
  C  C310  1  0.665000  0.061400  0.420800  1.0
  C  C311  1  0.353500  0.959400  0.458600  1.0
  C  C312  1  0.646500  0.040600  0.541400  1.0
  C  C313  1  0.256400  0.967900  0.544000  1.0
  C  C314  1  0.743600  0.032100  0.456000  1.0
  C  C315  1  0.797800  0.013300  0.642000  1.0
  C  C316  1  0.202200  0.986700  0.358000  1.0
  C  C317  1  0.201700  0.015600  0.412000  1.0
  C  C318  1  0.798300  0.984400  0.588000  1.0
  C  C319  1  0.143900  0.085800  0.413600  1.0
  C  C320  1  0.856100  0.914200  0.586400  1.0
  C  C321  1  0.085700  0.123900  0.355000  1.0
  C  C322  1  0.914300  0.876100  0.645000  1.0
  C  C323  1  0.907300  0.911900  0.697700  1.0
  C  C324  1  0.092700  0.088100  0.302300  1.0
  C  C325  1  0.242000  0.482500  0.588100  1.0
  C  C326  1  0.758000  0.517500  0.411900  1.0
  C  C327  1  0.188200  0.549800  0.546600  1.0
  C  C328  1  0.811800  0.450200  0.453400  1.0
  C  C329  1  0.113000  0.545700  0.523900  1.0
  C  C330  1  0.887000  0.454300  0.476100  1.0
  C  C331  1  0.092000  0.477100  0.538600  1.0
  C  C332  1  0.908000  0.522900  0.461400  1.0
  C  C333  1  0.149000  0.406700  0.584000  1.0
  C  C334  1  0.851000  0.593300  0.416000  1.0
  C  C335  1  0.223000  0.409100  0.611900  1.0
  C  C336  1  0.777000  0.590900  0.388100  1.0
  C  C337  1  0.023600  0.741500  0.928900  1.0
  C  C338  1  0.976400  0.258500  0.071100  1.0
  C  C339  1  0.960400  0.718000  0.909800  1.0
  C  C340  1  0.039600  0.282000  0.090200  1.0
  C  C341  1  0.960300  0.644000  0.932900  1.0
  C  C342  1  0.039700  0.356000  0.067100  1.0
  C  C343  1  0.026100  0.590200  0.981500  1.0
  C  C344  1  0.973900  0.409800  0.018500  1.0
  C  C345  1  0.086600  0.609800  0.006700  1.0
  C  C346  1  0.913400  0.390200  0.993300  1.0
  C  C347  1  0.088800  0.685200  0.982700  1.0
  C  C348  1  0.911200  0.314800  0.017300  1.0
  S  S349  1  0.022400  0.839400  0.916200  1
  S  S350  1  0.977600  0.160600  0.083800  1
  S  S351  1  0.344500  0.487300  0.617700  1.0
  S  S352  1  0.655500  0.512700  0.382300  1.0
  S  S353  1  0.035200  0.830700  0.878300  1.0
  S  S354  1  0.964800  0.169300  0.121700  1.0
  N  N355  1  0.856400  0.559800  0.640000  1
  N  N356  1  0.143600  0.440200  0.360000  1
  N  N357  1  0.289700  0.125200  0.500100  1
  N  N358  1  0.710300  0.874800  0.499900  1
  N  N359  1  0.282000  0.907400  0.820700  1
  N  N360  1  0.718000  0.092600  0.179300  1
  N  N361  1  0.281100  0.812100  0.329300  1
  N  N362  1  0.718900  0.187900  0.670700  1
  N  N363  1  0.142000  0.696300  0.391100  1
  N  N364  1  0.858000  0.303700  0.608900  1
  N  N365  1  0.750100  0.993000  0.812600  1.0
  N  N366  1  0.249900  0.007000  0.187400  1.0
  N  N367  1  0.546400  0.096400  0.844000  1.0
  N  N368  1  0.453600  0.903600  0.156000  1.0
  N  N369  1  0.011600  0.831000  0.432200  1.0
  N  N370  1  0.988400  0.169000  0.567800  1.0
  N  N371  1  0.949100  0.057700  0.737900  1.0
  N  N372  1  0.050900  0.942300  0.262100  1.0
  N  N373  1  0.843700  0.075700  0.852100  1.0
  N  N374  1  0.156300  0.924300  0.147900  1.0
  N  N375  1  0.777500  0.269800  0.879900  1.0
  N  N376  1  0.222500  0.730200  0.120100  1.0
  N  N377  1  0.264900  0.978000  0.470100  1.0
  N  N378  1  0.735100  0.022000  0.529900  1.0
  N  N379  1  0.850200  0.979600  0.697000  1.0
  N  N380  1  0.149800  0.020400  0.303000  1.0
  N  N381  1  0.024400  0.466700  0.521200  1.0
  N  N382  1  0.975600  0.533300  0.478800  1.0
  N  N383  1  0.029400  0.507700  0.009300  1.0
  N  N384  1  0.970600  0.492300  0.990700  1.0
  O  O385  1  0.162100  0.844600  0.705200  1
  O  O386  1  0.837900  0.155400  0.294800  1
  O  O387  1  0.008900  0.868100  0.975600  1
  O  O388  1  0.991100  0.131900  0.024400  1
  O  O389  1  0.612600  0.173600  0.871300  1.0
  O  O390  1  0.387400  0.826400  0.128700  1.0
  O  O391  1  0.440000  0.051200  0.818100  1.0
  O  O392  1  0.560000  0.948800  0.181900  1.0
  O  O393  1  0.129500  0.504600  0.858000  1.0
  O  O394  1  0.870500  0.495400  0.142000  1.0
  O  O395  1  0.122000  0.858200  0.469000  1.0
  O  O396  1  0.878000  0.141800  0.531000  1.0
  O  O397  1  0.912500  0.769800  0.431500  1.0
  O  O398  1  0.087500  0.230200  0.568500  1.0
  O  O399  1  0.868900  0.294400  0.797300  1.0
  O  O400  1  0.131100  0.705600  0.202700  1.0
  O  O401  1  0.679700  0.285900  0.957400  1.0
  O  O402  1  0.320300  0.714100  0.042600  1.0
  O  O403  1  0.660500  0.778100  0.815200  1.0
  O  O404  1  0.339500  0.221900  0.184800  1.0
  O  O405  1  0.379700  0.960200  0.404700  1.0
  O  O406  1  0.620300  0.039800  0.595300  1.0
  O  O407  1  0.190500  0.989200  0.561100  1.0
  O  O408  1  0.809500  0.010800  0.438900  1.0
  O  O409  1  0.328500  0.567600  0.615700  1.0
  O  O410  1  0.671500  0.432400  0.384300  1.0
  O  O411  1  0.367000  0.426100  0.680400  1.0
  O  O412  1  0.633000  0.573900  0.319600  1.0
  O  O413  1  0.408000  0.457000  0.571000  1.0
  O  O414  1  0.592000  0.543000  0.429000  1.0
  O  O415  1  0.074500  0.819700  0.812200  1.0
  O  O416  1  0.925500  0.180300  0.187800  1.0
  O  O417  1  0.952200  0.881500  0.862300  1.0
  O  O418  1  0.047800  0.118500  0.137700  1.0
  O  O419  1  0.094000  0.843800  0.906200  1.0
  O  O420  1  0.906000  0.156200  0.093800  1.0
  F  F421  1  0.247000  0.519800  0.940900  1.0
  F  F422  1  0.753000  0.480200  0.059100  1.0
  F  F423  1  0.301900  0.569900  0.851100  1.0
  F  F424  1  0.698100  0.430100  0.148900  1.0
  F  F425  1  0.182100  0.630400  0.872000  1.0
  F  F426  1  0.817900  0.369600  0.128000  1.0
  F  F427  1  0.048000  0.389000  0.884100  1.0
  F  F428  1  0.952000  0.611000  0.115900  1.0
  F  F429  1  0.015500  0.419300  0.774300  1.0
  F  F430  1  0.984500  0.580700  0.225700  1.0
  F  F431  1  0.971600  0.503000  0.830700  1.0
  F  F432  1  0.028400  0.497000  0.169300  1.0
  F  F433  1  0.819900  0.743500  0.779000  1.0
  F  F434  1  0.180100  0.256500  0.221000  1.0
  F  F435  1  0.780600  0.752600  0.674500  1.0
  F  F436  1  0.219400  0.247400  0.325500  1.0
  F  F437  1  0.742500  0.851300  0.714400  1.0
  F  F438  1  0.257500  0.148700  0.285600  1.0
  F  F439  1  0.605200  0.736800  0.948100  1.0
  F  F440  1  0.394800  0.263200  0.051900  1.0
  F  F441  1  0.487500  0.743800  0.903600  1.0
  F  F442  1  0.512500  0.256200  0.096400  1.0
  F  F443  1  0.524600  0.845600  0.885100  1.0
  F  F444  1  0.475400  0.154400  0.114900  1.0
