# generated using pymatgen
data_Th4H246C255(N10O11)4
_symmetry_space_group_name_H-M   'P 1'
_cell_length_a   18.02260000
_cell_length_b   19.10700000
_cell_length_c   20.39000000
_cell_angle_alpha   110.84500000
_cell_angle_beta   114.35800000
_cell_angle_gamma   90.43100000
_symmetry_Int_Tables_number   1
_chemical_formula_structural   Th4H246C255(N10O11)4
_chemical_formula_sum   'Th4 H246 C255 N40 O44'
_cell_volume   5878.80177216
_cell_formula_units_Z   1
loop_
 _symmetry_equiv_pos_site_id
 _symmetry_equiv_pos_as_xyz
  1  'x, y, z'
loop_
 _atom_site_type_symbol
 _atom_site_label
 _atom_site_symmetry_multiplicity
 _atom_site_fract_x
 _atom_site_fract_y
 _atom_site_fract_z
 _atom_site_occupancy
  Th  Th1  1  0.522303  0.147419  0.299462  1
  Th  Th2  1  0.477697  0.852581  0.700538  1
  Th  Th3  1  0.956651  0.339703  0.696453  1
  Th  Th4  1  0.043349  0.660297  0.303547  1
  H  H5  1  0.402000  0.924500  0.157300  1
  H  H6  1  0.598000  0.075500  0.842700  1
  H  H7  1  0.322800  0.834300  0.032400  1
  H  H8  1  0.677200  0.165700  0.967600  1
  H  H9  1  0.298800  0.708300  0.011000  1
  H  H10  1  0.701200  0.291700  0.989000  1
  H  H11  1  0.359000  0.671200  0.112200  1
  H  H12  1  0.641000  0.328800  0.887800  1
  H  H13  1  0.438500  0.760000  0.238300  1
  H  H14  1  0.561500  0.240000  0.761700  1
  H  H15  1  0.557100  0.876200  0.479100  1
  H  H16  1  0.442900  0.123800  0.520900  1
  H  H17  1  0.558500  0.962400  0.523900  1
  H  H18  1  0.441500  0.037600  0.476100  1
  H  H19  1  0.636300  0.936800  0.512500  1
  H  H20  1  0.363700  0.063200  0.487500  1
  H  H21  1  0.691700  0.083800  0.548800  1
  H  H22  1  0.308300  0.916200  0.451200  1
  H  H23  1  0.606300  0.081200  0.551400  1
  H  H24  1  0.393700  0.918800  0.448600  1
  H  H25  1  0.612900  0.210900  0.566100  1
  H  H26  1  0.387100  0.789100  0.433900  1
  H  H27  1  0.703700  0.211300  0.575000  1
  H  H28  1  0.296300  0.788700  0.425000  1
  H  H29  1  0.745100  0.186100  0.687400  1
  H  H30  1  0.254900  0.813900  0.312600  1
  H  H31  1  0.653900  0.177800  0.676800  1
  H  H32  1  0.346100  0.822200  0.323200  1
  H  H33  1  0.664400  0.312400  0.695700  1
  H  H34  1  0.335600  0.687600  0.304300  1
  H  H35  1  0.708200  0.294300  0.770400  1
  H  H36  1  0.291800  0.705700  0.229600  1
  H  H37  1  0.685100  0.499600  0.864600  1
  H  H38  1  0.314900  0.500400  0.135400  1
  H  H39  1  0.672800  0.410500  0.827800  1
  H  H40  1  0.327200  0.589500  0.172200  1
  H  H41  1  0.656500  0.456400  0.774500  1
  H  H42  1  0.343500  0.543600  0.225500  1
  H  H43  1  0.957900  0.597300  0.037400  1
  H  H44  1  0.042100  0.402700  0.962600  1
  H  H45  1  0.077300  0.691900  0.123700  1
  H  H46  1  0.922700  0.308100  0.876300  1
  H  H47  1  0.166700  0.720500  0.079000  1
  H  H48  1  0.833300  0.279500  0.921000  1
  H  H49  1  0.136400  0.662300  0.949300  1
  H  H50  1  0.863600  0.337700  0.050700  1
  H  H51  1  0.022600  0.565000  0.863400  1
  H  H52  1  0.977400  0.435000  0.136600  1
  H  H53  1  0.455100  0.162800  0.087700  1
  H  H54  1  0.544900  0.837200  0.912300  1
  H  H55  1  0.338800  0.160600  0.978300  1
  H  H56  1  0.661200  0.839400  0.021700  1
  H  H57  1  0.334300  0.107700  0.855400  1
  H  H58  1  0.665700  0.892300  0.144600  1
  H  H59  1  0.440000  0.052900  0.841600  1
  H  H60  1  0.560000  0.947100  0.158400  1
  H  H61  1  0.554000  0.054000  0.946600  1
  H  H62  1  0.446000  0.946000  0.053400  1
  H  H63  1  0.803900  0.063200  0.117700  1
  H  H64  1  0.196100  0.936800  0.882300  1
  H  H65  1  0.804100  0.023900  0.173400  1
  H  H66  1  0.195900  0.976100  0.826600  1
  H  H67  1  0.838500  0.111300  0.207900  1
  H  H68  1  0.161500  0.888700  0.792100  1
  H  H69  1  0.822400  0.085000  0.317700  1
  H  H70  1  0.177600  0.915000  0.682300  1
  H  H71  1  0.766500  0.005000  0.260600  1
  H  H72  1  0.233500  0.995000  0.739400  1
  H  H73  1  0.816000  0.992000  0.374300  1
  H  H74  1  0.184000  0.008000  0.625700  1
  H  H75  1  0.730600  0.014600  0.367600  1
  H  H76  1  0.269400  0.985400  0.632400  1
  H  H77  1  0.876500  0.126800  0.453600  1
  H  H78  1  0.123500  0.873200  0.546400  1
  H  H79  1  0.791900  0.136900  0.457300  1
  H  H80  1  0.208100  0.863100  0.542700  1
  H  H81  1  0.890300  0.037800  0.513200  1
  H  H82  1  0.109700  0.962200  0.486800  1
  H  H83  1  0.810000  0.056600  0.522900  1
  H  H84  1  0.190000  0.943400  0.477100  1
  H  H85  1  0.033800  0.959000  0.631500  1
  H  H86  1  0.966200  0.041000  0.368500  1
  H  H87  1  0.011000  0.993300  0.567800  1
  H  H88  1  0.989000  0.006700  0.432200  1
  H  H89  1  0.941600  0.965400  0.585000  1
  H  H90  1  0.058400  0.034600  0.415000  1
  H  H91  1  0.104800  0.294700  0.892900  1
  H  H92  1  0.895200  0.705300  0.107100  1
  H  H93  1  0.178700  0.334300  0.026700  1
  H  H94  1  0.821300  0.665700  0.973300  1
  H  H95  1  0.239900  0.254700  0.081100  1
  H  H96  1  0.760100  0.745300  0.918900  1
  H  H97  1  0.211800  0.126000  0.003900  1
  H  H98  1  0.788200  0.874000  0.996100  1
  H  H99  1  0.136700  0.084100  0.870500  1
  H  H100  1  0.863300  0.915900  0.129500  1
  H  H101  1  0.322900  0.258300  0.307900  1
  H  H102  1  0.677100  0.741700  0.692100  1
  H  H103  1  0.186000  0.235500  0.281900  1
  H  H104  1  0.814000  0.764500  0.718100  1
  H  H105  1  0.092500  0.298500  0.218400  1
  H  H106  1  0.907500  0.701500  0.781600  1
  H  H107  1  0.137100  0.389400  0.187500  1
  H  H108  1  0.862900  0.610600  0.812500  1
  H  H109  1  0.274600  0.414900  0.215200  1
  H  H110  1  0.725400  0.585100  0.784800  1
  H  H111  1  0.531100  0.538800  0.335400  1
  H  H112  1  0.468900  0.461200  0.664600  1
  H  H113  1  0.585500  0.491500  0.299200  1
  H  H114  1  0.414500  0.508500  0.700800  1
  H  H115  1  0.607600  0.512700  0.387600  1
  H  H116  1  0.392400  0.487300  0.612400  1
  H  H117  1  0.695600  0.419200  0.379600  1
  H  H118  1  0.304400  0.580800  0.620400  1
  H  H119  1  0.664500  0.387900  0.288900  1
  H  H120  1  0.335500  0.612100  0.711100  1
  H  H121  1  0.792300  0.361600  0.331100  1
  H  H122  1  0.207700  0.638400  0.668900  1
  H  H123  1  0.737000  0.282900  0.301600  1
  H  H124  1  0.263000  0.717100  0.698400  1
  H  H125  1  0.822900  0.383100  0.461700  1
  H  H126  1  0.177100  0.616900  0.538300  1
  H  H127  1  0.766500  0.304900  0.432600  1
  H  H128  1  0.233500  0.695100  0.567400  1
  H  H129  1  0.854200  0.239200  0.386800  1
  H  H130  1  0.145800  0.760800  0.613200  1
  H  H131  1  0.907600  0.315400  0.406800  1
  H  H132  1  0.092400  0.684600  0.593200  1
  H  H133  1  0.050400  0.179000  0.360700  1
  H  H134  1  0.949600  0.821000  0.639300  1
  H  H135  1  0.012900  0.253800  0.372300  1
  H  H136  1  0.987100  0.746200  0.627700  1
  H  H137  1  0.957700  0.176100  0.346100  1
  H  H138  1  0.042300  0.823900  0.653900  1
  H  H139  1  0.249500  0.177400  0.561100  1
  H  H140  1  0.750500  0.822600  0.438900  1
  H  H141  1  0.368500  0.158700  0.654800  1
  H  H142  1  0.631500  0.841300  0.345200  1
  H  H143  1  0.373600  0.159200  0.768800  1
  H  H144  1  0.626400  0.840800  0.231200  1
  H  H145  1  0.261600  0.184600  0.795400  1
  H  H146  1  0.738400  0.815400  0.204600  1
  H  H147  1  0.144200  0.208300  0.706300  1
  H  H148  1  0.855800  0.791700  0.293700  1
  H  H149  1  0.340200  0.001000  0.283200  1
  H  H150  1  0.659800  0.999000  0.716800  1
  H  H151  1  0.251000  0.887800  0.201500  1
  H  H152  1  0.749000  0.112200  0.798500  1
  H  H153  1  0.125000  0.867800  0.200000  1
  H  H154  1  0.875000  0.132200  0.800000  1
  H  H155  1  0.083200  0.964900  0.272500  1
  H  H156  1  0.916800  0.035100  0.727500  1
  H  H157  1  0.169300  0.083600  0.352900  1
  H  H158  1  0.830700  0.916400  0.647100  1
  H  H159  1  0.300400  0.292500  0.536500  1
  H  H160  1  0.699600  0.707500  0.463500  1
  H  H161  1  0.349600  0.348900  0.522100  1
  H  H162  1  0.650400  0.651100  0.477900  1
  H  H163  1  0.397300  0.312100  0.581500  1
  H  H164  1  0.602700  0.687900  0.418500  1
  H  H165  1  0.533000  0.352600  0.570500  1
  H  H166  1  0.467000  0.647400  0.429500  1
  H  H167  1  0.465900  0.381300  0.512900  1
  H  H168  1  0.534100  0.618700  0.487100  1
  H  H169  1  0.578300  0.462300  0.554200  1
  H  H170  1  0.421700  0.537700  0.445800  1
  H  H171  1  0.570800  0.404500  0.473900  1
  H  H172  1  0.429200  0.595500  0.526100  1
  H  H173  1  0.675300  0.348200  0.536600  1
  H  H174  1  0.324700  0.651800  0.463400  1
  H  H175  1  0.679300  0.399000  0.618100  1
  H  H176  1  0.320700  0.601000  0.381900  1
  H  H177  1  0.722800  0.456400  0.526100  1
  H  H178  1  0.277200  0.543600  0.473900  1
  H  H179  1  0.724000  0.508400  0.605700  1
  H  H180  1  0.276000  0.491600  0.394300  1
  H  H181  1  0.835600  0.652800  0.572700  1
  H  H182  1  0.164400  0.347200  0.427300  1
  H  H183  1  0.773200  0.610400  0.587600  1
  H  H184  1  0.226800  0.389600  0.412400  1
  H  H185  1  0.792400  0.568300  0.516400  1
  H  H186  1  0.207600  0.431700  0.483600  1
  H  H187  1  0.078900  0.720800  0.758800  1
  H  H188  1  0.921100  0.279200  0.241200  1
  H  H189  1  0.212400  0.780900  0.847600  1
  H  H190  1  0.787600  0.219100  0.152400  1
  H  H191  1  0.313100  0.711200  0.886300  1
  H  H192  1  0.686900  0.288800  0.113700  1
  H  H193  1  0.278100  0.582100  0.843200  1
  H  H194  1  0.721900  0.417900  0.156800  1
  H  H195  1  0.142300  0.520200  0.754400  1
  H  H196  1  0.857700  0.479800  0.245600  1
  H  H197  1  0.313900  0.136500  0.202400  1
  H  H198  1  0.686100  0.863500  0.797600  1
  H  H199  1  0.175400  0.111800  0.148700  1
  H  H200  1  0.824600  0.888200  0.851300  1
  H  H201  1  0.144600  0.024200  0.118600  1
  H  H202  1  0.855400  0.975800  0.881400  1
  H  H203  1  0.131200  0.061800  0.058500  1
  H  H204  1  0.868800  0.938200  0.941500  1
  H  H205  1  0.303900  0.974800  0.061600  1
  H  H206  1  0.696100  0.025200  0.938400  1
  H  H207  1  0.213800  0.974700  0.003100  1
  H  H208  1  0.786200  0.025300  0.996900  1
  H  H209  1  0.227400  0.936600  0.062800  1
  H  H210  1  0.772600  0.063400  0.937200  1
  H  H211  1  0.235900  0.371300  0.825700  1
  H  H212  1  0.764100  0.628700  0.174300  1
  H  H213  1  0.307000  0.395500  0.910900  1
  H  H214  1  0.693000  0.604500  0.089100  1
  H  H215  1  0.302000  0.445300  0.863100  1
  H  H216  1  0.698000  0.554700  0.136900  1
  H  H217  1  0.220100  0.545400  0.990900  1
  H  H218  1  0.779900  0.454600  0.009100  1
  H  H219  1  0.289200  0.559300  0.966700  1
  H  H220  1  0.710800  0.440700  0.033300  1
  H  H221  1  0.299700  0.509200  0.015300  1
  H  H222  1  0.700300  0.490800  0.984700  1
  H  H223  1  0.484200  0.835400  0.345300  1
  H  H224  1  0.515800  0.164600  0.654700  1
  H  H225  1  0.822400  0.562000  0.925900  1
  H  H226  1  0.177600  0.438000  0.074100  1
  H  H227  1  0.671300  0.088900  0.048100  1
  H  H228  1  0.328700  0.911100  0.951900  1
  H  H229  1  0.095500  0.050800  0.756300  1
  H  H230  1  0.904500  0.949200  0.243700  1
  H  H231  1  0.406600  0.466800  0.300600  1
  H  H232  1  0.593400  0.533200  0.699400  1
  H  H233  1  0.135200  0.170500  0.476200  1
  H  H234  1  0.864800  0.829500  0.523800  1
  H  H235  1  0.255600  0.173400  0.440400  1
  H  H236  1  0.744400  0.826600  0.559600  1
  H  H237  1  0.973200  0.661300  0.656900  1
  H  H238  1  0.026800  0.338700  0.343100  1
  H  H239  1  0.172100  0.502800  0.924700  1
  H  H240  1  0.827900  0.497200  0.075300  1
  H  H241  1  0.269000  0.523700  0.969200  1
  H  H242  1  0.731000  0.476300  0.030800  1
  H  H243  1  0.220100  0.482500  0.997500  1
  H  H244  1  0.779900  0.517500  0.002500  1
  H  H245  1  0.289400  0.327600  0.882000  1
  H  H246  1  0.710600  0.672400  0.118000  1
  H  H247  1  0.293800  0.359500  0.966000  1
  H  H248  1  0.706200  0.640500  0.034000  1
  H  H249  1  0.345800  0.406100  0.944800  1
  H  H250  1  0.654200  0.593900  0.055200  1
  C  C251  1  0.393700  0.873200  0.148700  1
  C  C252  1  0.606300  0.126800  0.851300  1
  C  C253  1  0.345900  0.819300  0.074200  1
  C  C254  1  0.654100  0.180700  0.925800  1
  C  C255  1  0.332100  0.744200  0.061100  1
  C  C256  1  0.667900  0.255800  0.938900  1
  C  C257  1  0.367200  0.722500  0.121200  1
  C  C258  1  0.632800  0.277500  0.878800  1
  C  C259  1  0.415500  0.775600  0.196900  1
  C  C260  1  0.584500  0.224400  0.803100  1
  C  C261  1  0.428900  0.850500  0.209800  1
  C  C262  1  0.571100  0.149500  0.790200  1
  C  C263  1  0.513800  0.978400  0.315200  1
  C  C264  1  0.486200  0.021600  0.684800  1
  C  C265  1  0.555900  0.004100  0.397800  1
  C  C266  1  0.444100  0.995900  0.602200  1
  C  C267  1  0.543800  0.938100  0.413500  1
  C  C268  1  0.456200  0.061900  0.586500  1
  C  C269  1  0.576900  0.927400  0.489000  1
  C  C270  1  0.423100  0.072600  0.511000  1
  C  C271  1  0.597100  0.079400  0.448300  1
  C  C272  1  0.402900  0.920600  0.551700  1
  C  C273  1  0.640800  0.104100  0.535700  1
  C  C274  1  0.359200  0.895900  0.464300  1
  C  C275  1  0.661800  0.188500  0.583200  1
  C  C276  1  0.338200  0.811500  0.416800  1
  C  C277  1  0.693800  0.205300  0.670000  1
  C  C278  1  0.306200  0.794700  0.330000  1
  C  C279  1  0.709400  0.289900  0.722000  1
  C  C280  1  0.290600  0.710100  0.278000  1
  C  C281  1  0.789800  0.335300  0.741900  1
  C  C282  1  0.210200  0.664700  0.258100  1
  C  C283  1  0.816300  0.411100  0.796300  1
  C  C284  1  0.183700  0.588900  0.203700  1
  C  C285  1  0.779100  0.461900  0.839400  1
  C  C286  1  0.220900  0.538100  0.160600  1
  C  C287  1  0.690400  0.456600  0.825300  1
  C  C288  1  0.309600  0.543400  0.174700  1
  C  C289  1  0.899100  0.449000  0.831400  1
  C  C290  1  0.100900  0.551000  0.168600  1
  C  C291  1  0.979000  0.571900  0.942400  1
  C  C292  1  0.021000  0.428100  0.057600  1
  C  C293  1  0.994200  0.609300  0.019600  1
  C  C294  1  0.005800  0.390700  0.980400  1
  C  C295  1  0.066000  0.666400  0.071400  1
  C  C296  1  0.934000  0.333600  0.928600  1
  C  C297  1  0.118900  0.684000  0.044600  1
  C  C298  1  0.881100  0.316000  0.955400  1
  C  C299  1  0.101500  0.648100  0.967400  1
  C  C300  1  0.898500  0.351900  0.032600  1
  C  C301  1  0.032600  0.590600  0.915400  1
  C  C302  1  0.967400  0.409400  0.084600  1
  C  C303  1  0.452800  0.140900  0.038100  1
  C  C304  1  0.547200  0.859100  0.961900  1
  C  C305  1  0.383100  0.139500  0.972300  1
  C  C306  1  0.616900  0.860500  0.027700  1
  C  C307  1  0.379800  0.107400  0.898900  1
  C  C308  1  0.620200  0.892600  0.101100  1
  C  C309  1  0.442700  0.075900  0.891300  1
  C  C310  1  0.557300  0.924100  0.108700  1
  C  C311  1  0.511000  0.076500  0.954300  1
  C  C312  1  0.489000  0.923500  0.045700  1
  C  C313  1  0.518000  0.109300  0.028300  1
  C  C314  1  0.482000  0.890700  0.971700  1
  C  C315  1  0.595400  0.112700  0.164100  1
  C  C316  1  0.404600  0.887300  0.835900  1
  C  C317  1  0.675600  0.099500  0.204800  1
  C  C318  1  0.324400  0.900500  0.795200  1
  C  C319  1  0.710500  0.086700  0.151800  1
  C  C320  1  0.289500  0.913300  0.848200  1
  C  C321  1  0.797400  0.069700  0.163800  1
  C  C322  1  0.202600  0.930300  0.836200  1
  C  C323  1  0.698900  0.089700  0.275700  1
  C  C324  1  0.301100  0.910300  0.724300  1
  C  C325  1  0.772700  0.051800  0.303700  1
  C  C326  1  0.227300  0.948200  0.696300  1
  C  C327  1  0.784400  0.032800  0.373800  1
  C  C328  1  0.215600  0.967200  0.626200  1
  C  C329  1  0.829100  0.101100  0.452500  1
  C  C330  1  0.170900  0.898900  0.547500  1
  C  C331  1  0.858100  0.077700  0.521200  1
  C  C332  1  0.141900  0.922300  0.478800  1
  C  C333  1  0.909900  0.142400  0.599300  1
  C  C334  1  0.090100  0.857600  0.400700  1
  C  C335  1  0.974500  0.130700  0.661600  1
  C  C336  1  0.025500  0.869300  0.338400  1
  C  C337  1  0.012300  0.066200  0.668100  1
  C  C338  1  0.987700  0.933800  0.331900  1
  C  C339  1  0.998500  0.989200  0.607800  1
  C  C340  1  0.001500  0.010800  0.392200  1
  C  C341  1  0.012300  0.188100  0.739500  1
  C  C342  1  0.987700  0.811900  0.260500  1
  C  C343  1  0.114900  0.185100  0.866800  1
  C  C344  1  0.885100  0.814900  0.133200  1
  C  C345  1  0.127000  0.259800  0.914300  1
  C  C346  1  0.873000  0.740200  0.085700  1
  C  C347  1  0.172300  0.283500  0.994900  1
  C  C348  1  0.827700  0.716500  0.005100  1
  C  C349  1  0.206200  0.236700  0.027400  1
  C  C350  1  0.793800  0.763300  0.972600  1
  C  C351  1  0.191400  0.160600  0.981200  1
  C  C352  1  0.808600  0.839400  0.018800  1
  C  C353  1  0.146200  0.135600  0.901500  1
  C  C354  1  0.853800  0.864400  0.098500  1
  C  C355  1  0.285600  0.285000  0.283800  1
  C  C356  1  0.714400  0.715000  0.716200  1
  C  C357  1  0.203800  0.271100  0.267600  1
  C  C358  1  0.796200  0.728900  0.732400  1
  C  C359  1  0.148100  0.309300  0.230500  1
  C  C360  1  0.851900  0.690700  0.769500  1
  C  C361  1  0.174600  0.362800  0.211700  1
  C  C362  1  0.825400  0.637200  0.788300  1
  C  C363  1  0.256800  0.378100  0.228200  1
  C  C364  1  0.743200  0.621900  0.771800  1
  C  C365  1  0.311900  0.339000  0.263800  1
  C  C366  1  0.688100  0.661000  0.736200  1
  C  C367  1  0.452700  0.306800  0.283800  1
  C  C368  1  0.547300  0.693200  0.716200  1
  C  C369  1  0.529300  0.353300  0.307500  1
  C  C370  1  0.470700  0.646700  0.692500  1
  C  C371  1  0.508900  0.426700  0.314000  1
  C  C372  1  0.491100  0.573300  0.686000  1
  C  C373  1  0.563100  0.498900  0.336000  1
  C  C374  1  0.436900  0.501100  0.664000  1
  C  C375  1  0.604700  0.325200  0.321200  1
  C  C376  1  0.395300  0.674800  0.678800  1
  C  C377  1  0.679900  0.373100  0.333000  1
  C  C378  1  0.320100  0.626900  0.667000  1
  C  C379  1  0.755200  0.334500  0.341200  1
  C  C380  1  0.244800  0.665500  0.658800  1
  C  C381  1  0.803000  0.331700  0.421700  1
  C  C382  1  0.197000  0.668300  0.578300  1
  C  C383  1  0.875600  0.291600  0.424100  1
  C  C384  1  0.124400  0.708400  0.575900  1
  C  C385  1  0.933100  0.291600  0.502300  1
  C  C386  1  0.066900  0.708400  0.497700  1
  C  C387  1  0.002900  0.256500  0.512600  1
  C  C388  1  0.997100  0.743500  0.487400  1
  C  C389  1  0.038700  0.219800  0.462400  1
  C  C390  1  0.961300  0.780200  0.537600  1
  C  C391  1  0.012500  0.205900  0.377600  1
  C  C392  1  0.987500  0.794100  0.622400  1
  C  C393  1  0.055900  0.254000  0.586300  1
  C  C394  1  0.944100  0.746000  0.413700  1
  C  C395  1  0.186500  0.198200  0.627000  1
  C  C396  1  0.813500  0.801800  0.373000  1
  C  C397  1  0.252100  0.180700  0.608600  1
  C  C398  1  0.747900  0.819300  0.391400  1
  C  C399  1  0.322900  0.167900  0.664800  1
  C  C400  1  0.677100  0.832100  0.335200  1
  C  C401  1  0.326600  0.168800  0.733300  1
  C  C402  1  0.673400  0.831200  0.266700  1
  C  C403  1  0.259900  0.184000  0.749000  1
  C  C404  1  0.740100  0.816000  0.251000  1
  C  C405  1  0.189300  0.198500  0.695400  1
  C  C406  1  0.810700  0.801500  0.304600  1
  C  C407  1  0.287800  0.994800  0.280700  1
  C  C408  1  0.712200  0.005200  0.719300  1
  C  C409  1  0.235100  0.926700  0.233000  1
  C  C410  1  0.764900  0.073300  0.767000  1
  C  C411  1  0.159700  0.915100  0.231100  1
  C  C412  1  0.840300  0.084900  0.768900  1
  C  C413  1  0.135300  0.972800  0.274700  1
  C  C414  1  0.864700  0.027200  0.725300  1
  C  C415  1  0.186600  0.044200  0.323200  1
  C  C416  1  0.813400  0.955800  0.676800  1
  C  C417  1  0.264000  0.054600  0.325400  1
  C  C418  1  0.736000  0.945400  0.674600  1
  C  C419  1  0.389400  0.155300  0.379900  1
  C  C420  1  0.610600  0.844700  0.620100  1
  C  C421  1  0.417200  0.228900  0.439800  1
  C  C422  1  0.582800  0.771100  0.560200  1
  C  C423  1  0.355300  0.239600  0.469200  1
  C  C424  1  0.644700  0.760400  0.530800  1
  C  C425  1  0.350200  0.303900  0.532900  1
  C  C426  1  0.649800  0.696100  0.467100  1
  C  C427  1  0.488800  0.278700  0.457000  1
  C  C428  1  0.511200  0.721300  0.543000  1
  C  C429  1  0.514400  0.357500  0.520700  1
  C  C430  1  0.485600  0.642500  0.479300  1
  C  C431  1  0.581700  0.410300  0.526400  1
  C  C432  1  0.418300  0.589700  0.473600  1
  C  C433  1  0.669200  0.397900  0.567200  1
  C  C434  1  0.330800  0.602100  0.432800  1
  C  C435  1  0.732900  0.459000  0.577600  1
  C  C436  1  0.267100  0.541000  0.422400  1
  C  C437  1  0.821400  0.453800  0.619900  1
  C  C438  1  0.178600  0.546200  0.380100  1
  C  C439  1  0.886900  0.509300  0.635600  1
  C  C440  1  0.113100  0.490700  0.364400  1
  C  C441  1  0.885700  0.577000  0.620600  1
  C  C442  1  0.114300  0.423000  0.379400  1
  C  C443  1  0.815300  0.604600  0.569700  1
  C  C444  1  0.184700  0.395400  0.430300  1
  C  C445  1  0.971000  0.511400  0.683000  1
  C  C446  1  0.029000  0.488600  0.317000  1
  C  C447  1  0.095900  0.614400  0.748600  1
  C  C448  1  0.904100  0.385600  0.251400  1
  C  C449  1  0.118500  0.692200  0.776000  1
  C  C450  1  0.881500  0.307800  0.224000  1
  C  C451  1  0.198700  0.728200  0.828300  1
  C  C452  1  0.801300  0.271800  0.171700  1
  C  C453  1  0.258500  0.686800  0.852200  1
  C  C454  1  0.741500  0.313200  0.147800  1
  C  C455  1  0.237900  0.610100  0.826000  1
  C  C456  1  0.762100  0.389900  0.174000  1
  C  C457  1  0.156000  0.572900  0.773000  1
  C  C458  1  0.844000  0.427100  0.227000  1
  C  C459  1  0.317600  0.091400  0.166900  1
  C  C460  1  0.682400  0.908600  0.833100  1
  C  C461  1  0.168000  0.062700  0.109000  1
  C  C462  1  0.832000  0.937300  0.891000  1
  C  C463  1  0.248300  0.977900  0.055100  1
  C  C464  1  0.751700  0.022100  0.944900  1
  C  C465  1  0.139000  0.439500  0.860800  1
  C  C466  1  0.861000  0.560500  0.139200  1
  C  C467  1  0.270200  0.413800  0.873400  1
  C  C468  1  0.729800  0.586200  0.126600  1
  C  C469  1  0.260700  0.523100  0.975000  1
  C  C470  1  0.739300  0.476900  0.025000  1
  C  C471  1  0.981800  0.121600  0.142000  1
  C  C472  1  0.018200  0.878400  0.858000  1
  C  C473  1  0.972600  0.170400  0.045200  1
  C  C474  1  0.027400  0.829600  0.954800  1
  C  C475  1  0.985300  0.053300  0.158200  1
  C  C476  1  0.014700  0.946700  0.841800  1
  C  C477  1  0.978700  0.155400  0.978300  1
  C  C478  1  0.021300  0.844600  0.021700  1
  C  C479  1  0.479000  0.297000  0.974000  1
  C  C480  1  0.521000  0.703000  0.026000  1
  C  C481  1  0.555000  0.437000  0.090000  1
  C  C482  1  0.445000  0.563000  0.910000  1
  C  C483  1  0.484000  0.353000  0.098000  1
  C  C484  1  0.516000  0.647000  0.902000  1
  C  C485  1  0.612200  0.619100  0.217800  1
  C  C486  1  0.387800  0.380900  0.782200  1
  C  C487  1  0.538200  0.620000  0.207200  1
  C  C488  1  0.461800  0.380000  0.792800  1
  C  C489  1  0.748300  0.594600  0.290400  1
  C  C490  1  0.251700  0.405400  0.709600  1
  C  C491  1  0.794000  0.578100  0.362000  1
  C  C492  1  0.206000  0.421900  0.638000  1
  C  C493  1  0.163400  0.372300  0.828000  1
  C  C494  1  0.836600  0.627700  0.172000  1
  C  C495  1  0.222000  0.486800  0.953000  1
  C  C496  1  0.778000  0.513200  0.047000  1
  C  C497  1  0.294500  0.372900  0.925200  1
  C  C498  1  0.705500  0.627100  0.074800  1
  C  C499  1  0.970400  0.541100  0.479400  1
  C  C500  1  0.029600  0.458900  0.520600  1
  C  C501  1  0.000000  0.500000  0.500000  1
  C  C502  1  0.849500  0.586900  0.394900  1
  C  C503  1  0.150500  0.413100  0.605100  1
  C  C504  1  0.757000  0.570000  0.344000  1
  C  C505  1  0.243000  0.430000  0.656000  1
  N  N506  1  0.478800  0.904200  0.288200  1
  N  N507  1  0.521200  0.095800  0.711800  1
  N  N508  1  0.498900  0.880200  0.349400  1
  N  N509  1  0.501100  0.119800  0.650600  1
  N  N510  1  0.831900  0.523900  0.894000  1
  N  N511  1  0.168100  0.476100  0.106000  1
  N  N512  1  0.906900  0.515300  0.889500  1
  N  N513  1  0.093100  0.484700  0.110500  1
  N  N514  1  0.588900  0.110200  0.094900  1
  N  N515  1  0.411100  0.889800  0.905100  1
  N  N516  1  0.661400  0.093600  0.087100  1
  N  N517  1  0.338600  0.906400  0.912900  1
  N  N518  1  0.065700  0.081300  0.739700  1
  N  N519  1  0.934300  0.918700  0.260300  1
  N  N520  1  0.066200  0.155600  0.784800  1
  N  N521  1  0.933800  0.844400  0.215200  1
  N  N522  1  0.396700  0.355400  0.282000  1
  N  N523  1  0.603300  0.644600  0.718000  1
  N  N524  1  0.431100  0.428300  0.299400  1
  N  N525  1  0.568900  0.571700  0.700600  1
  N  N526  1  0.104800  0.194500  0.496600  1
  N  N527  1  0.895200  0.805500  0.503400  1
  N  N528  1  0.115800  0.214600  0.573600  1
  N  N529  1  0.884200  0.785400  0.426400  1
  N  N530  1  0.316800  0.128400  0.376500  1
  N  N531  1  0.683200  0.871600  0.623500  1
  N  N532  1  0.297700  0.179800  0.432100  1
  N  N533  1  0.702300  0.820200  0.567900  1
  N  N534  1  0.959800  0.618100  0.657100  1
  N  N535  1  0.040200  0.381900  0.342900  1
  N  N536  1  0.012700  0.578900  0.695900  1
  N  N537  1  0.987300  0.421100  0.304100  1
  N  N538  1  0.247800  0.048000  0.110600  1
  N  N539  1  0.752200  0.952000  0.889400  1
  N  N540  1  0.220100  0.456300  0.903400  1
  N  N541  1  0.779900  0.543700  0.096600  1
  N  N542  1  0.503600  0.363600  0.051400  1
  N  N543  1  0.496400  0.636400  0.948600  1
  N  N544  1  0.227300  0.410800  0.899600  1
  N  N545  1  0.772700  0.589200  0.100400  1
  O  O546  1  0.506000  0.013800  0.270400  1
  O  O547  1  0.494000  0.986200  0.729600  1
  O  O548  1  0.597400  0.130300  0.421900  1
  O  O549  1  0.402600  0.869700  0.578100  1
  O  O550  1  0.835000  0.301200  0.711900  1
  O  O551  1  0.165000  0.698800  0.288100  1
  O  O552  1  0.959600  0.427000  0.815800  1
  O  O553  1  0.040400  0.573000  0.184200  1
  O  O554  1  0.535000  0.122400  0.183200  1
  O  O555  1  0.465000  0.877600  0.816800  1
  O  O556  1  0.659100  0.109900  0.315400  1
  O  O557  1  0.340900  0.890100  0.684600  1
  O  O558  1  0.891000  0.207700  0.606600  1
  O  O559  1  0.109000  0.792300  0.393400  1
  O  O560  1  0.001300  0.256400  0.765400  1
  O  O561  1  0.998700  0.743600  0.234600  1
  O  O562  1  0.435400  0.235900  0.265600  1
  O  O563  1  0.564600  0.764100  0.734400  1
  O  O564  1  0.610600  0.260500  0.322100  1
  O  O565  1  0.389400  0.739500  0.677900  1
  O  O566  1  0.916700  0.325400  0.559800  1
  O  O567  1  0.083300  0.674600  0.440200  1
  O  O568  1  0.055400  0.281900  0.652500  1
  O  O569  1  0.944600  0.718100  0.347500  1
  O  O570  1  0.418000  0.118500  0.333100  1
  O  O571  1  0.582000  0.881500  0.666900  1
  O  O572  1  0.530800  0.257900  0.419500  1
  O  O573  1  0.469200  0.742100  0.580500  1
  O  O574  1  0.837700  0.400700  0.645000  1
  O  O575  1  0.162300  0.599300  0.355000  1
  O  O576  1  0.006000  0.463800  0.709600  1
  O  O577  1  0.994000  0.536200  0.290400  1
  O  O578  1  0.388600  0.078600  0.177900  1
  O  O579  1  0.611400  0.921400  0.822100  1
  O  O580  1  0.102400  0.389900  0.799700  1
  O  O581  1  0.897600  0.610100  0.200300  1
  O  O582  1  0.975200  0.106800  0.067000  1
  O  O583  1  0.024800  0.893200  0.933000  1
  O  O584  1  0.576500  0.435900  0.034600  1
  O  O585  1  0.423500  0.564100  0.965400  1
  O  O586  1  0.667900  0.593100  0.280600  1
  O  O587  1  0.332100  0.406900  0.719400  1
  O  O588  1  0.878900  0.530100  0.424900  1
  O  O589  1  0.121100  0.469900  0.575100  1
