# generated using pymatgen
data_Cu2P3H28C36N7(Cl8O3)2
_symmetry_space_group_name_H-M   'P 1'
_cell_length_a   13.01500000
_cell_length_b   13.72300000
_cell_length_c   15.69100000
_cell_angle_alpha   79.25000000
_cell_angle_beta   77.26200000
_cell_angle_gamma   81.25600000
_symmetry_Int_Tables_number   1
_chemical_formula_structural   Cu2P3H28C36N7(Cl8O3)2
_chemical_formula_sum   'Cu4 P6 H56 C72 N14 Cl32 O12'
_cell_volume   2667.50082083
_cell_formula_units_Z   2
loop_
 _symmetry_equiv_pos_site_id
 _symmetry_equiv_pos_as_xyz
  1  'x, y, z'
loop_
 _atom_site_type_symbol
 _atom_site_label
 _atom_site_symmetry_multiplicity
 _atom_site_fract_x
 _atom_site_fract_y
 _atom_site_fract_z
 _atom_site_occupancy
  Cu  Cu1  1  0.998240  0.790240  0.861660  1.0
  Cu  Cu2  1  0.001760  0.209760  0.138340  1.0
  Cu  Cu3  1  0.802030  0.824430  0.040670  1.0
  Cu  Cu4  1  0.197970  0.175570  0.959330  1.0
  P  P5  1  0.713720  0.362260  0.710620  1.0
  P  P6  1  0.286280  0.637740  0.289380  1.0
  P  P7  1  0.859470  0.195460  0.716560  1.0
  P  P8  1  0.140530  0.804540  0.283440  1.0
  P  P9  1  0.696170  0.217270  0.858730  1.0
  P  P10  1  0.303830  0.782730  0.141270  1.0
  H  H11  1  0.632100  0.903100  0.299200  1
  H  H12  1  0.367900  0.096900  0.700800  1
  H  H13  1  0.518600  0.556000  0.199300  1
  H  H14  1  0.481400  0.444000  0.800700  1
  H  H15  1  0.043700  0.329700  0.355000  1
  H  H16  1  0.956300  0.670300  0.645000  1
  H  H17  1  0.860400  0.155300  0.351600  1
  H  H18  1  0.139600  0.844700  0.648400  1
  H  H19  1  0.960300  0.994900  0.763600  1.0
  H  H20  1  0.039700  0.005100  0.236400  1.0
  H  H21  1  0.832300  0.748900  0.773100  1.0
  H  H22  1  0.167700  0.251100  0.226900  1.0
  H  H23  1  0.718700  0.832600  0.680900  1.0
  H  H24  1  0.281300  0.167400  0.319100  1.0
  H  H25  1  0.730800  0.004000  0.625000  1.0
  H  H26  1  0.269200  0.996000  0.375000  1.0
  H  H27  1  0.836500  0.160400  0.052100  1.0
  H  H28  1  0.163500  0.839600  0.947900  1.0
  H  H29  1  0.951500  0.411300  0.044000  1.0
  H  H30  1  0.048500  0.588700  0.956000  1.0
  H  H31  1  0.835900  0.498700  0.956000  1.0
  H  H32  1  0.164100  0.501300  0.044000  1.0
  H  H33  1  0.057300  0.131600  0.848700  1.0
  H  H34  1  0.942700  0.868400  0.151300  1.0
  H  H35  1  0.147400  0.387300  0.871500  1.0
  H  H36  1  0.852600  0.612700  0.128500  1.0
  H  H37  1  0.083800  0.466400  0.747200  1.0
  H  H38  1  0.916200  0.533600  0.252800  1.0
  H  H39  1  0.716900  0.414900  0.915300  1.0
  H  H40  1  0.283100  0.585100  0.084700  1.0
  H  H41  1  0.746000  0.027600  0.949900  1.0
  H  H42  1  0.254000  0.972400  0.050100  1.0
  H  H43  1  0.623200  0.774800  0.968500  1.0
  H  H44  1  0.376800  0.225200  0.031500  1.0
  H  H45  1  0.484200  0.861800  0.903300  1.0
  H  H46  1  0.515800  0.138200  0.096700  1.0
  H  H47  1  0.480600  0.033500  0.854900  1.0
  H  H48  1  0.519400  0.966500  0.145100  1.0
  H  H49  1  0.683600  0.574800  0.828700  1.0
  H  H50  1  0.316400  0.425200  0.171300  1.0
  H  H51  1  0.545900  0.707200  0.845400  1.0
  H  H52  1  0.454100  0.292800  0.154600  1.0
  H  H53  1  0.450400  0.766700  0.732600  1.0
  H  H54  1  0.549600  0.233300  0.267400  1.0
  H  H55  1  0.488600  0.694900  0.606500  1.0
  H  H56  1  0.511400  0.305100  0.393500  1.0
  H  H57  1  0.623400  0.662200  0.469400  1.0
  H  H58  1  0.376600  0.337800  0.530600  1.0
  H  H59  1  0.664900  0.585100  0.345300  1.0
  H  H60  1  0.335100  0.414900  0.654700  1.0
  H  H61  1  0.694900  0.411200  0.360700  1.0
  H  H62  1  0.305100  0.588800  0.639300  1.0
  H  H63  1  0.676700  0.313700  0.503300  1.0
  H  H64  1  0.323300  0.686300  0.496700  1.0
  H  H65  1  0.006900  0.377200  0.668400  1.0
  H  H66  1  0.993100  0.622800  0.331600  1.0
  C  C67  1  0.571400  0.905800  0.350800  1
  C  C68  1  0.428600  0.094200  0.649200  1
  C  C69  1  0.584300  0.571600  0.154900  1
  C  C70  1  0.415700  0.428400  0.845100  1
  C  C71  1  0.028300  0.325200  0.420800  1
  C  C72  1  0.971700  0.674800  0.579200  1
  C  C73  1  0.816300  0.098400  0.368600  1
  C  C74  1  0.183700  0.901600  0.631400  1
  C  C75  1  0.845300  0.014400  0.690900  1.0
  C  C76  1  0.154700  0.985600  0.309100  1.0
  C  C77  1  0.910500  0.961900  0.746900  1.0
  C  C78  1  0.089500  0.038100  0.253100  1.0
  C  C79  1  0.835200  0.818200  0.752300  1.0
  C  C80  1  0.164800  0.181800  0.247700  1.0
  C  C81  1  0.767900  0.867100  0.696700  1.0
  C  C82  1  0.232100  0.132900  0.303300  1.0
  C  C83  1  0.774400  0.968100  0.664400  1.0
  C  C84  1  0.225600  0.031900  0.335600  1.0
  C  C85  1  0.836400  0.230200  0.032700  1.0
  C  C86  1  0.163600  0.769800  0.967300  1.0
  C  C87  1  0.902700  0.376500  0.027900  1.0
  C  C88  1  0.097300  0.623500  0.972100  1.0
  C  C89  1  0.834500  0.429000  0.975200  1.0
  C  C90  1  0.165500  0.571000  0.024800  1.0
  C  C91  1  0.766100  0.278800  0.979300  1.0
  C  C92  1  0.233900  0.721200  0.020700  1.0
  C  C93  1  0.063800  0.200300  0.827300  1.0
  C  C94  1  0.936200  0.799700  0.172700  1.0
  C  C95  1  0.116400  0.349900  0.840600  1.0
  C  C96  1  0.883600  0.650100  0.159400  1.0
  C  C97  1  0.078300  0.397200  0.766600  1.0
  C  C98  1  0.921700  0.602800  0.233400  1.0
  C  C99  1  0.765200  0.380000  0.951000  1.0
  C  C100  1  0.234800  0.620000  0.049000  1.0
  C  C101  1  0.612600  0.045200  0.899300  1.0
  C  C102  1  0.387400  0.954800  0.100700  1.0
  C  C103  1  0.692600  0.993300  0.940200  1.0
  C  C104  1  0.307400  0.006700  0.059800  1.0
  C  C105  1  0.620200  0.845200  0.951500  1.0
  C  C106  1  0.379800  0.154800  0.048500  1.0
  C  C107  1  0.538100  0.896700  0.911500  1.0
  C  C108  1  0.461900  0.103300  0.088500  1.0
  C  C109  1  0.535000  0.997600  0.883800  1.0
  C  C110  1  0.465000  0.002400  0.116200  1.0
  C  C111  1  0.658400  0.552100  0.711000  1.0
  C  C112  1  0.341600  0.447900  0.289000  1.0
  C  C113  1  0.641700  0.597200  0.784800  1.0
  C  C114  1  0.358300  0.402800  0.215200  1.0
  C  C115  1  0.561500  0.677000  0.793500  1.0
  C  C116  1  0.438500  0.323000  0.206500  1.0
  C  C117  1  0.504500  0.712200  0.726600  1.0
  C  C118  1  0.495500  0.287800  0.273400  1.0
  C  C119  1  0.526400  0.668500  0.652600  1.0
  C  C120  1  0.473600  0.331500  0.347400  1.0
  C  C121  1  0.603300  0.585400  0.642300  1.0
  C  C122  1  0.396700  0.414600  0.357700  1.0
  C  C123  1  0.625900  0.536700  0.562000  1.0
  C  C124  1  0.374100  0.463300  0.438000  1.0
  C  C125  1  0.634800  0.591400  0.476400  1.0
  C  C126  1  0.365200  0.408600  0.523600  1.0
  C  C127  1  0.659500  0.546000  0.402500  1.0
  C  C128  1  0.340500  0.454000  0.597500  1.0
  C  C129  1  0.676400  0.442800  0.411900  1.0
  C  C130  1  0.323600  0.557200  0.588100  1.0
  C  C131  1  0.666667  0.384600  0.496100  1.0
  C  C132  1  0.333333  0.615400  0.503900  1.0
  C  C133  1  0.641800  0.434300  0.568400  1.0
  C  C134  1  0.358200  0.565700  0.431600  1.0
  C  C135  1  0.025300  0.245200  0.753200  1.0
  C  C136  1  0.974700  0.754800  0.246800  1.0
  C  C137  1  0.032400  0.345600  0.720200  1.0
  C  C138  1  0.967600  0.654400  0.279800  1.0
  N  N139  1  0.818100  0.301200  0.669000  1.0
  N  N140  1  0.181900  0.698800  0.331000  1.0
  N  N141  1  0.805500  0.162900  0.816900  1.0
  N  N142  1  0.194500  0.837100  0.183100  1.0
  N  N143  1  0.657300  0.322200  0.808000  1.0
  N  N144  1  0.342700  0.677800  0.192000  1.0
  N  N145  1  0.903600  0.863800  0.778000  1.0
  N  N146  1  0.096400  0.136200  0.222000  1.0
  N  N147  1  0.903000  0.277800  0.057500  1.0
  N  N148  1  0.097000  0.722200  0.942500  1.0
  N  N149  1  0.110900  0.251700  0.870600  1.0
  N  N150  1  0.889100  0.748300  0.129400  1.0
  N  N151  1  0.694900  0.893300  0.966300  1.0
  N  N152  1  0.305100  0.106700  0.033700  1.0
  Cl  Cl153  1  0.622300  0.877800  0.448400  1
  Cl  Cl154  1  0.377700  0.122200  0.551600  1
  Cl  Cl155  1  0.502560  0.025940  0.340630  1
  Cl  Cl156  1  0.497440  0.974060  0.659370  1
  Cl  Cl157  1  0.488420  0.815800  0.349470  1
  Cl  Cl158  1  0.511580  0.184200  0.650530  1
  Cl  Cl159  1  0.613460  0.687930  0.166110  1
  Cl  Cl160  1  0.386540  0.312070  0.833890  1
  Cl  Cl161  1  0.559170  0.572640  0.047780  1
  Cl  Cl162  1  0.440830  0.427360  0.952220  1
  Cl  Cl163  1  0.687260  0.476360  0.176700  1
  Cl  Cl164  1  0.312740  0.523640  0.823300  1
  Cl  Cl165  1  0.148590  0.328660  0.455800  1
  Cl  Cl166  1  0.851410  0.671340  0.544200  1
  Cl  Cl167  1  0.936590  0.426330  0.449340  1
  Cl  Cl168  1  0.063410  0.573670  0.550660  1
  Cl  Cl169  1  0.978260  0.211310  0.468290  1
  Cl  Cl170  1  0.021740  0.788690  0.531710  1
  Cl  Cl171  1  0.692890  0.138230  0.432510  1
  Cl  Cl172  1  0.307110  0.861770  0.567490  1
  Cl  Cl173  1  0.799340  0.061350  0.271510  1
  Cl  Cl174  1  0.200660  0.938650  0.728490  1
  Cl  Cl175  1  0.882830  0.998790  0.431910  1
  Cl  Cl176  1  0.117170  0.001210  0.568090  1
  Cl  Cl177  1  0.074710  0.684590  0.763180  1.0
  Cl  Cl178  1  0.925290  0.315410  0.236820  1.0
  Cl  Cl179  1  0.955360  0.919120  0.942880  1.0
  Cl  Cl180  1  0.044640  0.080880  0.057120  1.0
  Cl  Cl181  1  0.837800  0.693980  0.959770  1.0
  Cl  Cl182  1  0.162200  0.306020  0.040230  1.0
  Cl  Cl183  1  0.728130  0.931180  0.139510  1.0
  Cl  Cl184  1  0.271870  0.068820  0.860490  1.0
  O  O185  1  0.741900  0.472500  0.702800  1.0
  O  O186  1  0.258100  0.527500  0.297200  1.0
  O  O187  1  0.624900  0.376300  0.653300  1.0
  O  O188  1  0.375100  0.623700  0.346700  1.0
  O  O189  1  0.851500  0.114500  0.657900  1.0
  O  O190  1  0.148500  0.885500  0.342100  1.0
  O  O191  1  0.984300  0.185600  0.708600  1.0
  O  O192  1  0.015700  0.814400  0.291400  1.0
  O  O193  1  0.695600  0.223800  0.959300  1.0
  O  O194  1  0.304400  0.776200  0.040700  1.0
  O  O195  1  0.604800  0.149200  0.873900  1.0
  O  O196  1  0.395200  0.850800  0.126100  1.0
