# generated using pymatgen
data_FeH33C34N9O
_symmetry_space_group_name_H-M   'P 1'
_cell_length_a   22.84167035
_cell_length_b   22.84167035
_cell_length_c   22.84167035
_cell_angle_alpha   60.00000000
_cell_angle_beta   60.00000000
_cell_angle_gamma   60.00000000
_symmetry_Int_Tables_number   1
_chemical_formula_structural   FeH33C34N9O
_chemical_formula_sum   'Fe8 H264 C272 N72 O8'
_cell_volume   8426.91437053
_cell_formula_units_Z   8
loop_
 _symmetry_equiv_pos_site_id
 _symmetry_equiv_pos_as_xyz
  1  'x, y, z'
loop_
 _atom_site_type_symbol
 _atom_site_label
 _atom_site_symmetry_multiplicity
 _atom_site_fract_x
 _atom_site_fract_y
 _atom_site_fract_z
 _atom_site_occupancy
  C  C1  1  0.163500  0.163500  0.163500  1.0
  C  C2  1  0.509500  0.163500  0.163500  1.0
  C  C3  1  0.163500  0.509500  0.163500  1.0
  C  C4  1  0.163500  0.163500  0.509500  1.0
  C  C5  1  0.663500  0.663500  0.663500  1.0
  C  C6  1  0.009500  0.663500  0.663500  1.0
  C  C7  1  0.663500  0.663500  0.009500  1.0
  C  C8  1  0.663500  0.009500  0.663500  1.0
  C  C9  1  0.486350  0.254550  0.829850  1.0
  C  C10  1  0.429250  0.829850  0.254550  1.0
  C  C11  1  0.829850  0.429250  0.486350  1.0
  C  C12  1  0.254550  0.486350  0.429250  1.0
  C  C13  1  0.254550  0.829850  0.486350  1.0
  C  C14  1  0.829850  0.254550  0.429250  1.0
  C  C15  1  0.429250  0.486350  0.829850  1.0
  C  C16  1  0.486350  0.429250  0.254550  1.0
  C  C17  1  0.829850  0.486350  0.254550  1.0
  C  C18  1  0.254550  0.429250  0.829850  1.0
  C  C19  1  0.486350  0.829850  0.429250  1.0
  C  C20  1  0.429250  0.254550  0.486350  1.0
  C  C21  1  0.986350  0.329850  0.754550  1.0
  C  C22  1  0.929250  0.754550  0.329850  1.0
  C  C23  1  0.329850  0.986350  0.929250  1.0
  C  C24  1  0.754550  0.929250  0.986350  1.0
  C  C25  1  0.754550  0.986350  0.329850  1.0
  C  C26  1  0.329850  0.929250  0.754550  1.0
  C  C27  1  0.929250  0.329850  0.986350  1.0
  C  C28  1  0.986350  0.754550  0.929250  1.0
  C  C29  1  0.329850  0.754550  0.986350  1.0
  C  C30  1  0.754550  0.329850  0.929250  1.0
  C  C31  1  0.986350  0.929250  0.329850  1.0
  C  C32  1  0.929250  0.986350  0.754550  1.0
  C  C33  1  0.530930  0.345930  0.743870  1.0
  C  C34  1  0.379270  0.743870  0.345930  1.0
  C  C35  1  0.743870  0.379270  0.530930  1.0
  C  C36  1  0.345930  0.530930  0.379270  1.0
  C  C37  1  0.345930  0.743870  0.530930  1.0
  C  C38  1  0.743870  0.345930  0.379270  1.0
  C  C39  1  0.379270  0.530930  0.743870  1.0
  C  C40  1  0.530930  0.379270  0.345930  1.0
  C  C41  1  0.743870  0.530930  0.345930  1.0
  C  C42  1  0.345930  0.379270  0.743870  1.0
  C  C43  1  0.530930  0.743870  0.379270  1.0
  C  C44  1  0.379270  0.345930  0.530930  1.0
  C  C45  1  0.030930  0.243870  0.845930  1.0
  C  C46  1  0.879270  0.845930  0.243870  1.0
  C  C47  1  0.243870  0.030930  0.879270  1.0
  C  C48  1  0.845930  0.879270  0.030930  1.0
  C  C49  1  0.845930  0.030930  0.243870  1.0
  C  C50  1  0.243870  0.879270  0.845930  1.0
  C  C51  1  0.879270  0.243870  0.030930  1.0
  C  C52  1  0.030930  0.845930  0.879270  1.0
  C  C53  1  0.243870  0.845930  0.030930  1.0
  C  C54  1  0.845930  0.243870  0.879270  1.0
  C  C55  1  0.030930  0.879270  0.243870  1.0
  C  C56  1  0.879270  0.030930  0.845930  1.0
  C  C57  1  0.581500  0.281300  0.730100  1.0
  C  C58  1  0.407100  0.730100  0.281300  1.0
  C  C59  1  0.730100  0.407100  0.581500  1.0
  C  C60  1  0.281300  0.581500  0.407100  1.0
  C  C61  1  0.281300  0.730100  0.581500  1.0
  C  C62  1  0.730100  0.281300  0.407100  1.0
  C  C63  1  0.407100  0.581500  0.730100  1.0
  C  C64  1  0.581500  0.407100  0.281300  1.0
  C  C65  1  0.730100  0.581500  0.281300  1.0
  C  C66  1  0.281300  0.407100  0.730100  1.0
  C  C67  1  0.581500  0.730100  0.407100  1.0
  C  C68  1  0.407100  0.281300  0.581500  1.0
  C  C69  1  0.081500  0.230100  0.781300  1.0
  C  C70  1  0.907100  0.781300  0.230100  1.0
  C  C71  1  0.230100  0.081500  0.907100  1.0
  C  C72  1  0.781300  0.907100  0.081500  1.0
  C  C73  1  0.781300  0.081500  0.230100  1.0
  C  C74  1  0.230100  0.907100  0.781300  1.0
  C  C75  1  0.907100  0.230100  0.081500  1.0
  C  C76  1  0.081500  0.781300  0.907100  1.0
  C  C77  1  0.230100  0.781300  0.081500  1.0
  C  C78  1  0.781300  0.230100  0.907100  1.0
  C  C79  1  0.081500  0.907100  0.230100  1.0
  C  C80  1  0.907100  0.081500  0.781300  1.0
  C  C81  1  0.598500  0.149300  0.788100  1.0
  C  C82  1  0.464100  0.788100  0.149300  1.0
  C  C83  1  0.788100  0.464100  0.598500  1.0
  C  C84  1  0.149300  0.598500  0.464100  1.0
  C  C85  1  0.149300  0.788100  0.598500  1.0
  C  C86  1  0.788100  0.149300  0.464100  1.0
  C  C87  1  0.464100  0.598500  0.788100  1.0
  C  C88  1  0.598500  0.464100  0.149300  1.0
  C  C89  1  0.788100  0.598500  0.149300  1.0
  C  C90  1  0.149300  0.464100  0.788100  1.0
  C  C91  1  0.598500  0.788100  0.464100  1.0
  C  C92  1  0.464100  0.149300  0.598500  1.0
  C  C93  1  0.098500  0.288100  0.649300  1.0
  C  C94  1  0.964100  0.649300  0.288100  1.0
  C  C95  1  0.288100  0.098500  0.964100  1.0
  C  C96  1  0.649300  0.964100  0.098500  1.0
  C  C97  1  0.649300  0.098500  0.288100  1.0
  C  C98  1  0.288100  0.964100  0.649300  1.0
  C  C99  1  0.964100  0.288100  0.098500  1.0
  C  C100  1  0.098500  0.649300  0.964100  1.0
  C  C101  1  0.288100  0.649300  0.098500  1.0
  C  C102  1  0.649300  0.288100  0.964100  1.0
  C  C103  1  0.098500  0.964100  0.288100  1.0
  C  C104  1  0.964100  0.098500  0.649300  1.0
  C  C105  1  0.437600  0.226400  0.891400  1.0
  C  C106  1  0.444600  0.891400  0.226400  1.0
  C  C107  1  0.891400  0.444600  0.437600  1.0
  C  C108  1  0.226400  0.437600  0.444600  1.0
  C  C109  1  0.226400  0.891400  0.437600  1.0
  C  C110  1  0.891400  0.226400  0.444600  1.0
  C  C111  1  0.444600  0.437600  0.891400  1.0
  C  C112  1  0.437600  0.444600  0.226400  1.0
  C  C113  1  0.891400  0.437600  0.226400  1.0
  C  C114  1  0.226400  0.444600  0.891400  1.0
  C  C115  1  0.437600  0.891400  0.444600  1.0
  C  C116  1  0.444600  0.226400  0.437600  1.0
  C  C117  1  0.937600  0.391400  0.726400  1.0
  C  C118  1  0.944600  0.726400  0.391400  1.0
  C  C119  1  0.391400  0.937600  0.944600  1.0
  C  C120  1  0.726400  0.944600  0.937600  1.0
  C  C121  1  0.726400  0.937600  0.391400  1.0
  C  C122  1  0.391400  0.944600  0.726400  1.0
  C  C123  1  0.944600  0.391400  0.937600  1.0
  C  C124  1  0.937600  0.726400  0.944600  1.0
  C  C125  1  0.391400  0.726400  0.937600  1.0
  C  C126  1  0.726400  0.391400  0.944600  1.0
  C  C127  1  0.937600  0.944600  0.391400  1.0
  C  C128  1  0.944600  0.937600  0.726400  1.0
  C  C129  1  0.326940  0.247740  0.979860  1.0
  C  C130  1  0.445460  0.979860  0.247740  1.0
  C  C131  1  0.979860  0.445460  0.326940  1.0
  C  C132  1  0.247740  0.326940  0.445460  1.0
  C  C133  1  0.247740  0.979860  0.326940  1.0
  C  C134  1  0.979860  0.247740  0.445460  1.0
  C  C135  1  0.445460  0.326940  0.979860  1.0
  C  C136  1  0.326940  0.445460  0.247740  1.0
  C  C137  1  0.979860  0.326940  0.247740  1.0
  C  C138  1  0.247740  0.445460  0.979860  1.0
  C  C139  1  0.326940  0.979860  0.445460  1.0
  C  C140  1  0.445460  0.247740  0.326940  1.0
  C  C141  1  0.826940  0.479860  0.747740  1.0
  C  C142  1  0.945460  0.747740  0.479860  1.0
  C  C143  1  0.479860  0.826940  0.945460  1.0
  C  C144  1  0.747740  0.945460  0.826940  1.0
  C  C145  1  0.747740  0.826940  0.479860  1.0
  C  C146  1  0.479860  0.945460  0.747740  1.0
  C  C147  1  0.945460  0.479860  0.826940  1.0
  C  C148  1  0.826940  0.747740  0.945460  1.0
  C  C149  1  0.479860  0.747740  0.826940  1.0
  C  C150  1  0.747740  0.479860  0.945460  1.0
  C  C151  1  0.826940  0.945460  0.479860  1.0
  C  C152  1  0.945460  0.826940  0.747740  1.0
  C  C153  1  0.264170  0.260290  0.972910  1.0
  C  C154  1  0.502630  0.972910  0.260290  1.0
  C  C155  1  0.972910  0.502630  0.264170  1.0
  C  C156  1  0.260290  0.264170  0.502630  1.0
  C  C157  1  0.260290  0.972910  0.264170  1.0
  C  C158  1  0.972910  0.260290  0.502630  1.0
  C  C159  1  0.502630  0.264170  0.972910  1.0
  C  C160  1  0.264170  0.502630  0.260290  1.0
  C  C161  1  0.972910  0.264170  0.260290  1.0
  C  C162  1  0.260290  0.502630  0.972910  1.0
  C  C163  1  0.264170  0.972910  0.502630  1.0
  C  C164  1  0.502630  0.260290  0.264170  1.0
  C  C165  1  0.764170  0.472910  0.760290  1.0
  C  C166  1  0.002630  0.760290  0.472910  1.0
  C  C167  1  0.472910  0.764170  0.002630  1.0
  C  C168  1  0.760290  0.002630  0.764170  1.0
  C  C169  1  0.760290  0.764170  0.472910  1.0
  C  C170  1  0.472910  0.002630  0.760290  1.0
  C  C171  1  0.002630  0.472910  0.764170  1.0
  C  C172  1  0.764170  0.760290  0.002630  1.0
  C  C173  1  0.472910  0.760290  0.764170  1.0
  C  C174  1  0.760290  0.472910  0.002630  1.0
  C  C175  1  0.764170  0.002630  0.472910  1.0
  C  C176  1  0.002630  0.764170  0.760290  1.0
  C  C177  1  0.211580  0.233480  0.032120  1.0
  C  C178  1  0.522820  0.032120  0.233480  1.0
  C  C179  1  0.032120  0.522820  0.211580  1.0
  C  C180  1  0.233480  0.211580  0.522820  1.0
  C  C181  1  0.233480  0.032120  0.211580  1.0
  C  C182  1  0.032120  0.233480  0.522820  1.0
  C  C183  1  0.522820  0.211580  0.032120  1.0
  C  C184  1  0.211580  0.522820  0.233480  1.0
  C  C185  1  0.032120  0.211580  0.233480  1.0
  C  C186  1  0.233480  0.522820  0.032120  1.0
  C  C187  1  0.211580  0.032120  0.522820  1.0
  C  C188  1  0.522820  0.233480  0.211580  1.0
  C  C189  1  0.711580  0.532120  0.733480  1.0
  C  C190  1  0.022820  0.733480  0.532120  1.0
  C  C191  1  0.532120  0.711580  0.022820  1.0
  C  C192  1  0.733480  0.022820  0.711580  1.0
  C  C193  1  0.733480  0.711580  0.532120  1.0
  C  C194  1  0.532120  0.022820  0.733480  1.0
  C  C195  1  0.022820  0.532120  0.711580  1.0
  C  C196  1  0.711580  0.733480  0.022820  1.0
  C  C197  1  0.532120  0.733480  0.711580  1.0
  C  C198  1  0.733480  0.532120  0.022820  1.0
  C  C199  1  0.711580  0.022820  0.532120  1.0
  C  C200  1  0.022820  0.711580  0.733480  1.0
  C  C201  1  0.221520  0.194340  0.098460  1.0
  C  C202  1  0.485680  0.098460  0.194340  1.0
  C  C203  1  0.098460  0.485680  0.221520  1.0
  C  C204  1  0.194340  0.221520  0.485680  1.0
  C  C205  1  0.194340  0.098460  0.221520  1.0
  C  C206  1  0.098460  0.194340  0.485680  1.0
  C  C207  1  0.485680  0.221520  0.098460  1.0
  C  C208  1  0.221520  0.485680  0.194340  1.0
  C  C209  1  0.098460  0.221520  0.194340  1.0
  C  C210  1  0.194340  0.485680  0.098460  1.0
  C  C211  1  0.221520  0.098460  0.485680  1.0
  C  C212  1  0.485680  0.194340  0.221520  1.0
  C  C213  1  0.721520  0.598460  0.694340  1.0
  C  C214  1  0.985680  0.694340  0.598460  1.0
  C  C215  1  0.598460  0.721520  0.985680  1.0
  C  C216  1  0.694340  0.985680  0.721520  1.0
  C  C217  1  0.694340  0.721520  0.598460  1.0
  C  C218  1  0.598460  0.985680  0.694340  1.0
  C  C219  1  0.985680  0.598460  0.721520  1.0
  C  C220  1  0.721520  0.694340  0.985680  1.0
  C  C221  1  0.598460  0.694340  0.721520  1.0
  C  C222  1  0.694340  0.598460  0.985680  1.0
  C  C223  1  0.721520  0.985680  0.598460  1.0
  C  C224  1  0.985680  0.721520  0.694340  1.0
  C  C225  1  0.284230  0.181770  0.105430  1.0
  C  C226  1  0.428570  0.105430  0.181770  1.0
  C  C227  1  0.105430  0.428570  0.284230  1.0
  C  C228  1  0.181770  0.284230  0.428570  1.0
  C  C229  1  0.181770  0.105430  0.284230  1.0
  C  C230  1  0.105430  0.181770  0.428570  1.0
  C  C231  1  0.428570  0.284230  0.105430  1.0
  C  C232  1  0.284230  0.428570  0.181770  1.0
  C  C233  1  0.105430  0.284230  0.181770  1.0
  C  C234  1  0.181770  0.428570  0.105430  1.0
  C  C235  1  0.284230  0.105430  0.428570  1.0
  C  C236  1  0.428570  0.181770  0.284230  1.0
  C  C237  1  0.784230  0.605430  0.681770  1.0
  C  C238  1  0.928570  0.681770  0.605430  1.0
  C  C239  1  0.605430  0.784230  0.928570  1.0
  C  C240  1  0.681770  0.928570  0.784230  1.0
  C  C241  1  0.681770  0.784230  0.605430  1.0
  C  C242  1  0.605430  0.928570  0.681770  1.0
  C  C243  1  0.928570  0.605430  0.784230  1.0
  C  C244  1  0.784230  0.681770  0.928570  1.0
  C  C245  1  0.605430  0.681770  0.784230  1.0
  C  C246  1  0.681770  0.605430  0.928570  1.0
  C  C247  1  0.784230  0.928570  0.605430  1.0
  C  C248  1  0.928570  0.784230  0.681770  1.0
  C  C249  1  0.336830  0.208570  0.046230  1.0
  C  C250  1  0.408370  0.046230  0.208570  1.0
  C  C251  1  0.046230  0.408370  0.336830  1.0
  C  C252  1  0.208570  0.336830  0.408370  1.0
  C  C253  1  0.208570  0.046230  0.336830  1.0
  C  C254  1  0.046230  0.208570  0.408370  1.0
  C  C255  1  0.408370  0.336830  0.046230  1.0
  C  C256  1  0.336830  0.408370  0.208570  1.0
  C  C257  1  0.046230  0.336830  0.208570  1.0
  C  C258  1  0.208570  0.408370  0.046230  1.0
  C  C259  1  0.336830  0.046230  0.408370  1.0
  C  C260  1  0.408370  0.208570  0.336830  1.0
  C  C261  1  0.836830  0.546230  0.708570  1.0
  C  C262  1  0.908370  0.708570  0.546230  1.0
  C  C263  1  0.546230  0.836830  0.908370  1.0
  C  C264  1  0.708570  0.908370  0.836830  1.0
  C  C265  1  0.708570  0.836830  0.546230  1.0
  C  C266  1  0.546230  0.908370  0.708570  1.0
  C  C267  1  0.908370  0.546230  0.836830  1.0
  C  C268  1  0.836830  0.708570  0.908370  1.0
  C  C269  1  0.546230  0.708570  0.836830  1.0
  C  C270  1  0.708570  0.546230  0.908370  1.0
  C  C271  1  0.836830  0.908370  0.546230  1.0
  C  C272  1  0.908370  0.836830  0.708570  1.0
  Fe  Fe273  1  0.379650  0.379650  0.861050  1.0
  Fe  Fe274  1  0.379650  0.861050  0.379650  1.0
  Fe  Fe275  1  0.861050  0.379650  0.379650  1.0
  Fe  Fe276  1  0.379650  0.379650  0.379650  1.0
  Fe  Fe277  1  0.879650  0.361050  0.879650  1.0
  Fe  Fe278  1  0.879650  0.879650  0.361050  1.0
  Fe  Fe279  1  0.361050  0.879650  0.879650  1.0
  Fe  Fe280  1  0.879650  0.879650  0.879650  1.0
  H  H281  1  0.111600  0.112600  0.173400  1
  H  H282  1  0.602400  0.173400  0.112600  1
  H  H283  1  0.173400  0.602400  0.111600  1
  H  H284  1  0.112600  0.111600  0.602400  1
  H  H285  1  0.112600  0.173400  0.111600  1
  H  H286  1  0.173400  0.112600  0.602400  1
  H  H287  1  0.602400  0.111600  0.173400  1
  H  H288  1  0.111600  0.602400  0.112600  1
  H  H289  1  0.173400  0.111600  0.112600  1
  H  H290  1  0.112600  0.602400  0.173400  1
  H  H291  1  0.111600  0.173400  0.602400  1
  H  H292  1  0.602400  0.112600  0.111600  1
  H  H293  1  0.611600  0.673400  0.612600  1
  H  H294  1  0.102400  0.612600  0.673400  1
  H  H295  1  0.673400  0.611600  0.102400  1
  H  H296  1  0.612600  0.102400  0.611600  1
  H  H297  1  0.612600  0.611600  0.673400  1
  H  H298  1  0.673400  0.102400  0.612600  1
  H  H299  1  0.102400  0.673400  0.611600  1
  H  H300  1  0.611600  0.612600  0.102400  1
  H  H301  1  0.673400  0.612600  0.611600  1
  H  H302  1  0.612600  0.673400  0.102400  1
  H  H303  1  0.611600  0.102400  0.673400  1
  H  H304  1  0.102400  0.611600  0.612600  1
  H  H305  1  0.535600  0.392200  0.716600  1.0
  H  H306  1  0.355600  0.716600  0.392200  1.0
  H  H307  1  0.716600  0.355600  0.535600  1.0
  H  H308  1  0.392200  0.535600  0.355600  1.0
  H  H309  1  0.392200  0.716600  0.535600  1.0
  H  H310  1  0.716600  0.392200  0.355600  1.0
  H  H311  1  0.355600  0.535600  0.716600  1.0
  H  H312  1  0.535600  0.355600  0.392200  1.0
  H  H313  1  0.716600  0.535600  0.392200  1.0
  H  H314  1  0.392200  0.355600  0.716600  1.0
  H  H315  1  0.535600  0.716600  0.355600  1.0
  H  H316  1  0.355600  0.392200  0.535600  1.0
  H  H317  1  0.035600  0.216600  0.892200  1.0
  H  H318  1  0.855600  0.892200  0.216600  1.0
  H  H319  1  0.216600  0.035600  0.855600  1.0
  H  H320  1  0.892200  0.855600  0.035600  1.0
  H  H321  1  0.892200  0.035600  0.216600  1.0
  H  H322  1  0.216600  0.855600  0.892200  1.0
  H  H323  1  0.855600  0.216600  0.035600  1.0
  H  H324  1  0.035600  0.892200  0.855600  1.0
  H  H325  1  0.216600  0.892200  0.035600  1.0
  H  H326  1  0.892200  0.216600  0.855600  1.0
  H  H327  1  0.035600  0.855600  0.216600  1.0
  H  H328  1  0.855600  0.035600  0.892200  1.0
  H  H329  1  0.626000  0.276600  0.692000  1.0
  H  H330  1  0.405400  0.692000  0.276600  1.0
  H  H331  1  0.692000  0.405400  0.626000  1.0
  H  H332  1  0.276600  0.626000  0.405400  1.0
  H  H333  1  0.276600  0.692000  0.626000  1.0
  H  H334  1  0.692000  0.276600  0.405400  1.0
  H  H335  1  0.405400  0.626000  0.692000  1.0
  H  H336  1  0.626000  0.405400  0.276600  1.0
  H  H337  1  0.692000  0.626000  0.276600  1.0
  H  H338  1  0.276600  0.405400  0.692000  1.0
  H  H339  1  0.626000  0.692000  0.405400  1.0
  H  H340  1  0.405400  0.276600  0.626000  1.0
  H  H341  1  0.126000  0.192000  0.776600  1.0
  H  H342  1  0.905400  0.776600  0.192000  1.0
  H  H343  1  0.192000  0.126000  0.905400  1.0
  H  H344  1  0.776600  0.905400  0.126000  1.0
  H  H345  1  0.776600  0.126000  0.192000  1.0
  H  H346  1  0.192000  0.905400  0.776600  1.0
  H  H347  1  0.905400  0.192000  0.126000  1.0
  H  H348  1  0.126000  0.776600  0.905400  1.0
  H  H349  1  0.192000  0.776600  0.126000  1.0
  H  H350  1  0.776600  0.192000  0.905400  1.0
  H  H351  1  0.126000  0.905400  0.192000  1.0
  H  H352  1  0.905400  0.126000  0.776600  1.0
  H  H353  1  0.647300  0.146900  0.754500  1.0
  H  H354  1  0.451300  0.754500  0.146900  1.0
  H  H355  1  0.754500  0.451300  0.647300  1.0
  H  H356  1  0.146900  0.647300  0.451300  1.0
  H  H357  1  0.146900  0.754500  0.647300  1.0
  H  H358  1  0.754500  0.146900  0.451300  1.0
  H  H359  1  0.451300  0.647300  0.754500  1.0
  H  H360  1  0.647300  0.451300  0.146900  1.0
  H  H361  1  0.754500  0.647300  0.146900  1.0
  H  H362  1  0.146900  0.451300  0.754500  1.0
  H  H363  1  0.647300  0.754500  0.451300  1.0
  H  H364  1  0.451300  0.146900  0.647300  1.0
  H  H365  1  0.147300  0.254500  0.646900  1.0
  H  H366  1  0.951300  0.646900  0.254500  1.0
  H  H367  1  0.254500  0.147300  0.951300  1.0
  H  H368  1  0.646900  0.951300  0.147300  1.0
  H  H369  1  0.646900  0.147300  0.254500  1.0
  H  H370  1  0.254500  0.951300  0.646900  1.0
  H  H371  1  0.951300  0.254500  0.147300  1.0
  H  H372  1  0.147300  0.646900  0.951300  1.0
  H  H373  1  0.254500  0.646900  0.147300  1.0
  H  H374  1  0.646900  0.254500  0.951300  1.0
  H  H375  1  0.147300  0.951300  0.254500  1.0
  H  H376  1  0.951300  0.147300  0.646900  1.0
  H  H377  1  0.577700  0.129900  0.776100  1.0
  H  H378  1  0.516300  0.776100  0.129900  1.0
  H  H379  1  0.776100  0.516300  0.577700  1.0
  H  H380  1  0.129900  0.577700  0.516300  1.0
  H  H381  1  0.129900  0.776100  0.577700  1.0
  H  H382  1  0.776100  0.129900  0.516300  1.0
  H  H383  1  0.516300  0.577700  0.776100  1.0
  H  H384  1  0.577700  0.516300  0.129900  1.0
  H  H385  1  0.776100  0.577700  0.129900  1.0
  H  H386  1  0.129900  0.516300  0.776100  1.0
  H  H387  1  0.577700  0.776100  0.516300  1.0
  H  H388  1  0.516300  0.129900  0.577700  1.0
  H  H389  1  0.077700  0.276100  0.629900  1.0
  H  H390  1  0.016300  0.629900  0.276100  1.0
  H  H391  1  0.276100  0.077700  0.016300  1.0
  H  H392  1  0.629900  0.016300  0.077700  1.0
  H  H393  1  0.629900  0.077700  0.276100  1.0
  H  H394  1  0.276100  0.016300  0.629900  1.0
  H  H395  1  0.016300  0.276100  0.077700  1.0
  H  H396  1  0.077700  0.629900  0.016300  1.0
  H  H397  1  0.276100  0.629900  0.077700  1.0
  H  H398  1  0.629900  0.276100  0.016300  1.0
  H  H399  1  0.077700  0.016300  0.276100  1.0
  H  H400  1  0.016300  0.077700  0.629900  1.0
  H  H401  1  0.599900  0.121100  0.837100  1.0
  H  H402  1  0.441900  0.837100  0.121100  1.0
  H  H403  1  0.837100  0.441900  0.599900  1.0
  H  H404  1  0.121100  0.599900  0.441900  1.0
  H  H405  1  0.121100  0.837100  0.599900  1.0
  H  H406  1  0.837100  0.121100  0.441900  1.0
  H  H407  1  0.441900  0.599900  0.837100  1.0
  H  H408  1  0.599900  0.441900  0.121100  1.0
  H  H409  1  0.837100  0.599900  0.121100  1.0
  H  H410  1  0.121100  0.441900  0.837100  1.0
  H  H411  1  0.599900  0.837100  0.441900  1.0
  H  H412  1  0.441900  0.121100  0.599900  1.0
  H  H413  1  0.099900  0.337100  0.621100  1.0
  H  H414  1  0.941900  0.621100  0.337100  1.0
  H  H415  1  0.337100  0.099900  0.941900  1.0
  H  H416  1  0.621100  0.941900  0.099900  1.0
  H  H417  1  0.621100  0.099900  0.337100  1.0
  H  H418  1  0.337100  0.941900  0.621100  1.0
  H  H419  1  0.941900  0.337100  0.099900  1.0
  H  H420  1  0.099900  0.621100  0.941900  1.0
  H  H421  1  0.337100  0.621100  0.099900  1.0
  H  H422  1  0.621100  0.337100  0.941900  1.0
  H  H423  1  0.099900  0.941900  0.337100  1.0
  H  H424  1  0.941900  0.099900  0.621100  1.0
  H  H425  1  0.444800  0.176400  0.913200  1.0
  H  H426  1  0.465600  0.913200  0.176400  1.0
  H  H427  1  0.913200  0.465600  0.444800  1.0
  H  H428  1  0.176400  0.444800  0.465600  1.0
  H  H429  1  0.176400  0.913200  0.444800  1.0
  H  H430  1  0.913200  0.176400  0.465600  1.0
  H  H431  1  0.465600  0.444800  0.913200  1.0
  H  H432  1  0.444800  0.465600  0.176400  1.0
  H  H433  1  0.913200  0.444800  0.176400  1.0
  H  H434  1  0.176400  0.465600  0.913200  1.0
  H  H435  1  0.444800  0.913200  0.465600  1.0
  H  H436  1  0.465600  0.176400  0.444800  1.0
  H  H437  1  0.944800  0.413200  0.676400  1.0
  H  H438  1  0.965600  0.676400  0.413200  1.0
  H  H439  1  0.413200  0.944800  0.965600  1.0
  H  H440  1  0.676400  0.965600  0.944800  1.0
  H  H441  1  0.676400  0.944800  0.413200  1.0
  H  H442  1  0.413200  0.965600  0.676400  1.0
  H  H443  1  0.965600  0.413200  0.944800  1.0
  H  H444  1  0.944800  0.676400  0.965600  1.0
  H  H445  1  0.413200  0.676400  0.944800  1.0
  H  H446  1  0.676400  0.413200  0.965600  1.0
  H  H447  1  0.944800  0.965600  0.413200  1.0
  H  H448  1  0.965600  0.944800  0.676400  1.0
  H  H449  1  0.257400  0.287000  0.927600  1.0
  H  H450  1  0.528000  0.927600  0.287000  1.0
  H  H451  1  0.927600  0.528000  0.257400  1.0
  H  H452  1  0.287000  0.257400  0.528000  1.0
  H  H453  1  0.287000  0.927600  0.257400  1.0
  H  H454  1  0.927600  0.287000  0.528000  1.0
  H  H455  1  0.528000  0.257400  0.927600  1.0
  H  H456  1  0.257400  0.528000  0.287000  1.0
  H  H457  1  0.927600  0.257400  0.287000  1.0
  H  H458  1  0.287000  0.528000  0.927600  1.0
  H  H459  1  0.257400  0.927600  0.528000  1.0
  H  H460  1  0.528000  0.287000  0.257400  1.0
  H  H461  1  0.757400  0.427600  0.787000  1.0
  H  H462  1  0.028000  0.787000  0.427600  1.0
  H  H463  1  0.427600  0.757400  0.028000  1.0
  H  H464  1  0.787000  0.028000  0.757400  1.0
  H  H465  1  0.787000  0.757400  0.427600  1.0
  H  H466  1  0.427600  0.028000  0.787000  1.0
  H  H467  1  0.028000  0.427600  0.757400  1.0
  H  H468  1  0.757400  0.787000  0.028000  1.0
  H  H469  1  0.427600  0.787000  0.757400  1.0
  H  H470  1  0.787000  0.427600  0.028000  1.0
  H  H471  1  0.757400  0.028000  0.427600  1.0
  H  H472  1  0.028000  0.757400  0.787000  1.0
  H  H473  1  0.168700  0.242100  0.027300  1.0
  H  H474  1  0.561900  0.027300  0.242100  1.0
  H  H475  1  0.027300  0.561900  0.168700  1.0
  H  H476  1  0.242100  0.168700  0.561900  1.0
  H  H477  1  0.242100  0.027300  0.168700  1.0
  H  H478  1  0.027300  0.242100  0.561900  1.0
  H  H479  1  0.561900  0.168700  0.027300  1.0
  H  H480  1  0.168700  0.561900  0.242100  1.0
  H  H481  1  0.027300  0.168700  0.242100  1.0
  H  H482  1  0.242100  0.561900  0.027300  1.0
  H  H483  1  0.168700  0.027300  0.561900  1.0
  H  H484  1  0.561900  0.242100  0.168700  1.0
  H  H485  1  0.668700  0.527300  0.742100  1.0
  H  H486  1  0.061900  0.742100  0.527300  1.0
  H  H487  1  0.527300  0.668700  0.061900  1.0
  H  H488  1  0.742100  0.061900  0.668700  1.0
  H  H489  1  0.742100  0.668700  0.527300  1.0
  H  H490  1  0.527300  0.061900  0.742100  1.0
  H  H491  1  0.061900  0.527300  0.668700  1.0
  H  H492  1  0.668700  0.742100  0.061900  1.0
  H  H493  1  0.527300  0.742100  0.668700  1.0
  H  H494  1  0.742100  0.527300  0.061900  1.0
  H  H495  1  0.668700  0.061900  0.527300  1.0
  H  H496  1  0.061900  0.668700  0.742100  1.0
  H  H497  1  0.291100  0.155100  0.150700  1.0
  H  H498  1  0.403100  0.150700  0.155100  1.0
  H  H499  1  0.150700  0.403100  0.291100  1.0
  H  H500  1  0.155100  0.291100  0.403100  1.0
  H  H501  1  0.155100  0.150700  0.291100  1.0
  H  H502  1  0.150700  0.155100  0.403100  1.0
  H  H503  1  0.403100  0.291100  0.150700  1.0
  H  H504  1  0.291100  0.403100  0.155100  1.0
  H  H505  1  0.150700  0.291100  0.155100  1.0
  H  H506  1  0.155100  0.403100  0.150700  1.0
  H  H507  1  0.291100  0.150700  0.403100  1.0
  H  H508  1  0.403100  0.155100  0.291100  1.0
  H  H509  1  0.791100  0.650700  0.655100  1.0
  H  H510  1  0.903100  0.655100  0.650700  1.0
  H  H511  1  0.650700  0.791100  0.903100  1.0
  H  H512  1  0.655100  0.903100  0.791100  1.0
  H  H513  1  0.655100  0.791100  0.650700  1.0
  H  H514  1  0.650700  0.903100  0.655100  1.0
  H  H515  1  0.903100  0.650700  0.791100  1.0
  H  H516  1  0.791100  0.655100  0.903100  1.0
  H  H517  1  0.650700  0.655100  0.791100  1.0
  H  H518  1  0.655100  0.650700  0.903100  1.0
  H  H519  1  0.791100  0.903100  0.650700  1.0
  H  H520  1  0.903100  0.791100  0.655100  1.0
  H  H521  1  0.379700  0.200100  0.050900  1.0
  H  H522  1  0.369300  0.050900  0.200100  1.0
  H  H523  1  0.050900  0.369300  0.379700  1.0
  H  H524  1  0.200100  0.379700  0.369300  1.0
  H  H525  1  0.200100  0.050900  0.379700  1.0
  H  H526  1  0.050900  0.200100  0.369300  1.0
  H  H527  1  0.369300  0.379700  0.050900  1.0
  H  H528  1  0.379700  0.369300  0.200100  1.0
  H  H529  1  0.050900  0.379700  0.200100  1.0
  H  H530  1  0.200100  0.369300  0.050900  1.0
  H  H531  1  0.379700  0.050900  0.369300  1.0
  H  H532  1  0.369300  0.200100  0.379700  1.0
  H  H533  1  0.879700  0.550900  0.700100  1.0
  H  H534  1  0.869300  0.700100  0.550900  1.0
  H  H535  1  0.550900  0.879700  0.869300  1.0
  H  H536  1  0.700100  0.869300  0.879700  1.0
  H  H537  1  0.700100  0.879700  0.550900  1.0
  H  H538  1  0.550900  0.869300  0.700100  1.0
  H  H539  1  0.869300  0.550900  0.879700  1.0
  H  H540  1  0.879700  0.700100  0.869300  1.0
  H  H541  1  0.550900  0.700100  0.879700  1.0
  H  H542  1  0.700100  0.550900  0.869300  1.0
  H  H543  1  0.879700  0.869300  0.550900  1.0
  H  H544  1  0.869300  0.879700  0.700100  1.0
  N  N545  1  0.471970  0.329430  0.805630  1.0
  N  N546  1  0.392970  0.805630  0.329430  1.0
  N  N547  1  0.805630  0.392970  0.471970  1.0
  N  N548  1  0.329430  0.471970  0.392970  1.0
  N  N549  1  0.329430  0.805630  0.471970  1.0
  N  N550  1  0.805630  0.329430  0.392970  1.0
  N  N551  1  0.392970  0.471970  0.805630  1.0
  N  N552  1  0.471970  0.392970  0.329430  1.0
  N  N553  1  0.805630  0.471970  0.329430  1.0
  N  N554  1  0.329430  0.392970  0.805630  1.0
  N  N555  1  0.471970  0.805630  0.392970  1.0
  N  N556  1  0.392970  0.329430  0.471970  1.0
  N  N557  1  0.971970  0.305630  0.829430  1.0
  N  N558  1  0.892970  0.829430  0.305630  1.0
  N  N559  1  0.305630  0.971970  0.892970  1.0
  N  N560  1  0.829430  0.892970  0.971970  1.0
  N  N561  1  0.829430  0.971970  0.305630  1.0
  N  N562  1  0.305630  0.892970  0.829430  1.0
  N  N563  1  0.892970  0.305630  0.971970  1.0
  N  N564  1  0.971970  0.829430  0.892970  1.0
  N  N565  1  0.305630  0.829430  0.971970  1.0
  N  N566  1  0.829430  0.305630  0.892970  1.0
  N  N567  1  0.971970  0.892970  0.305630  1.0
  N  N568  1  0.892970  0.971970  0.829430  1.0
  N  N569  1  0.554120  0.224680  0.783280  1.0
  N  N570  1  0.437920  0.783280  0.224680  1.0
  N  N571  1  0.783280  0.437920  0.554120  1.0
  N  N572  1  0.224680  0.554120  0.437920  1.0
  N  N573  1  0.224680  0.783280  0.554120  1.0
  N  N574  1  0.783280  0.224680  0.437920  1.0
  N  N575  1  0.437920  0.554120  0.783280  1.0
  N  N576  1  0.554120  0.437920  0.224680  1.0
  N  N577  1  0.783280  0.554120  0.224680  1.0
  N  N578  1  0.224680  0.437920  0.783280  1.0
  N  N579  1  0.554120  0.783280  0.437920  1.0
  N  N580  1  0.437920  0.224680  0.554120  1.0
  N  N581  1  0.054120  0.283280  0.724680  1.0
  N  N582  1  0.937920  0.724680  0.283280  1.0
  N  N583  1  0.283280  0.054120  0.937920  1.0
  N  N584  1  0.724680  0.937920  0.054120  1.0
  N  N585  1  0.724680  0.054120  0.283280  1.0
  N  N586  1  0.283280  0.937920  0.724680  1.0
  N  N587  1  0.937920  0.283280  0.054120  1.0
  N  N588  1  0.054120  0.724680  0.937920  1.0
  N  N589  1  0.283280  0.724680  0.054120  1.0
  N  N590  1  0.724680  0.283280  0.937920  1.0
  N  N591  1  0.054120  0.937920  0.283280  1.0
  N  N592  1  0.937920  0.054120  0.724680  1.0
  N  N593  1  0.380200  0.274400  0.917400  1.0
  N  N594  1  0.428000  0.917400  0.274400  1.0
  N  N595  1  0.917400  0.428000  0.380200  1.0
  N  N596  1  0.274400  0.380200  0.428000  1.0
  N  N597  1  0.274400  0.917400  0.380200  1.0
  N  N598  1  0.917400  0.274400  0.428000  1.0
  N  N599  1  0.428000  0.380200  0.917400  1.0
  N  N600  1  0.380200  0.428000  0.274400  1.0
  N  N601  1  0.917400  0.380200  0.274400  1.0
  N  N602  1  0.274400  0.428000  0.917400  1.0
  N  N603  1  0.380200  0.917400  0.428000  1.0
  N  N604  1  0.428000  0.274400  0.380200  1.0
  N  N605  1  0.880200  0.417400  0.774400  1.0
  N  N606  1  0.928000  0.774400  0.417400  1.0
  N  N607  1  0.417400  0.880200  0.928000  1.0
  N  N608  1  0.774400  0.928000  0.880200  1.0
  N  N609  1  0.774400  0.880200  0.417400  1.0
  N  N610  1  0.417400  0.928000  0.774400  1.0
  N  N611  1  0.928000  0.417400  0.880200  1.0
  N  N612  1  0.880200  0.774400  0.928000  1.0
  N  N613  1  0.417400  0.774400  0.880200  1.0
  N  N614  1  0.774400  0.417400  0.928000  1.0
  N  N615  1  0.880200  0.928000  0.417400  1.0
  N  N616  1  0.928000  0.880200  0.774400  1.0
  O  O617  1  0.137160  0.137160  0.137160  1.0
  O  O618  1  0.588520  0.137160  0.137160  1.0
  O  O619  1  0.137160  0.588520  0.137160  1.0
  O  O620  1  0.137160  0.137160  0.588520  1.0
  O  O621  1  0.637160  0.637160  0.637160  1.0
  O  O622  1  0.088520  0.637160  0.637160  1.0
  O  O623  1  0.637160  0.637160  0.088520  1.0
  O  O624  1  0.637160  0.088520  0.637160  1.0
