# generated using pymatgen
data_FeH33(C13N2)3
_symmetry_space_group_name_H-M   'P 1'
_cell_length_a   22.61600000
_cell_length_b   23.74400000
_cell_length_c   24.56600000
_cell_angle_alpha   68.64400000
_cell_angle_beta   65.82000000
_cell_angle_gamma   81.24200000
_symmetry_Int_Tables_number   1
_chemical_formula_structural   FeH33(C13N2)3
_chemical_formula_sum   'Fe8 H264 C312 N48'
_cell_volume   11207.98761748
_cell_formula_units_Z   8
loop_
 _symmetry_equiv_pos_site_id
 _symmetry_equiv_pos_as_xyz
  1  'x, y, z'
loop_
 _atom_site_type_symbol
 _atom_site_label
 _atom_site_symmetry_multiplicity
 _atom_site_fract_x
 _atom_site_fract_y
 _atom_site_fract_z
 _atom_site_occupancy
  Fe  Fe1  1  0.336040  0.572760  0.124670  1.0
  Fe  Fe2  1  0.663960  0.427240  0.875330  1.0
  Fe  Fe3  1  0.295580  0.784960  0.654070  1.0
  Fe  Fe4  1  0.704420  0.215040  0.345930  1.0
  Fe  Fe5  1  0.808800  0.653360  0.357030  1.0
  Fe  Fe6  1  0.191200  0.346640  0.642970  1.0
  Fe  Fe7  1  0.232450  0.132770  0.114770  1.0
  Fe  Fe8  1  0.767550  0.867230  0.885230  1.0
  H  H9  1  0.665700  0.503600  0.137100  1.0
  H  H10  1  0.334300  0.496400  0.862900  1.0
  H  H11  1  0.667400  0.447600  0.114900  1.0
  H  H12  1  0.332600  0.552400  0.885100  1.0
  H  H13  1  0.619600  0.446700  0.184500  1.0
  H  H14  1  0.380400  0.553300  0.815500  1.0
  H  H15  1  0.600900  0.587300  0.109700  1.0
  H  H16  1  0.399100  0.412700  0.890300  1.0
  H  H17  1  0.516500  0.633100  0.076700  1.0
  H  H18  1  0.483500  0.366900  0.923300  1.0
  H  H19  1  0.472400  0.471600  0.081800  1.0
  H  H20  1  0.527600  0.528400  0.918200  1.0
  H  H21  1  0.556800  0.425800  0.114800  1.0
  H  H22  1  0.443200  0.574200  0.885200  1.0
  H  H23  1  0.473800  0.624700  0.973400  1.0
  H  H24  1  0.526200  0.375300  0.026600  1.0
  H  H25  1  0.230700  0.650800  0.079900  1.0
  H  H26  1  0.769300  0.349200  0.920100  1.0
  H  H27  1  0.220100  0.692000  0.980500  1.0
  H  H28  1  0.779900  0.308000  0.019500  1.0
  H  H29  1  0.417100  0.681400  0.894100  1.0
  H  H30  1  0.582900  0.318600  0.105900  1.0
  H  H31  1  0.404000  0.729700  0.807900  1.0
  H  H32  1  0.596000  0.270300  0.192100  1.0
  H  H33  1  0.201100  0.744100  0.795100  1.0
  H  H34  1  0.798900  0.255900  0.204900  1.0
  H  H35  1  0.208800  0.710500  0.894100  1.0
  H  H36  1  0.791200  0.289500  0.105900  1.0
  H  H37  1  0.455200  0.769800  0.669400  1.0
  H  H38  1  0.544800  0.230200  0.330600  1.0
  H  H39  1  0.409000  0.749400  0.533600  1.0
  H  H40  1  0.591000  0.250600  0.466400  1.0
  H  H41  1  0.505400  0.775600  0.427800  1.0
  H  H42  1  0.494600  0.224400  0.572200  1.0
  H  H43  1  0.585900  0.877400  0.481700  1.0
  H  H44  1  0.414100  0.122600  0.518300  1.0
  H  H45  1  0.491100  0.855000  0.585200  1.0
  H  H46  1  0.508900  0.145000  0.414800  1.0
  H  H47  1  0.598900  0.832600  0.351600  1.0
  H  H48  1  0.401100  0.167400  0.648400  1.0
  H  H49  1  0.639800  0.858900  0.376900  1.0
  H  H50  1  0.360200  0.141100  0.623100  1.0
  H  H51  1  0.582700  0.898300  0.358200  1.0
  H  H52  1  0.417300  0.101700  0.641800  1.0
  H  H53  1  0.543900  0.815100  0.114400  1.0
  H  H54  1  0.456100  0.184900  0.885600  1.0
  H  H55  1  0.564200  0.824400  0.041200  1.0
  H  H56  1  0.435800  0.175600  0.958800  1.0
  H  H57  1  0.592800  0.768500  0.084000  1.0
  H  H58  1  0.407200  0.231500  0.916000  1.0
  H  H59  1  0.478700  0.708200  0.195100  1.0
  H  H60  1  0.521300  0.291800  0.804900  1.0
  H  H61  1  0.389600  0.650900  0.221100  1.0
  H  H62  1  0.610400  0.349100  0.778900  1.0
  H  H63  1  0.399000  0.727500  0.040900  1.0
  H  H64  1  0.601000  0.272500  0.959100  1.0
  H  H65  1  0.488200  0.784800  0.014900  1.0
  H  H66  1  0.511800  0.215200  0.985100  1.0
  H  H67  1  0.264300  0.692500  0.196600  1.0
  H  H68  1  0.735700  0.307500  0.803400  1.0
  H  H69  1  0.210700  0.491200  0.183200  1.0
  H  H70  1  0.789300  0.508800  0.816800  1.0
  H  H71  1  0.098300  0.509000  0.234700  1.0
  H  H72  1  0.901700  0.491000  0.765300  1.0
  H  H73  1  0.139600  0.664900  0.245200  1.0
  H  H74  1  0.860400  0.335100  0.754800  1.0
  H  H75  1  0.043100  0.677200  0.298100  1.0
  H  H76  1  0.956900  0.322800  0.701900  1.0
  H  H77  1  0.890700  0.553600  0.307200  1.0
  H  H78  1  0.109300  0.446400  0.692800  1.0
  H  H79  1  0.003000  0.528400  0.266300  1.0
  H  H80  1  0.997000  0.471600  0.733700  1.0
  H  H81  1  0.936200  0.741000  0.348000  1.0
  H  H82  1  0.063800  0.259000  0.652000  1.0
  H  H83  1  0.794000  0.810200  0.308900  1.0
  H  H84  1  0.206000  0.189800  0.691100  1.0
  H  H85  1  0.748600  0.896300  0.336100  1.0
  H  H86  1  0.251400  0.103700  0.663900  1.0
  H  H87  1  0.800600  0.833800  0.487400  1.0
  H  H88  1  0.199400  0.166200  0.512600  1.0
  H  H89  1  0.846000  0.747700  0.460200  1.0
  H  H90  1  0.154000  0.252300  0.539800  1.0
  H  H91  1  0.695200  0.919000  0.475800  1.0
  H  H92  1  0.304800  0.081000  0.524200  1.0
  H  H93  1  0.737900  0.966800  0.409800  1.0
  H  H94  1  0.262100  0.033200  0.590200  1.0
  H  H95  1  0.766500  0.935800  0.463700  1.0
  H  H96  1  0.233500  0.064200  0.536300  1.0
  H  H97  1  0.377100  0.586500  0.403000  1.0
  H  H98  1  0.622900  0.413500  0.597000  1.0
  H  H99  1  0.443800  0.550200  0.383500  1.0
  H  H100  1  0.556200  0.449800  0.616500  1.0
  H  H101  1  0.379300  0.515000  0.437200  1.0
  H  H102  1  0.620700  0.485000  0.562800  1.0
  H  H103  1  0.289600  0.561300  0.371900  1.0
  H  H104  1  0.710400  0.438700  0.628100  1.0
  H  H105  1  0.268400  0.545600  0.291600  1.0
  H  H106  1  0.731600  0.454400  0.708400  1.0
  H  H107  1  0.458000  0.494100  0.218800  1.0
  H  H108  1  0.542000  0.505900  0.781200  1.0
  H  H109  1  0.484600  0.512000  0.301000  1.0
  H  H110  1  0.515400  0.488000  0.699000  1.0
  H  H111  1  0.364200  0.417100  0.229500  1.0
  H  H112  1  0.635800  0.582900  0.770500  1.0
  H  H113  1  0.317300  0.529900  0.021700  1.0
  H  H114  1  0.682700  0.470100  0.978300  1.0
  H  H115  1  0.290600  0.439400  0.020700  1.0
  H  H116  1  0.709400  0.560600  0.979300  1.0
  H  H117  1  0.338700  0.351800  0.174200  1.0
  H  H118  1  0.661300  0.648200  0.825800  1.0
  H  H119  1  0.314200  0.272900  0.177100  1.0
  H  H120  1  0.685800  0.727100  0.822900  1.0
  H  H121  1  0.270200  0.264100  0.010200  1.0
  H  H122  1  0.729800  0.735900  0.989800  1.0
  H  H123  1  0.299900  0.356000  0.003800  1.0
  H  H124  1  0.700100  0.644000  0.996200  1.0
  H  H125  1  0.299600  0.147000  0.226900  1.0
  H  H126  1  0.700400  0.853000  0.773100  1.0
  H  H127  1  0.153700  0.051600  0.274000  1.0
  H  H128  1  0.846300  0.948400  0.726000  1.0
  H  H129  1  0.141800  0.959400  0.356500  1.0
  H  H130  1  0.858200  0.040600  0.643500  1.0
  H  H131  1  0.337100  0.938600  0.292900  1.0
  H  H132  1  0.662900  0.061400  0.707100  1.0
  H  H133  1  0.348900  0.030800  0.210400  1.0
  H  H134  1  0.651100  0.969200  0.789600  1.0
  H  H135  1  0.209100  0.868500  0.426700  1.0
  H  H136  1  0.790900  0.131500  0.573300  1.0
  H  H137  1  0.278000  0.853600  0.379000  1.0
  H  H138  1  0.722000  0.146400  0.621000  1.0
  H  H139  1  0.212800  0.843100  0.373300  1.0
  H  H140  1  0.787200  0.156900  0.626700  1.0
  H  H141  1  0.540800  0.977600  0.601800  1.0
  H  H142  1  0.459200  0.022400  0.398200  1.0
  H  H143  1  0.499900  0.016500  0.646500  1.0
  H  H144  1  0.500100  0.983500  0.353500  1.0
  H  H145  1  0.511800  0.042000  0.572900  1.0
  H  H146  1  0.488200  0.958000  0.427100  1.0
  H  H147  1  0.444400  0.004700  0.535000  1.0
  H  H148  1  0.555600  0.995300  0.465000  1.0
  H  H149  1  0.358800  0.946000  0.555100  1.0
  H  H150  1  0.641200  0.054000  0.444900  1.0
  H  H151  1  0.333000  0.875200  0.740300  1.0
  H  H152  1  0.667000  0.124800  0.259700  1.0
  H  H153  1  0.418700  0.933900  0.720200  1.0
  H  H154  1  0.581300  0.066100  0.279800  1.0
  H  H155  1  0.215700  0.928100  0.677900  1.0
  H  H156  1  0.784300  0.071900  0.322100  1.0
  H  H157  1  0.171500  0.711100  0.704000  1.0
  H  H158  1  0.828500  0.288900  0.296000  1.0
  H  H159  1  0.061300  0.729100  0.735300  1.0
  H  H160  1  0.938700  0.270900  0.264700  1.0
  H  H161  1  0.089900  0.900500  0.720400  1.0
  H  H162  1  0.910100  0.099500  0.279600  1.0
  H  H163  1  0.268300  0.076100  0.418300  1.0
  H  H164  1  0.731700  0.923900  0.581700  1.0
  H  H165  1  0.223400  0.047300  0.399200  1.0
  H  H166  1  0.776600  0.952700  0.600800  1.0
  H  H167  1  0.300300  0.049900  0.361000  1.0
  H  H168  1  0.699700  0.950100  0.639000  1.0
  H  H169  1  0.371200  0.979000  0.413000  1.0
  H  H170  1  0.628800  0.021000  0.587000  1.0
  H  H171  1  0.382500  0.882300  0.480200  1.0
  H  H172  1  0.617500  0.117700  0.519800  1.0
  H  H173  1  0.187000  0.867000  0.567600  1.0
  H  H174  1  0.813000  0.133000  0.432400  1.0
  H  H175  1  0.175700  0.963800  0.500400  1.0
  H  H176  1  0.824300  0.036200  0.499600  1.0
  H  H177  1  0.274500  0.756500  0.524000  1.0
  H  H178  1  0.725500  0.243500  0.476000  1.0
  H  H179  1  0.309900  0.649000  0.730400  1.0
  H  H180  1  0.690100  0.351000  0.269600  1.0
  H  H181  1  0.302700  0.555100  0.721000  1.0
  H  H182  1  0.697300  0.444900  0.279000  1.0
  H  H183  1  0.265100  0.645100  0.563400  1.0
  H  H184  1  0.734900  0.354900  0.436600  1.0
  H  H185  1  0.220700  0.391900  0.298000  1.0
  H  H186  1  0.779300  0.608100  0.702000  1.0
  H  H187  1  0.197500  0.325100  0.345600  1.0
  H  H188  1  0.802500  0.674900  0.654400  1.0
  H  H189  1  0.145300  0.378300  0.339900  1.0
  H  H190  1  0.854700  0.621700  0.660100  1.0
  H  H191  1  0.098900  0.380500  0.446000  1.0
  H  H192  1  0.901100  0.619500  0.554000  1.0
  H  H193  1  0.105000  0.390400  0.535000  1.0
  H  H194  1  0.895000  0.609600  0.465000  1.0
  H  H195  1  0.300800  0.399500  0.448300  1.0
  H  H196  1  0.699200  0.600500  0.551700  1.0
  H  H197  1  0.294700  0.389500  0.359300  1.0
  H  H198  1  0.705300  0.610500  0.640700  1.0
  H  H199  1  0.248800  0.490000  0.498800  1.0
  H  H200  1  0.751200  0.510000  0.501200  1.0
  H  H201  1  0.216500  0.389200  0.741600  1.0
  H  H202  1  0.783500  0.610800  0.258400  1.0
  H  H203  1  0.249500  0.480400  0.736400  1.0
  H  H204  1  0.750500  0.519600  0.263600  1.0
  H  H205  1  0.270000  0.553700  0.552600  1.0
  H  H206  1  0.730000  0.446300  0.447400  1.0
  H  H207  1  0.511500  0.645600  0.650100  1.0
  H  H208  1  0.488500  0.354400  0.349900  1.0
  H  H209  1  0.495000  0.587200  0.641000  1.0
  H  H210  1  0.505000  0.412800  0.359000  1.0
  H  H211  1  0.462300  0.650900  0.616600  1.0
  H  H212  1  0.537700  0.349100  0.383400  1.0
  H  H213  1  0.601100  0.709100  0.567700  1.0
  H  H214  1  0.398900  0.290900  0.432300  1.0
  H  H215  1  0.688400  0.731400  0.469700  1.0
  H  H216  1  0.311600  0.268600  0.530300  1.0
  H  H217  1  0.622600  0.609600  0.427400  1.0
  H  H218  1  0.377400  0.390400  0.572600  1.0
  H  H219  1  0.535200  0.587300  0.525500  1.0
  H  H220  1  0.464800  0.412700  0.474500  1.0
  H  H221  1  0.660800  0.733500  0.325500  1.0
  H  H222  1  0.339200  0.266500  0.674500  1.0
  H  H223  1  0.911600  0.705400  0.215200  1.0
  H  H224  1  0.088400  0.294600  0.784800  1.0
  H  H225  1  0.904500  0.752300  0.116200  1.0
  H  H226  1  0.095500  0.247700  0.883800  1.0
  H  H227  1  0.710600  0.772700  0.202400  1.0
  H  H228  1  0.289400  0.227300  0.797600  1.0
  H  H229  1  0.667400  0.158400  0.956400  1.0
  H  H230  1  0.332600  0.841600  0.043600  1.0
  H  H231  1  0.740300  0.168100  0.945800  1.0
  H  H232  1  0.259700  0.831900  0.054200  1.0
  H  H233  1  0.717200  0.195900  0.887700  1.0
  H  H234  1  0.282800  0.804100  0.112300  1.0
  H  H235  1  0.724900  0.133500  0.824700  1.0
  H  H236  1  0.275100  0.866500  0.175300  1.0
  H  H237  1  0.764200  0.046500  0.797400  1.0
  H  H238  1  0.235800  0.953500  0.202600  1.0
  H  H239  1  0.789600  0.966400  0.962800  1.0
  H  H240  1  0.210400  0.033600  0.037200  1.0
  H  H241  1  0.750300  0.053500  0.990200  1.0
  H  H242  1  0.249700  0.946500  0.009800  1.0
  H  H243  1  0.904100  0.976600  0.823500  1.0
  H  H244  1  0.095900  0.023400  0.176500  1.0
  H  H245  1  0.849300  0.762800  0.828700  1.0
  H  H246  1  0.150700  0.237200  0.171300  1.0
  H  H247  1  0.960100  0.747800  0.776800  1.0
  H  H248  1  0.039900  0.252200  0.223200  1.0
  H  H249  1  0.997700  0.913400  0.767100  1.0
  H  H250  1  0.002300  0.086600  0.232900  1.0
  H  H251  1  0.478000  0.047300  0.855000  1.0
  H  H252  1  0.522000  0.952700  0.145000  1.0
  H  H253  1  0.436700  0.986200  0.890700  1.0
  H  H254  1  0.563300  0.013800  0.109300  1.0
  H  H255  1  0.435100  0.028500  0.929300  1.0
  H  H256  1  0.564900  0.971500  0.070700  1.0
  H  H257  1  0.548400  0.047100  0.924300  1.0
  H  H258  1  0.451600  0.952900  0.075700  1.0
  H  H259  1  0.635900  0.996900  0.949600  1.0
  H  H260  1  0.364100  0.003100  0.050400  1.0
  H  H261  1  0.599000  0.848500  0.924200  1.0
  H  H262  1  0.401000  0.151500  0.075800  1.0
  H  H263  1  0.511500  0.898700  0.898900  1.0
  H  H264  1  0.488500  0.101300  0.101100  1.0
  H  H265  1  0.655000  0.887400  0.035300  1.0
  H  H266  1  0.345000  0.112600  0.964700  1.0
  H  H267  1  0.875600  0.794600  0.935500  1.0
  H  H268  1  0.124400  0.205400  0.064500  1.0
  H  H269  1  0.887100  0.760800  0.032800  1.0
  H  H270  1  0.112900  0.239200  0.967200  1.0
  H  H271  1  0.713000  0.834900  0.110500  1.0
  H  H272  1  0.287000  0.165100  0.889500  1.0
  C  C273  1  0.639600  0.472400  0.140200  1.0
  C  C274  1  0.360400  0.527600  0.859800  1.0
  C  C275  1  0.586800  0.502300  0.115300  1.0
  C  C276  1  0.413200  0.497700  0.884700  1.0
  C  C277  1  0.574800  0.563800  0.104000  1.0
  C  C278  1  0.425200  0.436200  0.896000  1.0
  C  C279  1  0.524700  0.591000  0.084400  1.0
  C  C280  1  0.475300  0.409000  0.915600  1.0
  C  C281  1  0.486500  0.556700  0.076100  1.0
  C  C282  1  0.513500  0.443300  0.923900  1.0
  C  C283  1  0.498500  0.495100  0.087400  1.0
  C  C284  1  0.501500  0.504900  0.912600  1.0
  C  C285  1  0.548600  0.467900  0.107000  1.0
  C  C286  1  0.451400  0.532100  0.893000  1.0
  C  C287  1  0.431700  0.616700  0.006100  1.0
  C  C288  1  0.568300  0.383300  0.993900  1.0
  C  C289  1  0.378500  0.642200  0.990000  1.0
  C  C290  1  0.621500  0.357800  0.010000  1.0
  C  C291  1  0.267000  0.652800  0.041800  1.0
  C  C292  1  0.733000  0.347200  0.958200  1.0
  C  C293  1  0.261600  0.680800  0.982200  1.0
  C  C294  1  0.738400  0.319200  0.017800  1.0
  C  C295  1  0.319200  0.692700  0.923300  1.0
  C  C296  1  0.680800  0.307300  0.076700  1.0
  C  C297  1  0.377600  0.673300  0.930300  1.0
  C  C298  1  0.622400  0.326700  0.069700  1.0
  C  C299  1  0.307100  0.717000  0.860300  1.0
  C  C300  1  0.692900  0.283000  0.139700  1.0
  C  C301  1  0.362800  0.732600  0.805300  1.0
  C  C302  1  0.637200  0.267400  0.194700  1.0
  C  C303  1  0.358200  0.752600  0.746500  1.0
  C  C304  1  0.641800  0.247400  0.253500  1.0
  C  C305  1  0.242300  0.741100  0.797700  1.0
  C  C306  1  0.757700  0.258900  0.202300  1.0
  C  C307  1  0.246900  0.721200  0.856500  1.0
  C  C308  1  0.753100  0.278800  0.143500  1.0
  C  C309  1  0.410400  0.768400  0.677700  1.0
  C  C310  1  0.589600  0.231600  0.322300  1.0
  C  C311  1  0.447700  0.796800  0.569100  1.0
  C  C312  1  0.552300  0.203200  0.430900  1.0
  C  C313  1  0.444000  0.773500  0.524300  1.0
  C  C314  1  0.556000  0.226500  0.475700  1.0
  C  C315  1  0.501900  0.791300  0.459500  1.0
  C  C316  1  0.498100  0.208700  0.540500  1.0
  C  C317  1  0.545400  0.827500  0.449200  1.0
  C  C318  1  0.454600  0.172500  0.550800  1.0
  C  C319  1  0.550600  0.853000  0.492200  1.0
  C  C320  1  0.449400  0.147000  0.507800  1.0
  C  C321  1  0.494600  0.837300  0.555000  1.0
  C  C322  1  0.505400  0.162700  0.445000  1.0
  C  C323  1  0.596800  0.857300  0.376700  1.0
  C  C324  1  0.403200  0.142700  0.623300  1.0
  C  C325  1  0.554700  0.794400  0.083600  1.0
  C  C326  1  0.445300  0.205600  0.916400  1.0
  C  C327  1  0.491900  0.751900  0.102600  1.0
  C  C328  1  0.508100  0.248100  0.897400  1.0
  C  C329  1  0.462600  0.712100  0.163800  1.0
  C  C330  1  0.537400  0.287900  0.836200  1.0
  C  C331  1  0.409600  0.678100  0.179200  1.0
  C  C332  1  0.590400  0.321900  0.820800  1.0
  C  C333  1  0.385900  0.683800  0.133400  1.0
  C  C334  1  0.614100  0.316200  0.866600  1.0
  C  C335  1  0.415200  0.723600  0.072200  1.0
  C  C336  1  0.584800  0.276400  0.927800  1.0
  C  C337  1  0.468200  0.757600  0.056800  1.0
  C  C338  1  0.531800  0.242400  0.943200  1.0
  C  C339  1  0.272700  0.657900  0.183700  1.0
  C  C340  1  0.727300  0.342100  0.816300  1.0
  C  C341  1  0.220600  0.620000  0.199600  1.0
  C  C342  1  0.779400  0.380000  0.800400  1.0
  C  C343  1  0.196800  0.526900  0.194100  1.0
  C  C344  1  0.803200  0.473100  0.805900  1.0
  C  C345  1  0.129900  0.536600  0.226000  1.0
  C  C346  1  0.870100  0.463400  0.774000  1.0
  C  C347  1  0.111200  0.589700  0.244900  1.0
  C  C348  1  0.888800  0.410300  0.755100  1.0
  C  C349  1  0.153500  0.630200  0.232600  1.0
  C  C350  1  0.846500  0.369800  0.767400  1.0
  C  C351  1  0.037000  0.598800  0.274800  1.0
  C  C352  1  0.963000  0.401200  0.725200  1.0
  C  C353  1  0.015000  0.651300  0.298000  1.0
  C  C354  1  0.985000  0.348700  0.702000  1.0
  C  C355  1  0.946500  0.657600  0.320000  1.0
  C  C356  1  0.053500  0.342400  0.680000  1.0
  C  C357  1  0.921700  0.578400  0.304500  1.0
  C  C358  1  0.078300  0.421600  0.695500  1.0
  C  C359  1  0.990100  0.562800  0.279500  1.0
  C  C360  1  0.009900  0.437200  0.720500  1.0
  C  C361  1  0.912000  0.712700  0.346300  1.0
  C  C362  1  0.088000  0.287300  0.653700  1.0
  C  C363  1  0.824300  0.770800  0.382000  1.0
  C  C364  1  0.175700  0.229200  0.618000  1.0
  C  C365  1  0.795300  0.815000  0.345200  1.0
  C  C366  1  0.204700  0.185000  0.654800  1.0
  C  C367  1  0.768400  0.866200  0.361300  1.0
  C  C368  1  0.231600  0.133800  0.638700  1.0
  C  C369  1  0.770300  0.873200  0.414300  1.0
  C  C370  1  0.229700  0.126800  0.585700  1.0
  C  C371  1  0.799200  0.829000  0.451200  1.0
  C  C372  1  0.200800  0.171000  0.548800  1.0
  C  C373  1  0.826200  0.777900  0.435000  1.0
  C  C374  1  0.173800  0.222100  0.565000  1.0
  C  C375  1  0.739200  0.929600  0.444000  1.0
  C  C376  1  0.260800  0.070400  0.556000  1.0
  C  C377  1  0.396700  0.548300  0.397100  1.0
  C  C378  1  0.603300  0.451700  0.602900  1.0
  C  C379  1  0.380800  0.537600  0.346100  1.0
  C  C380  1  0.619200  0.462400  0.653900  1.0
  C  C381  1  0.324000  0.547600  0.341100  1.0
  C  C382  1  0.676000  0.452400  0.658900  1.0
  C  C383  1  0.310600  0.539100  0.292300  1.0
  C  C384  1  0.689400  0.460900  0.707700  1.0
  C  C385  1  0.364500  0.520200  0.243400  1.0
  C  C386  1  0.635500  0.479800  0.756600  1.0
  C  C387  1  0.424700  0.508900  0.249300  1.0
  C  C388  1  0.575300  0.491100  0.750700  1.0
  C  C389  1  0.442800  0.517700  0.299200  1.0
  C  C390  1  0.557200  0.482300  0.700800  1.0
  C  C391  1  0.355300  0.449900  0.197400  1.0
  C  C392  1  0.644700  0.550100  0.802600  1.0
  C  C393  1  0.343600  0.440500  0.152900  1.0
  C  C394  1  0.656400  0.559500  0.847100  1.0
  C  C395  1  0.318200  0.493500  0.054600  1.0
  C  C396  1  0.681800  0.506500  0.945400  1.0
  C  C397  1  0.306800  0.440500  0.050300  1.0
  C  C398  1  0.693200  0.559500  0.949700  1.0
  C  C399  1  0.321700  0.385900  0.094900  1.0
  C  C400  1  0.678300  0.614100  0.905100  1.0
  C  C401  1  0.335000  0.389200  0.143600  1.0
  C  C402  1  0.665000  0.610800  0.856400  1.0
  C  C403  1  0.301600  0.328400  0.090300  1.0
  C  C404  1  0.698400  0.671600  0.909700  1.0
  C  C405  1  0.301400  0.273000  0.144700  1.0
  C  C406  1  0.698600  0.727000  0.855300  1.0
  C  C407  1  0.279700  0.219100  0.143000  1.0
  C  C408  1  0.720300  0.780900  0.857000  1.0
  C  C409  1  0.276200  0.265600  0.045700  1.0
  C  C410  1  0.723800  0.734400  0.954300  1.0
  C  C411  1  0.293700  0.322200  0.041300  1.0
  C  C412  1  0.706300  0.677800  0.958700  1.0
  C  C413  1  0.282100  0.153600  0.195800  1.0
  C  C414  1  0.717900  0.846400  0.804200  1.0
  C  C415  1  0.252400  0.049900  0.234400  1.0
  C  C416  1  0.747600  0.950100  0.765600  1.0
  C  C417  1  0.190900  0.028600  0.277800  1.0
  C  C418  1  0.809100  0.971400  0.722200  1.0
  C  C419  1  0.183900  0.973900  0.326800  1.0
  C  C420  1  0.816100  0.026100  0.673200  1.0
  C  C421  1  0.238400  0.940300  0.332500  1.0
  C  C422  1  0.761600  0.059700  0.667500  1.0
  C  C423  1  0.299800  0.961500  0.289100  1.0
  C  C424  1  0.700200  0.038500  0.710900  1.0
  C  C425  1  0.306900  0.016300  0.240100  1.0
  C  C426  1  0.693100  0.983700  0.759900  1.0
  C  C427  1  0.234100  0.868900  0.383200  1.0
  C  C428  1  0.765900  0.131100  0.616800  1.0
  C  C429  1  0.504200  0.005500  0.610300  1.0
  C  C430  1  0.495800  0.994500  0.389700  1.0
  C  C431  1  0.439600  0.974800  0.625700  1.0
  C  C432  1  0.560400  0.025200  0.374300  1.0
  C  C433  1  0.421800  0.978400  0.576600  1.0
  C  C434  1  0.578200  0.021600  0.423400  1.0
  C  C435  1  0.370900  0.943500  0.588600  1.0
  C  C436  1  0.629100  0.056500  0.411400  1.0
  C  C437  1  0.337900  0.905100  0.649600  1.0
  C  C438  1  0.662100  0.094900  0.350400  1.0
  C  C439  1  0.355700  0.901500  0.698600  1.0
  C  C440  1  0.644300  0.098500  0.301400  1.0
  C  C441  1  0.406500  0.936400  0.686700  1.0
  C  C442  1  0.593500  0.063600  0.313300  1.0
  C  C443  1  0.226600  0.887900  0.677700  1.0
  C  C444  1  0.773400  0.112100  0.322300  1.0
  C  C445  1  0.178400  0.847500  0.696400  1.0
  C  C446  1  0.821600  0.152500  0.303600  1.0
  C  C447  1  0.155900  0.750000  0.706100  1.0
  C  C448  1  0.844100  0.250000  0.293900  1.0
  C  C449  1  0.089900  0.759100  0.727500  1.0
  C  C450  1  0.910100  0.240900  0.272500  1.0
  C  C451  1  0.066000  0.814500  0.737600  1.0
  C  C452  1  0.934000  0.185500  0.262400  1.0
  C  C453  1  0.106200  0.861500  0.719100  1.0
  C  C454  1  0.893800  0.138500  0.280900  1.0
  C  C455  1  0.265400  0.044500  0.402700  1.0
  C  C456  1  0.734600  0.955500  0.597300  1.0
  C  C457  1  0.272400  0.980500  0.450400  1.0
  C  C458  1  0.727600  0.019500  0.549600  1.0
  C  C459  1  0.333800  0.956300  0.444400  1.0
  C  C460  1  0.666200  0.043700  0.555600  1.0
  C  C461  1  0.340500  0.898800  0.484300  1.0
  C  C462  1  0.659500  0.101200  0.515700  1.0
  C  C463  1  0.285800  0.865500  0.530200  1.0
  C  C464  1  0.714200  0.134500  0.469800  1.0
  C  C465  1  0.224400  0.889800  0.536200  1.0
  C  C466  1  0.775600  0.110200  0.463800  1.0
  C  C467  1  0.217700  0.947200  0.496300  1.0
  C  C468  1  0.782300  0.052800  0.503700  1.0
  C  C469  1  0.282900  0.753400  0.559900  1.0
  C  C470  1  0.717100  0.246600  0.440100  1.0
  C  C471  1  0.286200  0.696300  0.605700  1.0
  C  C472  1  0.713800  0.303700  0.394300  1.0
  C  C473  1  0.301600  0.647600  0.696000  1.0
  C  C474  1  0.698400  0.352400  0.304000  1.0
  C  C475  1  0.296000  0.591400  0.690800  1.0
  C  C476  1  0.704000  0.408600  0.309200  1.0
  C  C477  1  0.282000  0.588500  0.646000  1.0
  C  C478  1  0.718000  0.411500  0.354000  1.0
  C  C479  1  0.275500  0.644400  0.597400  1.0
  C  C480  1  0.724500  0.355600  0.402600  1.0
  C  C481  1  0.189200  0.368300  0.339100  1.0
  C  C482  1  0.810800  0.631700  0.660900  1.0
  C  C483  1  0.196200  0.384100  0.394300  1.0
  C  C484  1  0.803800  0.615900  0.605700  1.0
  C  C485  1  0.139900  0.384300  0.446500  1.0
  C  C486  1  0.860100  0.615700  0.553500  1.0
  C  C487  1  0.143500  0.390200  0.499300  1.0
  C  C488  1  0.856500  0.609800  0.500700  1.0
  C  C489  1  0.203400  0.395800  0.500000  1.0
  C  C490  1  0.796600  0.604200  0.500000  1.0
  C  C491  1  0.259800  0.395600  0.447800  1.0
  C  C492  1  0.740200  0.604400  0.552200  1.0
  C  C493  1  0.256200  0.389700  0.395000  1.0
  C  C494  1  0.743800  0.610300  0.605000  1.0
  C  C495  1  0.235000  0.459700  0.539500  1.0
  C  C496  1  0.765000  0.540300  0.460500  1.0
  C  C497  1  0.239500  0.466200  0.594100  1.0
  C  C498  1  0.760500  0.533800  0.405900  1.0
  C  C499  1  0.227300  0.422600  0.703300  1.0
  C  C500  1  0.772700  0.577400  0.296700  1.0
  C  C501  1  0.247000  0.476800  0.700100  1.0
  C  C502  1  0.753000  0.523200  0.299900  1.0
  C  C503  1  0.262900  0.525700  0.644000  1.0
  C  C504  1  0.737100  0.474300  0.356000  1.0
  C  C505  1  0.259100  0.520300  0.591000  1.0
  C  C506  1  0.740900  0.479700  0.409000  1.0
  C  C507  1  0.501700  0.631000  0.622100  1.0
  C  C508  1  0.498300  0.369000  0.377900  1.0
  C  C509  1  0.559900  0.646100  0.555800  1.0
  C  C510  1  0.440100  0.353900  0.444200  1.0
  C  C511  1  0.605400  0.688900  0.539300  1.0
  C  C512  1  0.394600  0.311100  0.460700  1.0
  C  C513  1  0.657300  0.702200  0.481000  1.0
  C  C514  1  0.342700  0.297800  0.519000  1.0
  C  C515  1  0.663700  0.672600  0.439300  1.0
  C  C516  1  0.336300  0.327400  0.560700  1.0
  C  C517  1  0.618200  0.629800  0.455900  1.0
  C  C518  1  0.381800  0.370200  0.544100  1.0
  C  C519  1  0.566300  0.616500  0.514200  1.0
  C  C520  1  0.433700  0.383500  0.485800  1.0
  C  C521  1  0.703400  0.719700  0.322300  1.0
  C  C522  1  0.296600  0.280300  0.677700  1.0
  C  C523  1  0.755700  0.731100  0.263800  1.0
  C  C524  1  0.244300  0.268900  0.736200  1.0
  C  C525  1  0.870800  0.719000  0.212600  1.0
  C  C526  1  0.129200  0.281000  0.787400  1.0
  C  C527  1  0.866600  0.746900  0.153800  1.0
  C  C528  1  0.133400  0.253100  0.846200  1.0
  C  C529  1  0.806900  0.766900  0.150000  1.0
  C  C530  1  0.193100  0.233100  0.850000  1.0
  C  C531  1  0.751400  0.759000  0.205000  1.0
  C  C532  1  0.248600  0.241000  0.795000  1.0
  C  C533  1  0.712700  0.161700  0.926500  1.0
  C  C534  1  0.287300  0.838300  0.073500  1.0
  C  C535  1  0.733900  0.101700  0.910000  1.0
  C  C536  1  0.266100  0.898300  0.090000  1.0
  C  C537  1  0.738000  0.099600  0.852700  1.0
  C  C538  1  0.262000  0.900400  0.147300  1.0
  C  C539  1  0.761400  0.047900  0.836500  1.0
  C  C540  1  0.238600  0.952100  0.163500  1.0
  C  C541  1  0.780600  0.998300  0.877500  1.0
  C  C542  1  0.219400  0.001700  0.122500  1.0
  C  C543  1  0.776500  0.000300  0.934800  1.0
  C  C544  1  0.223500  0.999700  0.065200  1.0
  C  C545  1  0.753100  0.052100  0.951000  1.0
  C  C546  1  0.246900  0.947900  0.049000  1.0
  C  C547  1  0.877500  0.945600  0.829800  1.0
  C  C548  1  0.122500  0.054400  0.170200  1.0
  C  C549  1  0.901700  0.891800  0.810500  1.0
  C  C550  1  0.098300  0.108200  0.189500  1.0
  C  C551  1  0.879400  0.793400  0.816200  1.0
  C  C552  1  0.120600  0.206600  0.183800  1.0
  C  C553  1  0.945200  0.784400  0.785400  1.0
  C  C554  1  0.054800  0.215600  0.214600  1.0
  C  C555  1  0.989300  0.829200  0.767100  1.0
  C  C556  1  0.010700  0.170800  0.232900  1.0
  C  C557  1  0.967500  0.882900  0.779600  1.0
  C  C558  1  0.032500  0.117100  0.220400  1.0
  C  C559  1  0.462300  0.013300  0.894700  1.0
  C  C560  1  0.537700  0.986700  0.105300  1.0
  C  C561  1  0.521700  0.977600  0.909200  1.0
  C  C562  1  0.478300  0.022400  0.090800  1.0
  C  C563  1  0.558600  0.006800  0.924300  1.0
  C  C564  1  0.441400  0.993200  0.075700  1.0
  C  C565  1  0.610600  0.977000  0.939300  1.0
  C  C566  1  0.389400  0.023000  0.060700  1.0
  C  C567  1  0.625700  0.918000  0.939300  1.0
  C  C568  1  0.374300  0.082000  0.060700  1.0
  C  C569  1  0.588700  0.888800  0.924200  1.0
  C  C570  1  0.411300  0.111200  0.075800  1.0
  C  C571  1  0.536700  0.918600  0.909200  1.0
  C  C572  1  0.463300  0.081400  0.090800  1.0
  C  C573  1  0.689500  0.875500  0.003100  1.0
  C  C574  1  0.310500  0.124500  0.996900  1.0
  C  C575  1  0.739200  0.846800  0.017200  1.0
  C  C576  1  0.260800  0.153200  0.982800  1.0
  C  C577  1  0.842600  0.802800  0.971000  1.0
  C  C578  1  0.157400  0.197200  0.029000  1.0
  C  C579  1  0.849500  0.782700  0.028800  1.0
  C  C580  1  0.150500  0.217300  0.971200  1.0
  C  C581  1  0.801200  0.794700  0.080800  1.0
  C  C582  1  0.198800  0.205300  0.919200  1.0
  C  C583  1  0.746000  0.826700  0.075000  1.0
  C  C584  1  0.254000  0.173300  0.925000  1.0
  N  N585  1  0.298000  0.756800  0.742700  1.0
  N  N586  1  0.702000  0.243200  0.257300  1.0
  N  N587  1  0.223600  0.417300  0.650200  1.0
  N  N588  1  0.776400  0.582700  0.349800  1.0
  N  N589  1  0.815400  0.711100  0.267600  1.0
  N  N590  1  0.184600  0.288900  0.732400  1.0
  N  N591  1  0.857600  0.847100  0.828700  1.0
  N  N592  1  0.142400  0.152900  0.171300  1.0
  N  N593  1  0.787500  0.834800  0.965200  1.0
  N  N594  1  0.212500  0.165200  0.034800  1.0
  N  N595  1  0.427600  0.582900  0.062200  1.0
  N  N596  1  0.572400  0.417100  0.937800  1.0
  N  N597  1  0.321500  0.630400  0.043100  1.0
  N  N598  1  0.678500  0.369600  0.956900  1.0
  N  N599  1  0.389900  0.779900  0.631400  1.0
  N  N600  1  0.610100  0.220100  0.368600  1.0
  N  N601  1  0.333200  0.644300  0.150800  1.0
  N  N602  1  0.666800  0.355700  0.849200  1.0
  N  N603  1  0.240800  0.568200  0.179100  1.0
  N  N604  1  0.759200  0.431800  0.820900  1.0
  N  N605  1  0.901000  0.626600  0.323900  1.0
  N  N606  1  0.099000  0.373400  0.676100  1.0
  N  N607  1  0.849400  0.715700  0.364900  1.0
  N  N608  1  0.150600  0.284300  0.635100  1.0
  N  N609  1  0.354200  0.509000  0.196100  1.0
  N  N610  1  0.645800  0.491000  0.803900  1.0
  N  N611  1  0.330800  0.497500  0.103700  1.0
  N  N612  1  0.669200  0.502500  0.896300  1.0
  N  N613  1  0.266900  0.211900  0.096600  1.0
  N  N614  1  0.733100  0.788100  0.903400  1.0
  N  N615  1  0.256300  0.110700  0.189500  1.0
  N  N616  1  0.743700  0.889300  0.810500  1.0
  N  N617  1  0.288700  0.870300  0.659200  1.0
  N  N618  1  0.711300  0.129700  0.340800  1.0
  N  N619  1  0.199900  0.792300  0.687900  1.0
  N  N620  1  0.800100  0.207700  0.312100  1.0
  N  N621  1  0.292000  0.801800  0.570200  1.0
  N  N622  1  0.708000  0.198200  0.429800  1.0
  N  N623  1  0.294900  0.700000  0.651100  1.0
  N  N624  1  0.705100  0.300000  0.348900  1.0
  N  N625  1  0.209500  0.406700  0.551900  1.0
  N  N626  1  0.790500  0.593300  0.448100  1.0
  N  N627  1  0.716800  0.687800  0.374100  1.0
  N  N628  1  0.283200  0.312200  0.625900  1.0
  N  N629  1  0.810400  0.944500  0.858400  1.0
  N  N630  1  0.189600  0.055500  0.141600  1.0
  N  N631  1  0.683800  0.889000  0.948700  1.0
  N  N632  1  0.316200  0.111000  0.051300  1.0
