# generated using pymatgen
data_H71Rh4C121NO26
_symmetry_space_group_name_H-M   'P 1'
_cell_length_a   17.91460000
_cell_length_b   18.09020000
_cell_length_c   27.68910000
_cell_angle_alpha   77.34500000
_cell_angle_beta   83.12500000
_cell_angle_gamma   61.94700000
_symmetry_Int_Tables_number   1
_chemical_formula_structural   H71Rh4C121NO26
_chemical_formula_sum   'H142 Rh8 C242 N2 O52'
_cell_volume   7725.35345014
_cell_formula_units_Z   2
loop_
 _symmetry_equiv_pos_site_id
 _symmetry_equiv_pos_as_xyz
  1  'x, y, z'
loop_
 _atom_site_type_symbol
 _atom_site_label
 _atom_site_symmetry_multiplicity
 _atom_site_fract_x
 _atom_site_fract_y
 _atom_site_fract_z
 _atom_site_occupancy
  H  H1  1  0.369340  0.302745  0.860008  1
  H  H2  1  0.630660  0.697255  0.139992  1
  H  H3  1  0.184731  0.313170  0.785085  1
  H  H4  1  0.815269  0.686830  0.214915  1
  H  H5  1  0.167834  0.226590  0.854189  1
  H  H6  1  0.832166  0.773410  0.145811  1
  H  H7  1  0.118486  0.321956  0.865096  1
  H  H8  1  0.881514  0.678044  0.134904  1
  H  H9  1  0.097806  0.221265  0.931023  1
  H  H10  1  0.902194  0.778735  0.068977  1
  H  H11  1  0.139111  0.270621  0.950446  1
  H  H12  1  0.860889  0.729379  0.049554  1
  H  H13  1  0.197061  0.175268  0.941315  1
  H  H14  1  0.802939  0.824732  0.058685  1
  H  H15  1  0.520542  0.977299  0.446747  1
  H  H16  1  0.479458  0.022701  0.553253  1
  H  H17  1  0.383293  0.039163  0.417054  1
  H  H18  1  0.616707  0.960837  0.582946  1
  H  H19  1  0.302866  0.188308  0.408156  1
  H  H20  1  0.697134  0.811692  0.591844  1
  H  H21  1  0.547648  0.913693  0.853234  1
  H  H22  1  0.452352  0.086307  0.146766  1
  H  H23  1  0.414933  0.161826  0.864817  1
  H  H24  1  0.585067  0.838174  0.135183  1
  H  H25  1  0.137615  0.275654  0.866712  1
  H  H26  1  0.862385  0.724346  0.133288  1
  H  H27  1  0.089422  0.376446  0.866398  1
  H  H28  1  0.910578  0.623554  0.133602  1
  H  H29  1  0.049986  0.314919  0.939597  1
  H  H30  1  0.950014  0.685081  0.060403  1
  H  H31  1  0.116198  0.342054  0.954204  1
  H  H32  1  0.883802  0.657946  0.045796  1
  H  H33  1  0.145661  0.244742  0.951341  1
  H  H34  1  0.854339  0.755258  0.048659  1
  H  H35  1  0.222667  0.438435  0.571994  1.0
  H  H36  1  0.777333  0.561565  0.428006  1.0
  H  H37  1  0.043222  0.382718  0.649809  1.0
  H  H38  1  0.956778  0.617282  0.350191  1.0
  H  H39  1  0.057815  0.405898  0.501047  1.0
  H  H40  1  0.942185  0.594102  0.498953  1.0
  H  H41  1  0.994135  0.379093  0.576528  1.0
  H  H42  1  0.005865  0.620907  0.423472  1.0
  H  H43  1  0.551130  0.463447  0.713509  1.0
  H  H44  1  0.448870  0.536553  0.286491  1.0
  H  H45  1  0.992940  0.266672  0.655203  1.0
  H  H46  1  0.007060  0.733328  0.344797  1.0
  H  H47  1  0.824328  0.253402  0.577225  1.0
  H  H48  1  0.175672  0.746598  0.422775  1.0
  H  H49  1  0.505709  0.208088  0.438531  1.0
  H  H50  1  0.494291  0.791912  0.561469  1.0
  H  H51  1  0.032742  0.740431  0.565589  1.0
  H  H52  1  0.967258  0.259569  0.434411  1.0
  H  H53  1  0.073074  0.767090  0.513862  1.0
  H  H54  1  0.926926  0.232910  0.486138  1.0
  H  H55  1  0.088944  0.643266  0.488217  1.0
  H  H56  1  0.911056  0.356734  0.511783  1.0
  H  H57  1  0.052068  0.616140  0.540834  1.0
  H  H58  1  0.947932  0.383860  0.459166  1.0
  H  H59  1  0.141109  0.617781  0.537351  1.0
  H  H60  1  0.858891  0.382219  0.462649  1.0
  H  H61  1  0.985573  0.885994  0.542099  1.0
  H  H62  1  0.014427  0.114006  0.457901  1.0
  H  H63  1  0.334929  0.416349  0.717896  1.0
  H  H64  1  0.665071  0.583651  0.282104  1.0
  H  H65  1  0.085270  0.124498  0.653216  1.0
  H  H66  1  0.914730  0.875502  0.346784  1.0
  H  H67  1  0.814895  0.859912  0.472435  1.0
  H  H68  1  0.185105  0.140088  0.527565  1.0
  H  H69  1  0.739669  0.466363  0.779633  1.0
  H  H70  1  0.260331  0.533637  0.220367  1.0
  H  H71  1  0.051745  0.046474  0.612002  1.0
  H  H72  1  0.948255  0.953526  0.387998  1.0
  H  H73  1  0.758192  0.090489  0.502692  1.0
  H  H74  1  0.241808  0.909511  0.497308  1.0
  H  H75  1  0.575266  0.394770  0.861887  1.0
  H  H76  1  0.424734  0.605230  0.138113  1.0
  H  H77  1  0.321741  0.189154  0.377628  1.0
  H  H78  1  0.678259  0.810846  0.622372  1.0
  H  H79  1  0.694056  0.418777  0.855612  1.0
  H  H80  1  0.305944  0.581223  0.144388  1.0
  H  H81  1  0.549922  0.982911  0.405718  1.0
  H  H82  1  0.450078  0.017089  0.594282  1.0
  H  H83  1  0.410250  0.043059  0.381020  1.0
  H  H84  1  0.589750  0.956941  0.618980  1.0
  H  H85  1  0.155416  0.353004  0.791816  1.0
  H  H86  1  0.844584  0.646996  0.208184  1.0
  H  H87  1  0.339382  0.345476  0.868106  1.0
  H  H88  1  0.660618  0.654524  0.131894  1.0
  H  H89  1  0.021792  0.519932  0.952163  1.0
  H  H90  1  0.978208  0.480068  0.047837  1.0
  H  H91  1  0.978340  0.271970  0.856346  1.0
  H  H92  1  0.021660  0.728030  0.143654  1.0
  H  H93  1  0.899627  0.776530  0.936763  1.0
  H  H94  1  0.100373  0.223470  0.063237  1.0
  H  H95  1  0.194651  0.231979  0.666667  1.0
  H  H96  1  0.805349  0.768021  0.333333  1.0
  H  H97  1  0.653280  0.243279  0.954188  1.0
  H  H98  1  0.346720  0.756721  0.045812  1.0
  H  H99  1  0.531599  0.495008  0.958539  1.0
  H  H100  1  0.468401  0.504992  0.041461  1.0
  H  H101  1  0.820974  0.523361  0.847506  1.0
  H  H102  1  0.179026  0.476639  0.152494  1.0
  H  H103  1  0.406050  0.383952  0.917473  1.0
  H  H104  1  0.593950  0.616048  0.082527  1.0
  H  H105  1  0.785553  0.652150  0.897284  1.0
  H  H106  1  0.214447  0.347850  0.102716  1.0
  H  H107  1  0.217358  0.802698  0.842049  1.0
  H  H108  1  0.782642  0.197302  0.157951  1.0
  H  H109  1  0.905153  0.521914  0.922399  1.0
  H  H110  1  0.094847  0.478086  0.077601  1.0
  H  H111  1  0.971676  0.438669  0.730597  1.0
  H  H112  1  0.028324  0.561331  0.269403  1.0
  H  H113  1  0.149751  0.058865  0.769694  1.0
  H  H114  1  0.850249  0.941135  0.230306  1.0
  H  H115  1  0.868584  0.550620  0.766520  1.0
  H  H116  1  0.131416  0.449380  0.233480  1.0
  H  H117  1  0.295205  0.235983  0.609813  1.0
  H  H118  1  0.704795  0.764017  0.390187  1.0
  H  H119  1  0.219008  0.242668  0.580890  1.0
  H  H120  1  0.780992  0.757332  0.419110  1.0
  H  H121  1  0.406786  0.502672  0.934752  1.0
  H  H122  1  0.593214  0.497328  0.065248  1.0
  H  H123  1  0.307711  0.983444  0.652730  1.0
  H  H124  1  0.692289  0.016556  0.347270  1.0
  H  H125  1  0.302400  0.551690  0.841455  1.0
  H  H126  1  0.697600  0.448310  0.158545  1.0
  H  H127  1  0.321932  0.171392  0.520395  1.0
  H  H128  1  0.678068  0.828608  0.479605  1.0
  H  H129  1  0.391642  0.178795  0.547393  1.0
  H  H130  1  0.608358  0.821205  0.452607  1.0
  H  H131  1  0.313854  0.263146  0.520953  1.0
  H  H132  1  0.686146  0.736854  0.479047  1.0
  H  H133  1  0.314306  0.708593  0.716129  1.0
  H  H134  1  0.685694  0.291407  0.283871  1.0
  H  H135  1  0.335307  0.574681  0.756788  1.0
  H  H136  1  0.664693  0.425319  0.243212  1.0
  H  H137  1  0.657311  0.017636  0.914556  1.0
  H  H138  1  0.342689  0.982364  0.085444  1.0
  H  H139  1  0.579687  0.917368  0.823639  1.0
  H  H140  1  0.420313  0.082632  0.176361  1.0
  H  H141  1  0.446655  0.169702  0.831091  1.0
  H  H142  1  0.553345  0.830298  0.168909  1.0
  Rh  Rh143  1  0.693990  0.523970  0.584670  1.0
  Rh  Rh144  1  0.306010  0.476030  0.415330  1.0
  Rh  Rh145  1  0.202720  0.462990  0.375630  1.0
  Rh  Rh146  1  0.797280  0.537010  0.624370  1.0
  Rh  Rh147  1  0.781790  0.433710  0.001990  1.0
  Rh  Rh148  1  0.218210  0.566290  0.998010  1.0
  Rh  Rh149  1  0.145890  0.716980  0.993360  1.0
  Rh  Rh150  1  0.854110  0.283020  0.006640  1.0
  C  C151  1  0.334500  0.326300  0.831800  1
  C  C152  1  0.665500  0.673700  0.168200  1
  C  C153  1  0.226000  0.331000  0.787500  1
  C  C154  1  0.774000  0.669000  0.212500  1
  C  C155  1  0.269000  0.306000  0.831300  1
  C  C156  1  0.731000  0.694000  0.168700  1
  C  C157  1  0.491500  0.037100  0.435200  1
  C  C158  1  0.508500  0.962900  0.564800  1
  C  C159  1  0.408200  0.073500  0.421100  1
  C  C160  1  0.591800  0.926500  0.578900  1
  C  C161  1  0.362200  0.161800  0.412900  1
  C  C162  1  0.637800  0.838200  0.587100  1
  C  C163  1  0.547800  0.963300  0.859300  1
  C  C164  1  0.452200  0.036700  0.140700  1
  C  C165  1  0.474600  0.039200  0.850900  1
  C  C166  1  0.525400  0.960800  0.149100  1
  C  C167  1  0.466900  0.111000  0.865800  1
  C  C168  1  0.533100  0.889000  0.134200  1
  C  C169  1  0.132900  0.320900  0.883300  1
  C  C170  1  0.867100  0.679100  0.116700  1
  C  C171  1  0.109100  0.304200  0.936700  1
  C  C172  1  0.890900  0.695800  0.063300  1
  C  C173  1  0.185400  0.443900  0.480770  1.0
  C  C174  1  0.814600  0.556100  0.519230  1.0
  C  C175  1  0.176400  0.426200  0.573010  1.0
  C  C176  1  0.823600  0.573800  0.426990  1.0
  C  C177  1  0.146000  0.425800  0.529730  1.0
  C  C178  1  0.854000  0.574200  0.470270  1.0
  C  C179  1  0.070100  0.392700  0.619140  1.0
  C  C180  1  0.929900  0.607300  0.380860  1.0
  C  C181  1  0.077900  0.407300  0.530900  1.0
  C  C182  1  0.922100  0.592700  0.469100  1.0
  C  C183  1  0.139200  0.408700  0.618180  1.0
  C  C184  1  0.860800  0.591300  0.381820  1.0
  C  C185  1  0.040500  0.391200  0.575550  1.0
  C  C186  1  0.959500  0.608800  0.424450  1.0
  C  C187  1  0.900000  0.273700  0.615820  1.0
  C  C188  1  0.100000  0.726300  0.384180  1.0
  C  C189  1  0.579100  0.455600  0.742670  1.0
  C  C190  1  0.420900  0.544400  0.257330  1.0
  C  C191  1  0.173800  0.404400  0.663840  1.0
  C  C192  1  0.826200  0.595600  0.336160  1.0
  C  C193  1  0.842600  0.366100  0.614010  1.0
  C  C194  1  0.157400  0.633900  0.385990  1.0
  C  C195  1  0.977600  0.235100  0.638670  1.0
  C  C196  1  0.022400  0.764900  0.361330  1.0
  C  C197  1  0.349500  0.305900  0.405860  1.0
  C  C198  1  0.650500  0.694100  0.594140  1.0
  C  C199  1  0.877700  0.227200  0.592540  1.0
  C  C200  1  0.122300  0.772800  0.407460  1.0
  C  C201  1  0.205300  0.395200  0.701340  1.0
  C  C202  1  0.794700  0.604800  0.298660  1.0
  C  C203  1  0.908700  0.859600  0.507500  1.0
  C  C204  1  0.091300  0.140400  0.492500  1.0
  C  C205  1  0.403300  0.211700  0.411800  1.0
  C  C206  1  0.596700  0.788300  0.588200  1.0
  C  C207  1  0.679500  0.500300  0.689790  1.0
  C  C208  1  0.320500  0.499700  0.310210  1.0
  C  C209  1  0.647800  0.473100  0.739200  1.0
  C  C210  1  0.352200  0.526900  0.260800  1.0
  C  C211  1  0.484500  0.174200  0.429100  1.0
  C  C212  1  0.515500  0.825800  0.570900  1.0
  C  C213  1  0.551400  0.426800  0.788310  1.0
  C  C214  1  0.448600  0.573200  0.211690  1.0
  C  C215  1  0.481500  0.408300  0.791700  1.0
  C  C216  1  0.518500  0.591700  0.208300  1.0
  C  C217  1  0.039800  0.737200  0.529980  1.0
  C  C218  1  0.960200  0.262800  0.470020  1.0
  C  C219  1  0.084400  0.645600  0.523530  1.0
  C  C220  1  0.915600  0.354400  0.476470  1.0
  C  C221  1  0.423100  0.393300  0.793570  1.0
  C  C222  1  0.576900  0.606700  0.206430  1.0
  C  C223  1  0.932000  0.910000  0.527300  1.0
  C  C224  1  0.068000  0.090000  0.472700  1.0
  C  C225  1  0.351100  0.379100  0.792970  1.0
  C  C226  1  0.648900  0.620900  0.207030  1.0
  C  C227  1  0.313000  0.395900  0.747860  1.0
  C  C228  1  0.687000  0.604100  0.252140  1.0
  C  C229  1  0.912300  0.091400  0.567200  1.0
  C  C230  1  0.087700  0.908600  0.432800  1.0
  C  C231  1  0.242700  0.382400  0.747330  1.0
  C  C232  1  0.757300  0.617600  0.252670  1.0
  C  C233  1  0.032400  0.150700  0.637300  1.0
  C  C234  1  0.967600  0.849300  0.362700  1.0
  C  C235  1  0.933700  0.141300  0.591390  1.0
  C  C236  1  0.066300  0.858700  0.408610  1.0
  C  C237  1  0.830000  0.894500  0.486300  1.0
  C  C238  1  0.170000  0.105500  0.513700  1.0
  C  C239  1  0.897100  0.048300  0.547400  1.0
  C  C240  1  0.102900  0.951700  0.452600  1.0
  C  C241  1  0.875300  0.996700  0.525300  1.0
  C  C242  1  0.124700  0.003300  0.474700  1.0
  C  C243  1  0.690200  0.016400  0.464900  1.0
  C  C244  1  0.309800  0.983600  0.535100  1.0
  C  C245  1  0.691200  0.457200  0.781910  1.0
  C  C246  1  0.308800  0.542800  0.218090  1.0
  C  C247  1  0.773600  0.979700  0.485200  1.0
  C  C248  1  0.226400  0.020300  0.514800  1.0
  C  C249  1  0.620800  0.048900  0.450400  1.0
  C  C250  1  0.379200  0.951100  0.549600  1.0
  C  C251  1  0.012400  0.104000  0.613500  1.0
  C  C252  1  0.987600  0.896000  0.386500  1.0
  C  C253  1  0.796300  0.031700  0.504200  1.0
  C  C254  1  0.203700  0.968300  0.495800  1.0
  C  C255  1  0.594100  0.413900  0.830340  1.0
  C  C256  1  0.405900  0.586100  0.169660  1.0
  C  C257  1  0.376200  0.163100  0.391600  1.0
  C  C258  1  0.623800  0.836900  0.608400  1.0
  C  C259  1  0.535400  0.086900  0.432800  1.0
  C  C260  1  0.464600  0.913100  0.567200  1.0
  C  C261  1  0.164900  0.264000  0.876200  1.0
  C  C262  1  0.835100  0.736000  0.123800  1.0
  C  C263  1  0.664600  0.428700  0.826600  1.0
  C  C264  1  0.335400  0.571300  0.173400  1.0
  C  C265  1  0.148000  0.230000  0.929500  1.0
  C  C266  1  0.852000  0.770000  0.070500  1.0
  C  C267  1  0.510900  0.039500  0.409500  1.0
  C  C268  1  0.489100  0.960500  0.590500  1.0
  C  C269  1  0.429900  0.076600  0.392400  1.0
  C  C270  1  0.570100  0.923400  0.607600  1.0
  C  C271  1  0.068800  0.392600  0.378200  1.0
  C  C272  1  0.931200  0.607400  0.621800  1.0
  C  C273  1  0.630400  0.457000  0.509200  1.0
  C  C274  1  0.369600  0.543000  0.490800  1.0
  C  C275  1  0.243100  0.344800  0.836200  1.0
  C  C276  1  0.756900  0.655200  0.163800  1.0
  C  C277  1  0.205300  0.358900  0.792100  1.0
  C  C278  1  0.794700  0.641100  0.207900  1.0
  C  C279  1  0.314900  0.354900  0.837400  1.0
  C  C280  1  0.685100  0.645100  0.162600  1.0
  C  C281  1  0.972200  0.648300  0.946700  1.0
  C  C282  1  0.027800  0.351700  0.053300  1.0
  C  C283  1  0.973200  0.572700  0.942590  1.0
  C  C284  1  0.026800  0.427300  0.057410  1.0
  C  C285  1  0.866900  0.379700  0.912180  1.0
  C  C286  1  0.133100  0.620300  0.087820  1.0
  C  C287  1  0.604000  0.367400  0.959710  1.0
  C  C288  1  0.396000  0.632600  0.040290  1.0
  C  C289  1  0.956600  0.328800  0.838360  1.0
  C  C290  1  0.043400  0.671200  0.161640  1.0
  C  C291  1  0.229900  0.662800  0.903080  1.0
  C  C292  1  0.770100  0.337200  0.096920  1.0
  C  C293  1  0.896900  0.394900  0.860100  1.0
  C  C294  1  0.103100  0.605100  0.139900  1.0
  C  C295  1  0.047800  0.646400  0.966040  1.0
  C  C296  1  0.952200  0.353600  0.033960  1.0
  C  C297  1  0.985200  0.344800  0.790270  1.0
  C  C298  1  0.014800  0.655200  0.209730  1.0
  C  C299  1  0.901000  0.724900  0.933110  1.0
  C  C300  1  0.099000  0.275100  0.066890  1.0
  C  C301  1  0.203700  0.175100  0.678580  1.0
  C  C302  1  0.796300  0.824900  0.321420  1.0
  C  C303  1  0.682200  0.362900  0.976380  1.0
  C  C304  1  0.317800  0.637100  0.023620  1.0
  C  C305  1  0.603600  0.296500  0.949650  1.0
  C  C306  1  0.396400  0.703500  0.050350  1.0
  C  C307  1  0.049800  0.276900  0.767340  1.0
  C  C308  1  0.950200  0.723100  0.232660  1.0
  C  C309  1  0.531000  0.445300  0.952940  1.0
  C  C310  1  0.469000  0.554700  0.047060  1.0
  C  C311  1  0.863300  0.477700  0.832960  1.0
  C  C312  1  0.136700  0.522300  0.167040  1.0
  C  C313  1  0.831400  0.727100  0.914170  1.0
  C  C314  1  0.168600  0.272900  0.085830  1.0
  C  C315  1  0.102600  0.222700  0.747000  1.0
  C  C316  1  0.897400  0.777300  0.253000  1.0
  C  C317  1  0.456700  0.379900  0.927850  1.0
  C  C318  1  0.543300  0.620100  0.072150  1.0
  C  C319  1  0.832900  0.651400  0.910050  1.0
  C  C320  1  0.167100  0.348600  0.089950  1.0
  C  C321  1  0.242300  0.756100  0.825040  1.0
  C  C322  1  0.757700  0.243900  0.174960  1.0
  C  C323  1  0.256000  0.675100  0.850170  1.0
  C  C324  1  0.744000  0.324900  0.149830  1.0
  C  C325  1  0.529600  0.302900  0.932640  1.0
  C  C326  1  0.470400  0.697100  0.067360  1.0
  C  C327  1  0.904300  0.573900  0.924760  1.0
  C  C328  1  0.095700  0.426100  0.075240  1.0
  C  C329  1  0.162800  0.155400  0.721980  1.0
  C  C330  1  0.837200  0.844600  0.278020  1.0
  C  C331  1  0.952300  0.427700  0.763540  1.0
  C  C332  1  0.047700  0.572300  0.236460  1.0
  C  C333  1  0.177200  0.071900  0.739960  1.0
  C  C334  1  0.822800  0.928100  0.260040  1.0
  C  C335  1  0.257200  0.111100  0.653160  1.0
  C  C336  1  0.742800  0.888900  0.346840  1.0
  C  C337  1  0.891300  0.494000  0.784810  1.0
  C  C338  1  0.108700  0.506000  0.215190  1.0
  C  C339  1  0.280200  0.208900  0.587730  1.0
  C  C340  1  0.719800  0.791100  0.412270  1.0
  C  C341  1  0.457200  0.450100  0.938000  1.0
  C  C342  1  0.542800  0.549900  0.062000  1.0
  C  C343  1  0.231400  0.007800  0.714580  1.0
  C  C344  1  0.768600  0.992200  0.285420  1.0
  C  C345  1  0.271300  0.027100  0.670600  1.0
  C  C346  1  0.728700  0.972900  0.329400  1.0
  C  C347  1  0.264700  0.768800  0.775500  1.0
  C  C348  1  0.735300  0.231200  0.224500  1.0
  C  C349  1  0.244200  0.921900  0.732800  1.0
  C  C350  1  0.755800  0.078100  0.267200  1.0
  C  C351  1  0.253200  0.852000  0.751000  1.0
  C  C352  1  0.746800  0.148000  0.249000  1.0
  C  C353  1  0.531400  0.231800  0.917400  1.0
  C  C354  1  0.468600  0.768200  0.082600  1.0
  C  C355  1  0.756900  0.808200  0.899600  1.0
  C  C356  1  0.243100  0.191800  0.100400  1.0
  C  C357  1  0.291900  0.607300  0.824530  1.0
  C  C358  1  0.708100  0.392700  0.175470  1.0
  C  C359  1  0.331400  0.205200  0.539900  1.0
  C  C360  1  0.668600  0.794800  0.460100  1.0
  C  C361  1  0.696000  0.873700  0.888500  1.0
  C  C362  1  0.304000  0.126300  0.111500  1.0
  C  C363  1  0.622500  0.955200  0.876300  1.0
  C  C364  1  0.377500  0.044800  0.123700  1.0
  C  C365  1  0.535600  0.174100  0.901900  1.0
  C  C366  1  0.464400  0.825900  0.098100  1.0
  C  C367  1  0.299600  0.699800  0.750300  1.0
  C  C368  1  0.700400  0.300200  0.249700  1.0
  C  C369  1  0.312400  0.620700  0.774300  1.0
  C  C370  1  0.687600  0.379300  0.225700  1.0
  C  C371  1  0.614600  0.023900  0.894400  1.0
  C  C372  1  0.385400  0.976100  0.105600  1.0
  C  C373  1  0.543700  0.102500  0.882800  1.0
  C  C374  1  0.456300  0.897500  0.117200  1.0
  C  C375  1  0.568500  0.963600  0.839100  1.0
  C  C376  1  0.431500  0.036400  0.160900  1.0
  C  C377  1  0.497900  0.043800  0.826600  1.0
  C  C378  1  0.502100  0.956200  0.173400  1.0
  C  C379  1  0.358500  0.119300  0.789000  1.0
  C  C380  1  0.641500  0.880700  0.211000  1.0
  C  C381  1  0.393900  0.159700  0.741000  1.0
  C  C382  1  0.606100  0.840300  0.259000  1.0
  C  C383  1  0.664100  0.631600  0.973400  1.0
  C  C384  1  0.335900  0.368400  0.026600  1.0
  C  C385  1  0.603100  0.635300  0.932700  1.0
  C  C386  1  0.396900  0.364700  0.067300  1.0
  C  C387  1  0.681000  0.730100  0.016600  1.0
  C  C388  1  0.319000  0.269900  0.983400  1.0
  C  C389  1  0.564700  0.785800  0.954600  1.0
  C  C390  1  0.435300  0.214200  0.045400  1.0
  C  C391  1  0.488700  0.114200  0.844300  1.0
  C  C392  1  0.511300  0.885800  0.155700  1.0
  N  N393  1  0.639900  0.716600  0.982400  1.0
  N  N394  1  0.360100  0.283400  0.017600  1.0
  O  O395  1  0.244000  0.267600  0.874200  1
  O  O396  1  0.756000  0.732400  0.125800  1
  O  O397  1  0.406700  0.041700  0.829600  1
  O  O398  1  0.593300  0.958300  0.170400  1
  O  O399  1  0.250430  0.454270  0.481540  1.0
  O  O400  1  0.749570  0.545730  0.518460  1.0
  O  O401  1  0.150380  0.446980  0.443310  1.0
  O  O402  1  0.849620  0.553020  0.556690  1.0
  O  O403  1  0.868200  0.407700  0.632620  1.0
  O  O404  1  0.131800  0.592300  0.367380  1.0
  O  O405  1  0.644830  0.501660  0.652860  1.0
  O  O406  1  0.355170  0.498340  0.347140  1.0
  O  O407  1  0.739910  0.518280  0.690220  1.0
  O  O408  1  0.260090  0.481720  0.309780  1.0
  O  O409  1  0.278270  0.335940  0.385730  1.0
  O  O410  1  0.721730  0.664060  0.614270  1.0
  O  O411  1  0.771780  0.397820  0.591800  1.0
  O  O412  1  0.228220  0.602180  0.408200  1.0
  O  O413  1  0.379380  0.347550  0.421020  1.0
  O  O414  1  0.620620  0.652450  0.578980  1.0
  O  O415  1  0.959600  0.775350  0.507630  1.0
  O  O416  1  0.040400  0.224650  0.492370  1.0
  O  O417  1  0.109080  0.433920  0.341010  1.0
  O  O418  1  0.890920  0.566080  0.658990  1.0
  O  O419  1  0.595610  0.513200  0.545360  1.0
  O  O420  1  0.404390  0.486800  0.454640  1.0
  O  O421  1  0.212900  0.321800  0.881620  1.0
  O  O422  1  0.787100  0.678200  0.118380  1.0
  O  O423  1  0.817580  0.445630  0.929830  1.0
  O  O424  1  0.182420  0.554370  0.070170  1.0
  O  O425  1  0.250260  0.586650  0.925020  1.0
  O  O426  1  0.749740  0.413350  0.074980  1.0
  O  O427  1  0.894280  0.303860  0.935130  1.0
  O  O428  1  0.105720  0.696140  0.064870  1.0
  O  O429  1  0.677510  0.431750  0.982890  1.0
  O  O430  1  0.322490  0.568250  0.017110  1.0
  O  O431  1  0.747700  0.291070  0.981550  1.0
  O  O432  1  0.252300  0.708930  0.018450  1.0
  O  O433  1  0.109720  0.573460  0.978000  1.0
  O  O434  1  0.890280  0.426540  0.022000  1.0
  O  O435  1  0.189560  0.728830  0.922340  1.0
  O  O436  1  0.810440  0.271170  0.077660  1.0
  O  O437  1  0.044160  0.716590  0.968200  1.0
  O  O438  1  0.955840  0.283410  0.031800  1.0
  O  O439  1  0.299600  0.123030  0.610590  1.0
  O  O440  1  0.700400  0.876970  0.389410  1.0
  O  O441  1  0.437000  0.043000  0.799900  1.0
  O  O442  1  0.563000  0.957000  0.200100  1.0
  O  O443  1  0.715700  0.576090  0.997750  1.0
  O  O444  1  0.284300  0.423910  0.002250  1.0
  O  O445  1  0.077000  0.860600  0.988010  1.0
  O  O446  1  0.923000  0.139400  0.011990  1.0
