# generated using pymatgen
data_Cu2H88C78O17
_symmetry_space_group_name_H-M   'P 1'
_cell_length_a   18.53820000
_cell_length_b   19.65090000
_cell_length_c   25.36000000
_cell_angle_alpha   90.00000000
_cell_angle_beta   90.00000000
_cell_angle_gamma   116.08000000
_symmetry_Int_Tables_number   1
_chemical_formula_structural   Cu2H88C78O17
_chemical_formula_sum   'Cu8 H352 C312 O68'
_cell_volume   8297.80385749
_cell_formula_units_Z   4
loop_
 _symmetry_equiv_pos_site_id
 _symmetry_equiv_pos_as_xyz
  1  'x, y, z'
loop_
 _atom_site_type_symbol
 _atom_site_label
 _atom_site_symmetry_multiplicity
 _atom_site_fract_x
 _atom_site_fract_y
 _atom_site_fract_z
 _atom_site_occupancy
  Cu  Cu1  1  0.135770  0.435110  0.638070  1.0
  Cu  Cu2  1  0.364230  0.064890  0.138070  1.0
  Cu  Cu3  1  0.864230  0.564890  0.361930  1.0
  Cu  Cu4  1  0.635770  0.935110  0.861930  1.0
  Cu  Cu5  1  0.736780  0.549180  0.415790  1.0
  Cu  Cu6  1  0.763220  0.950820  0.915790  1.0
  Cu  Cu7  1  0.263220  0.450820  0.584210  1.0
  Cu  Cu8  1  0.236780  0.049180  0.084210  1.0
  H  H9  1  0.965801  0.183224  0.359381  1
  H  H10  1  0.534199  0.316776  0.859381  1
  H  H11  1  0.034199  0.816776  0.640619  1
  H  H12  1  0.465801  0.683224  0.140619  1
  H  H13  1  0.052725  0.222938  0.383730  1
  H  H14  1  0.447275  0.277062  0.883730  1
  H  H15  1  0.947275  0.777062  0.616270  1
  H  H16  1  0.552725  0.722938  0.116270  1
  H  H17  1  0.914328  0.230396  0.420676  1
  H  H18  1  0.585672  0.269604  0.920676  1
  H  H19  1  0.085672  0.769604  0.579324  1
  H  H20  1  0.414328  0.730396  0.079324  1
  H  H21  1  0.003079  0.295770  0.420803  1
  H  H22  1  0.496921  0.204230  0.920803  1
  H  H23  1  0.996921  0.704230  0.579197  1
  H  H24  1  0.503079  0.795770  0.079197  1
  H  H25  1  0.024655  0.140867  0.492527  1
  H  H26  1  0.475345  0.359133  0.992527  1
  H  H27  1  0.975345  0.859133  0.507473  1
  H  H28  1  0.524655  0.640867  0.007473  1
  H  H29  1  0.930408  0.105356  0.490555  1
  H  H30  1  0.569592  0.394644  0.990555  1
  H  H31  1  0.069592  0.894644  0.509445  1
  H  H32  1  0.430408  0.605356  0.009445  1
  H  H33  1  0.034695  0.253827  0.495702  1
  H  H34  1  0.465305  0.246173  0.995702  1
  H  H35  1  0.965305  0.746173  0.504298  1
  H  H36  1  0.534695  0.753827  0.004298  1
  H  H37  1  0.941123  0.216752  0.505524  1
  H  H38  1  0.558877  0.283248  0.005524  1
  H  H39  1  0.058877  0.783248  0.494476  1
  H  H40  1  0.441123  0.716752  0.994476  1
  H  H41  1  0.595917  0.611792  0.751592  1
  H  H42  1  0.904083  0.888208  0.251592  1
  H  H43  1  0.404083  0.388208  0.248408  1
  H  H44  1  0.095917  0.111792  0.748408  1
  H  H45  1  0.506138  0.599175  0.755818  1
  H  H46  1  0.993862  0.900825  0.255818  1
  H  H47  1  0.493862  0.400825  0.244182  1
  H  H48  1  0.006138  0.099175  0.744182  1
  H  H49  1  0.638494  0.730361  0.721051  1
  H  H50  1  0.861506  0.769639  0.221051  1
  H  H51  1  0.361506  0.269639  0.278949  1
  H  H52  1  0.138494  0.230361  0.778949  1
  H  H53  1  0.563557  0.725903  0.753283  1
  H  H54  1  0.936443  0.774097  0.253283  1
  H  H55  1  0.436443  0.274097  0.246717  1
  H  H56  1  0.063557  0.225903  0.746717  1
  H  H57  1  0.441045  0.598193  0.666915  1
  H  H58  1  0.058955  0.901807  0.166915  1
  H  H59  1  0.558955  0.401807  0.333085  1
  H  H60  1  0.941045  0.098193  0.833085  1
  H  H61  1  0.501074  0.615748  0.619263  1
  H  H62  1  0.998926  0.884252  0.119263  1
  H  H63  1  0.498926  0.384252  0.380737  1
  H  H64  1  0.001074  0.115748  0.880737  1
  H  H65  1  0.576598  0.734835  0.646646  1
  H  H66  1  0.923402  0.765165  0.146646  1
  H  H67  1  0.423402  0.265165  0.353354  1
  H  H68  1  0.076598  0.234835  0.853354  1
  H  H69  1  0.499140  0.724018  0.678628  1
  H  H70  1  0.000860  0.775982  0.178628  1
  H  H71  1  0.500860  0.275982  0.321372  1
  H  H72  1  0.999140  0.224018  0.821372  1
  H  H73  1  0.254518  0.767578  0.493202  1
  H  H74  1  0.245482  0.732422  0.993202  1
  H  H75  1  0.745482  0.232422  0.506798  1
  H  H76  1  0.754518  0.267578  0.006798  1
  H  H77  1  0.165094  0.714060  0.509861  1
  H  H78  1  0.334906  0.785940  0.009861  1
  H  H79  1  0.834906  0.285940  0.490139  1
  H  H80  1  0.665094  0.214060  0.990139  1
  H  H81  1  0.260305  0.655068  0.489704  1
  H  H82  1  0.239695  0.844932  0.989704  1
  H  H83  1  0.739695  0.344932  0.510296  1
  H  H84  1  0.760305  0.155068  0.010296  1
  H  H85  1  0.169001  0.610670  0.473639  1
  H  H86  1  0.330999  0.889330  0.973639  1
  H  H87  1  0.830999  0.389330  0.526361  1
  H  H88  1  0.669001  0.110670  0.026361  1
  H  H89  1  0.116596  0.714575  0.426839  1
  H  H90  1  0.383404  0.785425  0.926839  1
  H  H91  1  0.883404  0.285425  0.573161  1
  H  H92  1  0.616596  0.214575  0.073161  1
  H  H93  1  0.188730  0.796608  0.426769  1
  H  H94  1  0.311270  0.703392  0.926769  1
  H  H95  1  0.811270  0.203392  0.573231  1
  H  H96  1  0.688730  0.296608  0.073231  1
  H  H97  1  0.298634  0.688122  0.408077  1
  H  H98  1  0.201366  0.811878  0.908077  1
  H  H99  1  0.701366  0.311878  0.591923  1
  H  H100  1  0.798634  0.188122  0.091923  1
  H  H101  1  0.216050  0.620070  0.393101  1
  H  H102  1  0.283950  0.879930  0.893101  1
  H  H103  1  0.783950  0.379930  0.606899  1
  H  H104  1  0.716050  0.120070  0.106899  1
  H  H105  1  0.326426  0.682227  0.308011  1
  H  H106  1  0.173574  0.817773  0.808011  1
  H  H107  1  0.673574  0.317773  0.691989  1
  H  H108  1  0.826426  0.182227  0.191989  1
  H  H109  1  0.300280  0.669262  0.248308  1
  H  H110  1  0.199720  0.830738  0.748308  1
  H  H111  1  0.699720  0.330738  0.751692  1
  H  H112  1  0.800280  0.169262  0.251692  1
  H  H113  1  0.274877  0.766007  0.258612  1
  H  H114  1  0.225123  0.733993  0.758612  1
  H  H115  1  0.725123  0.233993  0.741388  1
  H  H116  1  0.774877  0.266007  0.241388  1
  H  H117  1  0.328899  0.793431  0.309478  1
  H  H118  1  0.171101  0.706569  0.809478  1
  H  H119  1  0.671101  0.206569  0.690522  1
  H  H120  1  0.828899  0.293431  0.190522  1
  H  H121  1  0.422837  0.691238  0.232881  1
  H  H122  1  0.077163  0.808762  0.732881  1
  H  H123  1  0.577163  0.308762  0.767119  1
  H  H124  1  0.922837  0.191238  0.267119  1
  H  H125  1  0.452167  0.729235  0.288477  1
  H  H126  1  0.047833  0.770765  0.788477  1
  H  H127  1  0.547833  0.270765  0.711523  1
  H  H128  1  0.952167  0.229235  0.211523  1
  H  H129  1  0.499832  0.837748  0.248935  1
  H  H130  1  0.000168  0.662252  0.748935  1
  H  H131  1  0.500168  0.162252  0.751065  1
  H  H132  1  0.999832  0.337748  0.251065  1
  H  H133  1  0.456680  0.800129  0.195850  1
  H  H134  1  0.043320  0.699871  0.695850  1
  H  H135  1  0.543320  0.199871  0.804150  1
  H  H136  1  0.956680  0.300129  0.304150  1
  H  H137  1  0.461933  0.890743  0.340103  1
  H  H138  1  0.038067  0.609257  0.840103  1
  H  H139  1  0.538067  0.109257  0.659897  1
  H  H140  1  0.961933  0.390743  0.159897  1
  H  H141  1  0.526669  0.955968  0.375258  1
  H  H142  1  0.973331  0.544032  0.875258  1
  H  H143  1  0.473331  0.044032  0.624742  1
  H  H144  1  0.026669  0.455968  0.124742  1
  H  H145  1  0.488898  0.800062  0.377261  1
  H  H146  1  0.011102  0.699938  0.877261  1
  H  H147  1  0.511102  0.199938  0.622739  1
  H  H148  1  0.988898  0.300062  0.122739  1
  H  H149  1  0.575371  0.867889  0.379033  1
  H  H150  1  0.924629  0.632111  0.879033  1
  H  H151  1  0.424629  0.132111  0.620967  1
  H  H152  1  0.075371  0.367889  0.120967  1
  H  H153  1  0.474438  0.899929  0.493226  1
  H  H154  1  0.025562  0.600071  0.993226  1
  H  H155  1  0.525562  0.100071  0.506774  1
  H  H156  1  0.974438  0.399929  0.006774  1
  H  H157  1  0.414029  0.814900  0.482270  1
  H  H158  1  0.085971  0.685100  0.982270  1
  H  H159  1  0.585971  0.185100  0.517730  1
  H  H160  1  0.914029  0.314900  0.017730  1
  H  H161  1  0.415824  0.928407  0.428552  1
  H  H162  1  0.084176  0.571593  0.928552  1
  H  H163  1  0.584176  0.071593  0.571448  1
  H  H164  1  0.915824  0.428407  0.071448  1
  H  H165  1  0.373082  0.843783  0.409125  1
  H  H166  1  0.126918  0.656217  0.909125  1
  H  H167  1  0.626918  0.156217  0.590875  1
  H  H168  1  0.873082  0.343783  0.090875  1
  H  H169  1  0.522589  0.938840  0.348958  1
  H  H170  1  0.977411  0.561160  0.848958  1
  H  H171  1  0.477411  0.061160  0.651042  1
  H  H172  1  0.022589  0.438840  0.151042  1
  H  H173  1  0.435205  0.874864  0.357856  1
  H  H174  1  0.064795  0.625136  0.857856  1
  H  H175  1  0.564795  0.125136  0.642144  1
  H  H176  1  0.935205  0.374864  0.142144  1
  H  H177  1  0.499999  0.917410  0.491009  1
  H  H178  1  0.000001  0.582590  0.991009  1
  H  H179  1  0.500001  0.082590  0.508991  1
  H  H180  1  0.999999  0.417410  0.008991  1
  H  H181  1  0.423216  0.854327  0.465720  1
  H  H182  1  0.076784  0.645673  0.965720  1
  H  H183  1  0.576784  0.145673  0.534280  1
  H  H184  1  0.923216  0.354327  0.034280  1
  H  H185  1  0.426850  0.948220  0.418358  1
  H  H186  1  0.073150  0.551780  0.918358  1
  H  H187  1  0.573150  0.051780  0.581642  1
  H  H188  1  0.926850  0.448220  0.081642  1
  H  H189  1  0.521877  0.994568  0.422888  1
  H  H190  1  0.978123  0.505432  0.922888  1
  H  H191  1  0.478123  0.005432  0.577112  1
  H  H192  1  0.021877  0.494568  0.077112  1
  H  H193  1  0.609570  0.560834  0.443992  1.0
  H  H194  1  0.890430  0.939166  0.943992  1.0
  H  H195  1  0.390430  0.439166  0.556008  1.0
  H  H196  1  0.109570  0.060834  0.056008  1.0
  H  H197  1  0.653366  0.570504  0.488803  1.0
  H  H198  1  0.846634  0.929496  0.988803  1.0
  H  H199  1  0.346634  0.429496  0.511197  1.0
  H  H200  1  0.153366  0.070504  0.011197  1.0
  H  H201  1  0.399460  0.695502  0.595314  1.0
  H  H202  1  0.100540  0.804498  0.095314  1.0
  H  H203  1  0.600540  0.304498  0.404686  1.0
  H  H204  1  0.899460  0.195502  0.904686  1.0
  H  H205  1  0.178818  0.462433  0.428560  1.0
  H  H206  1  0.321182  0.037567  0.928560  1.0
  H  H207  1  0.821182  0.537567  0.571440  1.0
  H  H208  1  0.678818  0.962433  0.071440  1.0
  H  H209  1  0.795808  0.613682  0.211574  1.0
  H  H210  1  0.704192  0.886318  0.711574  1.0
  H  H211  1  0.204192  0.386318  0.788426  1.0
  H  H212  1  0.295808  0.113682  0.288426  1.0
  H  H213  1  0.979142  0.439426  0.351736  1.0
  H  H214  1  0.520858  0.060574  0.851736  1.0
  H  H215  1  0.020858  0.560574  0.648264  1.0
  H  H216  1  0.479142  0.939426  0.148264  1.0
  H  H217  1  0.808341  0.781930  0.446018  1.0
  H  H218  1  0.691659  0.718070  0.946018  1.0
  H  H219  1  0.191659  0.218070  0.553982  1.0
  H  H220  1  0.308341  0.281930  0.053982  1.0
  H  H221  1  0.583393  0.547861  0.285368  1.0
  H  H222  1  0.916607  0.952139  0.785368  1.0
  H  H223  1  0.416607  0.452139  0.714632  1.0
  H  H224  1  0.083393  0.047861  0.214632  1.0
  H  H225  1  0.652586  0.999746  0.650688  1.0
  H  H226  1  0.847414  0.500254  0.150688  1.0
  H  H227  1  0.347414  0.000254  0.349312  1.0
  H  H228  1  0.152586  0.499746  0.849312  1.0
  H  H229  1  0.974781  0.414787  0.508746  1.0
  H  H230  1  0.525219  0.085213  0.008746  1.0
  H  H231  1  0.025219  0.585213  0.491254  1.0
  H  H232  1  0.474781  0.914787  0.991254  1.0
  H  H233  1  0.184264  0.671711  0.646936  1.0
  H  H234  1  0.315736  0.828289  0.146936  1.0
  H  H235  1  0.815736  0.328289  0.353064  1.0
  H  H236  1  0.684264  0.171711  0.853064  1.0
  H  H237  1  0.994023  0.814722  0.351186  1.0
  H  H238  1  0.505977  0.685278  0.851186  1.0
  H  H239  1  0.005977  0.185278  0.648814  1.0
  H  H240  1  0.494023  0.314722  0.148814  1.0
  H  H241  1  0.368188  0.879951  0.633282  1.0
  H  H242  1  0.131812  0.620049  0.133282  1.0
  H  H243  1  0.631812  0.120049  0.366718  1.0
  H  H244  1  0.868188  0.379951  0.866718  1.0
  H  H245  1  0.234205  0.802623  0.652272  1.0
  H  H246  1  0.265795  0.697377  0.152272  1.0
  H  H247  1  0.765795  0.197377  0.347728  1.0
  H  H248  1  0.734205  0.302623  0.847728  1.0
  H  H249  1  0.320057  0.505891  0.280797  1.0
  H  H250  1  0.179943  0.994109  0.780797  1.0
  H  H251  1  0.679943  0.494109  0.719203  1.0
  H  H252  1  0.820057  0.005891  0.219203  1.0
  H  H253  1  0.608724  0.617335  0.133940  1.0
  H  H254  1  0.891276  0.882665  0.633940  1.0
  H  H255  1  0.391276  0.382665  0.866060  1.0
  H  H256  1  0.108724  0.117335  0.366060  1.0
  H  H257  1  0.129148  0.490679  0.196563  1.0
  H  H258  1  0.370852  0.009321  0.696563  1.0
  H  H259  1  0.870852  0.509321  0.803437  1.0
  H  H260  1  0.629148  0.990679  0.303437  1.0
  H  H261  1  0.742466  0.639967  0.136072  1.0
  H  H262  1  0.757534  0.860033  0.636072  1.0
  H  H263  1  0.257534  0.360033  0.863928  1.0
  H  H264  1  0.242466  0.139967  0.363928  1.0
  H  H265  1  0.910732  0.416503  0.430797  1.0
  H  H266  1  0.589268  0.083497  0.930797  1.0
  H  H267  1  0.089268  0.583497  0.569203  1.0
  H  H268  1  0.410732  0.916503  0.069203  1.0
  H  H269  1  0.342376  0.552055  0.124696  1.0
  H  H270  1  0.157624  0.947945  0.624696  1.0
  H  H271  1  0.657624  0.447945  0.875304  1.0
  H  H272  1  0.842376  0.052055  0.375304  1.0
  H  H273  1  0.651811  0.868708  0.527879  1.0
  H  H274  1  0.848189  0.631292  0.027879  1.0
  H  H275  1  0.348189  0.131292  0.472121  1.0
  H  H276  1  0.151811  0.368708  0.972121  1.0
  H  H277  1  0.857521  0.046121  0.571974  1.0
  H  H278  1  0.642479  0.453879  0.071974  1.0
  H  H279  1  0.142479  0.953879  0.428026  1.0
  H  H280  1  0.357521  0.546121  0.928026  1.0
  H  H281  1  0.037976  0.944527  0.357254  1.0
  H  H282  1  0.462024  0.555473  0.857254  1.0
  H  H283  1  0.962024  0.055473  0.642746  1.0
  H  H284  1  0.537976  0.444527  0.142746  1.0
  H  H285  1  0.263584  0.529601  0.050703  1.0
  H  H286  1  0.236416  0.970399  0.550703  1.0
  H  H287  1  0.736416  0.470399  0.949297  1.0
  H  H288  1  0.763584  0.029601  0.449297  1.0
  H  H289  1  0.279827  0.611192  0.070247  1.0
  H  H290  1  0.220173  0.888808  0.570247  1.0
  H  H291  1  0.720173  0.388808  0.929753  1.0
  H  H292  1  0.779827  0.111192  0.429753  1.0
  H  H293  1  0.748126  0.051784  0.717623  1.0
  H  H294  1  0.751874  0.448216  0.217623  1.0
  H  H295  1  0.251874  0.948216  0.282377  1.0
  H  H296  1  0.248126  0.551784  0.782377  1.0
  H  H297  1  0.734096  0.117227  0.690634  1.0
  H  H298  1  0.765904  0.382773  0.190634  1.0
  H  H299  1  0.265904  0.882773  0.309366  1.0
  H  H300  1  0.234096  0.617227  0.809366  1.0
  H  H301  1  0.970702  0.994396  0.409670  1.0
  H  H302  1  0.529298  0.505604  0.909670  1.0
  H  H303  1  0.029298  0.005604  0.590330  1.0
  H  H304  1  0.470702  0.494396  0.090330  1.0
  H  H305  1  0.159841  0.597970  0.032964  1.0
  H  H306  1  0.340159  0.902030  0.532964  1.0
  H  H307  1  0.840159  0.402030  0.967036  1.0
  H  H308  1  0.659841  0.097970  0.467036  1.0
  H  H309  1  0.137984  0.514159  0.016817  1.0
  H  H310  1  0.362016  0.985841  0.516817  1.0
  H  H311  1  0.862016  0.485841  0.983183  1.0
  H  H312  1  0.637984  0.014159  0.483183  1.0
  H  H313  1  0.209292  0.581374  0.988914  1.0
  H  H314  1  0.290708  0.918626  0.488914  1.0
  H  H315  1  0.790708  0.418626  0.011086  1.0
  H  H316  1  0.709292  0.081374  0.511086  1.0
  H  H317  1  0.096987  0.520773  0.736798  1.0
  H  H318  1  0.403013  0.979227  0.236798  1.0
  H  H319  1  0.903013  0.479227  0.263202  1.0
  H  H320  1  0.596987  0.020773  0.763202  1.0
  H  H321  1  0.084824  0.441789  0.759689  1.0
  H  H322  1  0.415176  0.058211  0.259689  1.0
  H  H323  1  0.915176  0.558211  0.240311  1.0
  H  H324  1  0.584824  0.941789  0.740311  1.0
  H  H325  1  0.954131  0.329482  0.677216  1.0
  H  H326  1  0.545869  0.170518  0.177216  1.0
  H  H327  1  0.045869  0.670518  0.322784  1.0
  H  H328  1  0.454131  0.829482  0.822784  1.0
  H  H329  1  0.928937  0.392282  0.657978  1.0
  H  H330  1  0.571063  0.107718  0.157978  1.0
  H  H331  1  0.071063  0.607718  0.342022  1.0
  H  H332  1  0.428937  0.892282  0.842022  1.0
  H  H333  1  0.968515  0.496645  0.751997  1.0
  H  H334  1  0.531485  0.003355  0.251997  1.0
  H  H335  1  0.031485  0.503355  0.248003  1.0
  H  H336  1  0.468515  0.996645  0.748003  1.0
  H  H337  1  0.983922  0.454270  0.800532  1.0
  H  H338  1  0.516078  0.045730  0.300532  1.0
  H  H339  1  0.016078  0.545730  0.199468  1.0
  H  H340  1  0.483922  0.954270  0.699468  1.0
  H  H341  1  0.921205  0.338499  0.760707  1.0
  H  H342  1  0.578795  0.161501  0.260707  1.0
  H  H343  1  0.078795  0.661501  0.239293  1.0
  H  H344  1  0.421205  0.838499  0.739293  1.0
  H  H345  1  0.869912  0.377242  0.736572  1.0
  H  H346  1  0.630088  0.122758  0.236572  1.0
  H  H347  1  0.130088  0.622758  0.263428  1.0
  H  H348  1  0.369912  0.877242  0.763428  1.0
  H  H349  1  0.868403  0.203181  0.710708  1.0
  H  H350  1  0.631597  0.296819  0.210708  1.0
  H  H351  1  0.131597  0.796819  0.289292  1.0
  H  H352  1  0.368403  0.703181  0.789292  1.0
  H  H353  1  0.879728  0.137896  0.739437  1.0
  H  H354  1  0.620272  0.362104  0.239437  1.0
  H  H355  1  0.120272  0.862104  0.260563  1.0
  H  H356  1  0.379728  0.637896  0.760563  1.0
  H  H357  1  0.820716  0.167898  0.762637  1.0
  H  H358  1  0.679284  0.332102  0.262637  1.0
  H  H359  1  0.179284  0.832102  0.237363  1.0
  H  H360  1  0.320716  0.667898  0.737363  1.0
  C  C361  1  0.996060  0.195460  0.392060  1
  C  C362  1  0.503940  0.304540  0.892060  1
  C  C363  1  0.003940  0.804540  0.607940  1
  C  C364  1  0.496060  0.695460  0.107940  1
  C  C365  1  0.970300  0.242070  0.426610  1
  C  C366  1  0.529700  0.257930  0.926610  1
  C  C367  1  0.029700  0.757930  0.573390  1
  C  C368  1  0.470300  0.742070  0.073390  1
  C  C369  1  0.979400  0.143190  0.474890  1
  C  C370  1  0.520600  0.356810  0.974890  1
  C  C371  1  0.020600  0.856810  0.525110  1
  C  C372  1  0.479400  0.643190  0.025110  1
  C  C373  1  0.982900  0.218600  0.481740  1
  C  C374  1  0.517100  0.281400  0.981740  1
  C  C375  1  0.017100  0.781400  0.518260  1
  C  C376  1  0.482900  0.718600  0.018260  1
  C  C377  1  0.553900  0.619880  0.733940  1
  C  C378  1  0.946100  0.880120  0.233940  1
  C  C379  1  0.446100  0.380120  0.266060  1
  C  C380  1  0.053900  0.119880  0.766060  1
  C  C381  1  0.580600  0.703500  0.724720  1
  C  C382  1  0.919400  0.796500  0.224720  1
  C  C383  1  0.419400  0.296500  0.275280  1
  C  C384  1  0.080600  0.203500  0.775280  1
  C  C385  1  0.497300  0.620700  0.657100  1
  C  C386  1  0.002700  0.879300  0.157100  1
  C  C387  1  0.502700  0.379300  0.342900  1
  C  C388  1  0.997300  0.120700  0.842900  1
  C  C389  1  0.538300  0.704400  0.673200  1
  C  C390  1  0.961700  0.795600  0.173200  1
  C  C391  1  0.461700  0.295600  0.326800  1
  C  C392  1  0.038300  0.204400  0.826800  1
  C  C393  1  0.204800  0.725520  0.482160  1
  C  C394  1  0.295200  0.774480  0.982160  1
  C  C395  1  0.795200  0.274480  0.517840  1
  C  C396  1  0.704800  0.225520  0.017840  1
  C  C397  1  0.217800  0.657000  0.468420  1
  C  C398  1  0.282200  0.843000  0.968420  1
  C  C399  1  0.782200  0.343000  0.531580  1
  C  C400  1  0.717800  0.157000  0.031580  1
  C  C401  1  0.174500  0.743000  0.429690  1
  C  C402  1  0.325500  0.757000  0.929690  1
  C  C403  1  0.825500  0.257000  0.570310  1
  C  C404  1  0.674500  0.243000  0.070310  1
  C  C405  1  0.240800  0.668100  0.411620  1
  C  C406  1  0.259200  0.831900  0.911620  1
  C  C407  1  0.759200  0.331900  0.588380  1
  C  C408  1  0.740800  0.168100  0.088380  1
  C  C409  1  0.336900  0.705300  0.273300  1
  C  C410  1  0.163100  0.794700  0.773300  1
  C  C411  1  0.663100  0.294700  0.726700  1
  C  C412  1  0.836900  0.205300  0.226700  1
  C  C413  1  0.326400  0.775100  0.273690  1
  C  C414  1  0.173600  0.724900  0.773690  1
  C  C415  1  0.673600  0.224900  0.726310  1
  C  C416  1  0.826400  0.275100  0.226310  1
  C  C417  1  0.419900  0.727300  0.257890  1
  C  C418  1  0.080100  0.772700  0.757890  1
  C  C419  1  0.580100  0.272700  0.742110  1
  C  C420  1  0.919900  0.227300  0.242110  1
  C  C421  1  0.449000  0.803300  0.233440  1
  C  C422  1  0.051000  0.696700  0.733440  1
  C  C423  1  0.551000  0.196700  0.766560  1
  C  C424  1  0.949000  0.303300  0.266560  1
  C  C425  1  0.486900  0.903400  0.374620  1
  C  C426  1  0.013100  0.596600  0.874620  1
  C  C427  1  0.513100  0.096600  0.625380  1
  C  C428  1  0.986900  0.403400  0.125380  1
  C  C429  1  0.520800  0.850000  0.391900  1
  C  C430  1  0.979200  0.650000  0.891900  1
  C  C431  1  0.479200  0.150000  0.608100  1
  C  C432  1  0.020800  0.350000  0.108100  1
  C  C433  1  0.455900  0.860200  0.466800  1
  C  C434  1  0.044100  0.639800  0.966800  1
  C  C435  1  0.544100  0.139800  0.533200  1
  C  C436  1  0.955900  0.360200  0.033200  1
  C  C437  1  0.424100  0.884200  0.420000  1
  C  C438  1  0.075900  0.615800  0.920000  1
  C  C439  1  0.575900  0.115800  0.580000  1
  C  C440  1  0.924100  0.384200  0.080000  1
  C  C441  1  0.478700  0.889400  0.458700  1
  C  C442  1  0.021300  0.610600  0.958700  1
  C  C443  1  0.521300  0.110600  0.541300  1
  C  C444  1  0.978700  0.389400  0.041300  1
  C  C445  1  0.477400  0.944700  0.419000  1
  C  C446  1  0.022600  0.555300  0.919000  1
  C  C447  1  0.522600  0.055300  0.581000  1
  C  C448  1  0.977400  0.444700  0.081000  1
  C  C449  1  0.083910  0.439280  0.476550  1.0
  C  C450  1  0.416090  0.060720  0.976550  1.0
  C  C451  1  0.916090  0.560720  0.523450  1.0
  C  C452  1  0.583910  0.939280  0.023450  1.0
  C  C453  1  0.366870  0.716950  0.607670  1.0
  C  C454  1  0.133130  0.783050  0.107670  1.0
  C  C455  1  0.633130  0.283050  0.392330  1.0
  C  C456  1  0.866870  0.216950  0.892330  1.0
  C  C457  1  0.286720  0.670390  0.620360  1.0
  C  C458  1  0.213280  0.829610  0.120360  1.0
  C  C459  1  0.713280  0.329610  0.379640  1.0
  C  C460  1  0.786720  0.170390  0.879640  1.0
  C  C461  1  0.895510  0.785000  0.397540  1.0
  C  C462  1  0.604490  0.715000  0.897540  1.0
  C  C463  1  0.104490  0.215000  0.602460  1.0
  C  C464  1  0.395510  0.285000  0.102460  1.0
  C  C465  1  0.124980  0.452680  0.428970  1.0
  C  C466  1  0.375020  0.047320  0.928970  1.0
  C  C467  1  0.875020  0.547320  0.571030  1.0
  C  C468  1  0.624980  0.952680  0.071030  1.0
  C  C469  1  0.742530  0.605770  0.211110  1.0
  C  C470  1  0.757470  0.894230  0.711110  1.0
  C  C471  1  0.257470  0.394230  0.788890  1.0
  C  C472  1  0.242530  0.105770  0.288890  1.0
  C  C473  1  0.005160  0.438800  0.382960  1.0
  C  C474  1  0.494840  0.061200  0.882960  1.0
  C  C475  1  0.994840  0.561200  0.617040  1.0
  C  C476  1  0.505160  0.938800  0.117040  1.0
  C  C477  1  0.085830  0.451580  0.381850  1.0
  C  C478  1  0.414170  0.048420  0.881850  1.0
  C  C479  1  0.914170  0.548420  0.618150  1.0
  C  C480  1  0.585830  0.951580  0.118150  1.0
  C  C481  1  0.581810  0.579280  0.209310  1.0
  C  C482  1  0.918190  0.920720  0.709310  1.0
  C  C483  1  0.418190  0.420720  0.790690  1.0
  C  C484  1  0.081810  0.079280  0.290690  1.0
  C  C485  1  0.695150  0.578790  0.255940  1.0
  C  C486  1  0.804850  0.921210  0.755940  1.0
  C  C487  1  0.304850  0.421210  0.744060  1.0
  C  C488  1  0.195150  0.078790  0.244060  1.0
  C  C489  1  0.854980  0.814600  0.428690  1.0
  C  C490  1  0.645020  0.685400  0.928690  1.0
  C  C491  1  0.145020  0.185400  0.571310  1.0
  C  C492  1  0.354980  0.314600  0.071310  1.0
  C  C493  1  0.498050  0.563230  0.207980  1.0
  C  C494  1  0.001950  0.936770  0.707980  1.0
  C  C495  1  0.501950  0.436770  0.792020  1.0
  C  C496  1  0.998050  0.063230  0.292020  1.0
  C  C497  1  0.614840  0.565650  0.255290  1.0
  C  C498  1  0.885160  0.934350  0.755290  1.0
  C  C499  1  0.385160  0.434350  0.744710  1.0
  C  C500  1  0.114840  0.065650  0.244710  1.0
  C  C501  1  0.679950  0.988030  0.624180  1.0
  C  C502  1  0.820050  0.511970  0.124180  1.0
  C  C503  1  0.320050  0.011970  0.375820  1.0
  C  C504  1  0.179950  0.488030  0.875820  1.0
  C  C505  1  0.126670  0.441370  0.526910  1.0
  C  C506  1  0.373330  0.058630  0.026910  1.0
  C  C507  1  0.873330  0.558630  0.473090  1.0
  C  C508  1  0.626670  0.941370  0.973090  1.0
  C  C509  1  0.002770  0.424760  0.477040  1.0
  C  C510  1  0.497230  0.075240  0.977040  1.0
  C  C511  1  0.997230  0.575240  0.522960  1.0
  C  C512  1  0.502770  0.924760  0.022960  1.0
  C  C513  1  0.237370  0.702580  0.637870  1.0
  C  C514  1  0.262630  0.797420  0.137870  1.0
  C  C515  1  0.762630  0.297420  0.362130  1.0
  C  C516  1  0.737370  0.202580  0.862130  1.0
  C  C517  1  0.638450  0.926850  0.590160  1.0
  C  C518  1  0.861550  0.573150  0.090160  1.0
  C  C519  1  0.361550  0.073150  0.409840  1.0
  C  C520  1  0.138450  0.426850  0.909840  1.0
  C  C521  1  0.255210  0.585800  0.616570  1.0
  C  C522  1  0.244790  0.914200  0.116570  1.0
  C  C523  1  0.744790  0.414200  0.383430  1.0
  C  C524  1  0.755210  0.085800  0.883430  1.0
  C  C525  1  0.730770  0.564630  0.305450  1.0
  C  C526  1  0.769230  0.935370  0.805450  1.0
  C  C527  1  0.269230  0.435370  0.694550  1.0
  C  C528  1  0.230770  0.064630  0.194550  1.0
  C  C529  1  0.216460  0.495730  0.246630  1.0
  C  C530  1  0.283540  0.004270  0.746630  1.0
  C  C531  1  0.783540  0.504270  0.753370  1.0
  C  C532  1  0.716460  0.995730  0.253370  1.0
  C  C533  1  0.965480  0.834110  0.371390  1.0
  C  C534  1  0.534520  0.665890  0.871390  1.0
  C  C535  1  0.034520  0.165890  0.628610  1.0
  C  C536  1  0.465480  0.334110  0.128610  1.0
  C  C537  1  0.762030  0.954710  0.543490  1.0
  C  C538  1  0.737970  0.545290  0.043490  1.0
  C  C539  1  0.237970  0.045290  0.456510  1.0
  C  C540  1  0.262030  0.454710  0.956510  1.0
  C  C541  1  0.553170  0.881580  0.597130  1.0
  C  C542  1  0.946830  0.618420  0.097130  1.0
  C  C543  1  0.446830  0.118420  0.402870  1.0
  C  C544  1  0.053170  0.381580  0.902870  1.0
  C  C545  1  0.428300  0.548300  0.206120  1.0
  C  C546  1  0.071700  0.951700  0.706120  1.0
  C  C547  1  0.571700  0.451700  0.793880  1.0
  C  C548  1  0.928300  0.048300  0.293880  1.0
  C  C549  1  0.348050  0.827650  0.630050  1.0
  C  C550  1  0.151950  0.672350  0.130050  1.0
  C  C551  1  0.651950  0.172350  0.369950  1.0
  C  C552  1  0.848050  0.327650  0.869950  1.0
  C  C553  1  0.230160  0.522860  0.153330  1.0
  C  C554  1  0.269840  0.977140  0.653330  1.0
  C  C555  1  0.769840  0.477140  0.846670  1.0
  C  C556  1  0.730160  0.022860  0.346670  1.0
  C  C557  1  0.841860  0.920310  0.470570  1.0
  C  C558  1  0.658140  0.579690  0.970570  1.0
  C  C559  1  0.158140  0.079690  0.529430  1.0
  C  C560  1  0.341860  0.420310  0.029430  1.0
  C  C561  1  0.883160  0.893300  0.434580  1.0
  C  C562  1  0.616840  0.606700  0.934580  1.0
  C  C563  1  0.116840  0.106700  0.565420  1.0
  C  C564  1  0.383160  0.393300  0.065420  1.0
  C  C565  1  0.267710  0.781150  0.641790  1.0
  C  C566  1  0.232290  0.718850  0.141790  1.0
  C  C567  1  0.732290  0.218850  0.358210  1.0
  C  C568  1  0.767710  0.281150  0.858210  1.0
  C  C569  1  0.805200  0.936460  0.503220  1.0
  C  C570  1  0.694800  0.563540  0.003220  1.0
  C  C571  1  0.194800  0.063540  0.496780  1.0
  C  C572  1  0.305200  0.436460  0.996780  1.0
  C  C573  1  0.297640  0.510280  0.248930  1.0
  C  C574  1  0.202360  0.989720  0.748930  1.0
  C  C575  1  0.702360  0.489720  0.751070  1.0
  C  C576  1  0.797640  0.010280  0.251070  1.0
  C  C577  1  0.630230  0.607520  0.164510  1.0
  C  C578  1  0.869770  0.892480  0.664510  1.0
  C  C579  1  0.369770  0.392480  0.835490  1.0
  C  C580  1  0.130230  0.107520  0.335490  1.0
  C  C581  1  0.762620  0.031210  0.617990  1.0
  C  C582  1  0.737380  0.468790  0.117990  1.0
  C  C583  1  0.237380  0.968790  0.382010  1.0
  C  C584  1  0.262620  0.531210  0.882010  1.0
  C  C585  1  0.183190  0.501390  0.198440  1.0
  C  C586  1  0.316810  0.998610  0.698440  1.0
  C  C587  1  0.816810  0.498610  0.801560  1.0
  C  C588  1  0.683190  0.001390  0.301560  1.0
  C  C589  1  0.863480  0.700420  0.392690  1.0
  C  C590  1  0.636520  0.799580  0.892690  1.0
  C  C591  1  0.136520  0.299580  0.607310  1.0
  C  C592  1  0.363480  0.200420  0.107310  1.0
  C  C593  1  0.344590  0.531280  0.203490  1.0
  C  C594  1  0.155410  0.968720  0.703490  1.0
  C  C595  1  0.655410  0.468720  0.796510  1.0
  C  C596  1  0.844590  0.031280  0.296510  1.0
  C  C597  1  0.710370  0.620870  0.165750  1.0
  C  C598  1  0.789630  0.879130  0.665750  1.0
  C  C599  1  0.289630  0.379130  0.834250  1.0
  C  C600  1  0.210370  0.120870  0.334250  1.0
  C  C601  1  0.169100  0.477710  0.293680  1.0
  C  C602  1  0.330900  0.022290  0.793680  1.0
  C  C603  1  0.830900  0.522290  0.706320  1.0
  C  C604  1  0.669100  0.977710  0.206320  1.0
  C  C605  1  0.964290  0.425280  0.430300  1.0
  C  C606  1  0.535710  0.074720  0.930300  1.0
  C  C607  1  0.035710  0.574720  0.569700  1.0
  C  C608  1  0.464290  0.925280  0.069700  1.0
  C  C609  1  0.398450  0.795680  0.613410  1.0
  C  C610  1  0.101550  0.704320  0.113410  1.0
  C  C611  1  0.601550  0.204320  0.386590  1.0
  C  C612  1  0.898450  0.295680  0.886590  1.0
  C  C613  1  0.311100  0.537900  0.155060  1.0
  C  C614  1  0.188900  0.962100  0.655060  1.0
  C  C615  1  0.688900  0.462100  0.844940  1.0
  C  C616  1  0.811100  0.037900  0.344940  1.0
  C  C617  1  0.679240  0.909700  0.550100  1.0
  C  C618  1  0.820760  0.590300  0.050100  1.0
  C  C619  1  0.320760  0.090300  0.449900  1.0
  C  C620  1  0.179240  0.409700  0.949900  1.0
  C  C621  1  0.802970  0.015650  0.576990  1.0
  C  C622  1  0.697030  0.484350  0.076990  1.0
  C  C623  1  0.197030  0.984350  0.423010  1.0
  C  C624  1  0.302970  0.515650  0.923010  1.0
  C  C625  1  0.482700  0.843440  0.603590  1.0
  C  C626  1  0.017300  0.656560  0.103590  1.0
  C  C627  1  0.517300  0.156560  0.396410  1.0
  C  C628  1  0.982700  0.343440  0.896410  1.0
  C  C629  1  0.992370  0.912110  0.375660  1.0
  C  C630  1  0.507630  0.587890  0.875660  1.0
  C  C631  1  0.007630  0.087890  0.624340  1.0
  C  C632  1  0.492370  0.412110  0.124340  1.0
  C  C633  1  0.238270  0.560710  0.062840  1.0
  C  C634  1  0.261730  0.939290  0.562840  1.0
  C  C635  1  0.761730  0.439290  0.937160  1.0
  C  C636  1  0.738270  0.060710  0.437160  1.0
  C  C637  1  0.773950  0.099210  0.698490  1.0
  C  C638  1  0.726050  0.400790  0.198490  1.0
  C  C639  1  0.226050  0.900790  0.301510  1.0
  C  C640  1  0.273950  0.599210  0.801510  1.0
  C  C641  1  0.129830  0.465450  0.333070  1.0
  C  C642  1  0.370170  0.034550  0.833070  1.0
  C  C643  1  0.870170  0.534550  0.666930  1.0
  C  C644  1  0.629830  0.965450  0.166930  1.0
  C  C645  1  0.952100  0.942190  0.406990  1.0
  C  C646  1  0.547900  0.557810  0.906990  1.0
  C  C647  1  0.047900  0.057810  0.593010  1.0
  C  C648  1  0.452100  0.442190  0.093010  1.0
  C  C649  1  0.181160  0.563840  0.021640  1.0
  C  C650  1  0.318840  0.936160  0.521640  1.0
  C  C651  1  0.818840  0.436160  0.978360  1.0
  C  C652  1  0.681160  0.063840  0.478360  1.0
  C  C653  1  0.060200  0.467330  0.738860  1.0
  C  C654  1  0.439800  0.032670  0.238860  1.0
  C  C655  1  0.939800  0.532670  0.261140  1.0
  C  C656  1  0.560200  0.967330  0.761140  1.0
  C  C657  1  0.957840  0.379260  0.684950  1.0
  C  C658  1  0.542160  0.120740  0.184950  1.0
  C  C659  1  0.042160  0.620740  0.315050  1.0
  C  C660  1  0.457840  0.879260  0.815050  1.0
  C  C661  1  0.982420  0.456380  0.762350  1.0
  C  C662  1  0.517580  0.043620  0.262350  1.0
  C  C663  1  0.017580  0.543620  0.237650  1.0
  C  C664  1  0.482420  0.956380  0.737650  1.0
  C  C665  1  0.923430  0.380250  0.739260  1.0
  C  C666  1  0.576570  0.119750  0.239260  1.0
  C  C667  1  0.076570  0.619750  0.260740  1.0
  C  C668  1  0.423430  0.880250  0.760740  1.0
  C  C669  1  0.841900  0.157400  0.730780  1.0
  C  C670  1  0.658100  0.342600  0.230780  1.0
  C  C671  1  0.158100  0.842600  0.269220  1.0
  C  C672  1  0.341900  0.657400  0.769220  1.0
  O  O673  1  0.981150  0.127900  0.420560  1
  O  O674  1  0.518850  0.372100  0.920560  1
  O  O675  1  0.018850  0.872100  0.579440  1
  O  O676  1  0.481150  0.627900  0.079440  1
  O  O677  1  0.537410  0.584190  0.683780  1
  O  O678  1  0.962590  0.915810  0.183780  1
  O  O679  1  0.462590  0.415810  0.316220  1
  O  O680  1  0.037410  0.084190  0.816220  1
  O  O681  1  0.214080  0.719950  0.389870  1
  O  O682  1  0.285920  0.780050  0.889870  1
  O  O683  1  0.785920  0.280050  0.610130  1
  O  O684  1  0.714080  0.219950  0.110130  1
  O  O685  1  0.390580  0.829370  0.242680  1
  O  O686  1  0.109420  0.670630  0.742680  1
  O  O687  1  0.609420  0.170630  0.757320  1
  O  O688  1  0.890580  0.329370  0.257320  1
  O  O689  1  0.520200  0.845600  0.449600  1
  O  O690  1  0.979800  0.654400  0.949600  1
  O  O691  1  0.479800  0.154400  0.550400  1
  O  O692  1  0.020200  0.345600  0.050400  1
  O  O693  1  0.086200  0.427490  0.568720  1.0
  O  O694  1  0.413800  0.072510  0.068720  1.0
  O  O695  1  0.913800  0.572510  0.431280  1.0
  O  O696  1  0.586200  0.927490  0.931280  1.0
  O  O697  1  0.184510  0.546360  0.633810  1.0
  O  O698  1  0.315490  0.953640  0.133810  1.0
  O  O699  1  0.815490  0.453640  0.366190  1.0
  O  O700  1  0.684510  0.046360  0.866190  1.0
  O  O701  1  0.200800  0.457830  0.523640  1.0
  O  O702  1  0.299200  0.042170  0.023640  1.0
  O  O703  1  0.799200  0.542170  0.476360  1.0
  O  O704  1  0.700800  0.957830  0.976360  1.0
  O  O705  1  0.900900  0.675190  0.363590  1.0
  O  O706  1  0.599100  0.824810  0.863590  1.0
  O  O707  1  0.099100  0.324810  0.636410  1.0
  O  O708  1  0.400900  0.175190  0.136410  1.0
  O  O709  1  0.191500  0.528520  0.109010  1.0
  O  O710  1  0.308500  0.971480  0.609010  1.0
  O  O711  1  0.808500  0.471480  0.890990  1.0
  O  O712  1  0.691500  0.028520  0.390990  1.0
  O  O713  1  0.040200  0.434600  0.686880  1.0
  O  O714  1  0.459800  0.065400  0.186880  1.0
  O  O715  1  0.959800  0.565400  0.313120  1.0
  O  O716  1  0.540200  0.934600  0.813120  1.0
  O  O717  1  0.693240  0.560400  0.347780  1.0
  O  O718  1  0.806760  0.939600  0.847780  1.0
  O  O719  1  0.306760  0.439600  0.652220  1.0
  O  O720  1  0.193240  0.060400  0.152220  1.0
  O  O721  1  0.300960  0.560280  0.597330  1.0
  O  O722  1  0.199040  0.939720  0.097330  1.0
  O  O723  1  0.699040  0.439720  0.402670  1.0
  O  O724  1  0.800960  0.060280  0.902670  1.0
  O  O725  1  0.800150  0.660950  0.418640  1.0
  O  O726  1  0.699850  0.839050  0.918640  1.0
  O  O727  1  0.199850  0.339050  0.581360  1.0
  O  O728  1  0.300150  0.160950  0.081360  1.0
  O  O729  1  0.796200  0.559820  0.300810  1.0
  O  O730  1  0.703800  0.940180  0.800810  1.0
  O  O731  1  0.203800  0.440180  0.699190  1.0
  O  O732  1  0.296200  0.059820  0.199190  1.0
  O  O733  1  0.809840  0.088880  0.650470  1.0
  O  O734  1  0.690160  0.411120  0.150470  1.0
  O  O735  1  0.190160  0.911120  0.349530  1.0
  O  O736  1  0.309840  0.588880  0.849530  1.0
  O  O737  1  0.636750  0.541780  0.461240  1.0
  O  O738  1  0.863250  0.958220  0.961240  1.0
  O  O739  1  0.363250  0.458220  0.538760  1.0
  O  O740  1  0.136750  0.041780  0.038760  1.0
