# generated using pymatgen
data_Cu2H45C62NO12
_symmetry_space_group_name_H-M   'P 1'
_cell_length_a   15.96530000
_cell_length_b   17.69100000
_cell_length_c   18.22580000
_cell_angle_alpha   61.81100000
_cell_angle_beta   88.11000000
_cell_angle_gamma   64.12500000
_symmetry_Int_Tables_number   1
_chemical_formula_structural   Cu2H45C62NO12
_chemical_formula_sum   'Cu4 H90 C124 N2 O24'
_cell_volume   3983.80368355
_cell_formula_units_Z   2
loop_
 _symmetry_equiv_pos_site_id
 _symmetry_equiv_pos_as_xyz
  1  'x, y, z'
loop_
 _atom_site_type_symbol
 _atom_site_label
 _atom_site_symmetry_multiplicity
 _atom_site_fract_x
 _atom_site_fract_y
 _atom_site_fract_z
 _atom_site_occupancy
  Cu  Cu1  1  0.746330  0.823460  0.823560  1.0
  Cu  Cu2  1  0.253670  0.176540  0.176440  1.0
  Cu  Cu3  1  0.159450  0.105710  0.287300  1.0
  Cu  Cu4  1  0.840550  0.894290  0.712700  1.0
  H  H5  1  0.714978  0.918982  0.488700  1
  H  H6  1  0.285022  0.081018  0.511300  1
  H  H7  1  0.607005  0.770212  0.673066  1
  H  H8  1  0.392995  0.229788  0.326934  1
  H  H9  1  0.543697  0.831685  0.432413  1
  H  H10  1  0.456303  0.168315  0.567587  1
  H  H11  1  0.535463  0.754500  0.575581  1
  H  H12  1  0.464537  0.245500  0.424419  1
  H  H13  1  0.496009  0.051158  0.143773  1.0
  H  H14  1  0.503991  0.948842  0.856227  1.0
  H  H15  1  0.081526  0.025586  0.420950  1.0
  H  H16  1  0.918474  0.974414  0.579050  1.0
  H  H17  1  0.052461  0.011751  0.359178  1.0
  H  H18  1  0.947539  0.988249  0.640822  1.0
  H  H19  1  0.976858  0.105036  0.125069  1.0
  H  H20  1  0.023142  0.894964  0.874931  1.0
  H  H21  1  0.294718  0.784679  0.284250  1.0
  H  H22  1  0.705282  0.215321  0.715750  1.0
  H  H23  1  0.249638  0.760586  0.225711  1.0
  H  H24  1  0.750362  0.239414  0.774289  1.0
  H  H25  1  0.372053  0.145575  0.027794  1.0
  H  H26  1  0.627947  0.854425  0.972206  1.0
  H  H27  1  0.425488  0.040641  0.034902  1.0
  H  H28  1  0.574512  0.959359  0.965098  1.0
  H  H29  1  0.638420  0.192486  0.590038  1.0
  H  H30  1  0.361580  0.807514  0.409962  1.0
  H  H31  1  0.643463  0.125266  0.959719  1.0
  H  H32  1  0.356537  0.874734  0.040281  1.0
  H  H33  1  0.322273  0.222767  0.879412  1.0
  H  H34  1  0.677727  0.777233  0.120588  1.0
  H  H35  1  0.288111  0.141881  0.924491  1.0
  H  H36  1  0.711889  0.858119  0.075509  1.0
  H  H37  1  0.379911  0.120267  0.883495  1.0
  H  H38  1  0.620089  0.879733  0.116505  1.0
  H  H39  1  0.247100  0.943205  0.164921  1.0
  H  H40  1  0.752900  0.056795  0.835079  1.0
  H  H41  1  0.156314  0.926972  0.187025  1.0
  H  H42  1  0.843686  0.073028  0.812975  1.0
  H  H43  1  0.199251  0.919027  0.108838  1.0
  H  H44  1  0.800749  0.080973  0.891162  1.0
  H  H45  1  0.499801  0.099201  0.775615  1.0
  H  H46  1  0.500199  0.900799  0.224385  1.0
  H  H47  1  0.915875  0.378256  0.240630  1.0
  H  H48  1  0.084125  0.621744  0.759370  1.0
  H  H49  1  0.926385  0.141829  0.890753  1.0
  H  H50  1  0.073615  0.858171  0.109247  1.0
  H  H51  1  0.132404  0.189196  0.954171  1.0
  H  H52  1  0.867596  0.810804  0.045829  1.0
  H  H53  1  0.378126  0.619256  0.333236  1.0
  H  H54  1  0.621874  0.380744  0.666764  1.0
  H  H55  1  0.372630  0.380424  0.584475  1.0
  H  H56  1  0.627370  0.619576  0.415525  1.0
  H  H57  1  0.064860  0.480331  0.071133  1.0
  H  H58  1  0.935140  0.519669  0.928867  1.0
  H  H59  1  0.526858  0.717756  0.161113  1.0
  H  H60  1  0.473142  0.282244  0.838887  1.0
  H  H61  1  0.941939  0.638685  0.017668  1.0
  H  H62  1  0.058061  0.361315  0.982332  1.0
  H  H63  1  0.806768  0.669324  0.074009  1.0
  H  H64  1  0.193232  0.330676  0.925991  1.0
  H  H65  1  0.370318  0.255645  0.709748  1.0
  H  H66  1  0.629682  0.744355  0.290252  1.0
  H  H67  1  0.759777  0.012649  0.206503  1.0
  H  H68  1  0.240223  0.987351  0.793497  1.0
  H  H69  1  0.048510  0.182967  0.856400  1.0
  H  H70  1  0.951490  0.817033  0.143600  1.0
  H  H71  1  0.657629  0.438459  0.360421  1.0
  H  H72  1  0.342371  0.561541  0.639579  1.0
  H  H73  1  0.442485  0.877320  0.541223  1.0
  H  H74  1  0.557515  0.122680  0.458777  1.0
  H  H75  1  0.471708  0.929578  0.404335  1.0
  H  H76  1  0.528292  0.070422  0.595665  1.0
  H  H77  1  0.543285  0.850229  0.649424  1.0
  H  H78  1  0.456715  0.149771  0.350576  1.0
  H  H79  1  0.703194  0.933495  0.483940  1.0
  H  H80  1  0.296806  0.066505  0.516060  1.0
  H  H81  1  0.594144  0.771026  0.820693  1.0
  H  H82  1  0.405856  0.228974  0.179307  1.0
  H  H83  1  0.602037  0.588589  0.046931  1.0
  H  H84  1  0.397963  0.411411  0.953069  1.0
  H  H85  1  0.524058  0.692685  0.031899  1.0
  H  H86  1  0.475942  0.307315  0.968101  1.0
  H  H87  1  0.633622  0.667288  0.035097  1.0
  H  H88  1  0.366378  0.332712  0.964903  1.0
  H  H89  1  0.428810  0.727029  0.911623  1.0
  H  H90  1  0.571190  0.272971  0.088377  1.0
  H  H91  1  0.500058  0.630195  0.910456  1.0
  H  H92  1  0.499942  0.369805  0.089544  1.0
  H  H93  1  0.472701  0.735204  0.829616  1.0
  H  H94  1  0.527299  0.264796  0.170384  1.0
  C  C95  1  0.675400  0.888900  0.505300  1
  C  C96  1  0.324600  0.111100  0.494700  1
  C  C97  1  0.633300  0.933200  0.353800  1
  C  C98  1  0.366700  0.066800  0.646200  1
  C  C99  1  0.613000  0.798700  0.615400  1
  C  C100  1  0.387000  0.201300  0.384600  1
  C  C101  1  0.628300  0.885400  0.445600  1
  C  C102  1  0.371700  0.114600  0.554400  1
  C  C103  1  0.575800  0.835300  0.472600  1
  C  C104  1  0.424200  0.164700  0.527400  1
  C  C105  1  0.569500  0.790500  0.557600  1
  C  C106  1  0.430500  0.209500  0.442400  1
  C  C107  1  0.665400  0.848200  0.590200  1
  C  C108  1  0.334600  0.151800  0.409800  1
  C  C109  1  0.551570  0.055500  0.127360  1.0
  C  C110  1  0.448430  0.944500  0.872640  1.0
  C  C111  1  0.558290  0.091990  0.042250  1.0
  C  C112  1  0.441710  0.908010  0.957750  1.0
  C  C113  1  0.661300  0.028040  0.724690  1.0
  C  C114  1  0.338700  0.971960  0.275310  1.0
  C  C115  1  0.063100  0.147490  0.049290  1.0
  C  C116  1  0.936900  0.852510  0.950710  1.0
  C  C117  1  0.580990  0.129880  0.688530  1.0
  C  C118  1  0.419010  0.870120  0.311470  1.0
  C  C119  1  0.938190  0.121420  0.010980  1.0
  C  C120  1  0.061810  0.878580  0.989020  1.0
  C  C121  1  0.118010  0.147250  0.114420  1.0
  C  C122  1  0.881990  0.852750  0.885580  1.0
  C  C123  1  0.990590  0.122070  0.070040  1.0
  C  C124  1  0.009410  0.877930  0.929960  1.0
  C  C125  1  0.280110  0.798920  0.225350  1.0
  C  C126  1  0.719890  0.201080  0.774650  1.0
  C  C127  1  0.406250  0.110800  0.997810  1.0
  C  C128  1  0.593750  0.889200  0.002190  1.0
  C  C129  1  0.583730  0.205380  0.614130  1.0
  C  C130  1  0.416270  0.794620  0.385870  1.0
  C  C131  1  0.639350  0.100170  0.017920  1.0
  C  C132  1  0.360650  0.899830  0.982080  1.0
  C  C133  1  0.343670  0.152580  0.913980  1.0
  C  C134  1  0.656330  0.847420  0.086020  1.0
  C  C135  1  0.627830  0.025200  0.188720  1.0
  C  C136  1  0.372170  0.974800  0.811280  1.0
  C  C137  1  0.215010  0.906420  0.166380  1.0
  C  C138  1  0.784990  0.093580  0.833620  1.0
  C  C139  1  0.001560  0.413290  0.160170  1.0
  C  C140  1  0.998440  0.586710  0.839830  1.0
  C  C141  1  0.501390  0.149710  0.724300  1.0
  C  C142  1  0.498610  0.850290  0.275700  1.0
  C  C143  1  0.861160  0.099100  0.033040  1.0
  C  C144  1  0.138840  0.900900  0.966960  1.0
  C  C145  1  0.506570  0.299290  0.575330  1.0
  C  C146  1  0.493430  0.700710  0.424670  1.0
  C  C147  1  0.077290  0.311120  0.190300  1.0
  C  C148  1  0.922710  0.688880  0.809700  1.0
  C  C149  1  0.704380  0.866320  0.650150  1.0
  C  C150  1  0.295620  0.133680  0.349850  1.0
  C  C151  1  0.713980  0.071600  0.078740  1.0
  C  C152  1  0.286020  0.928400  0.921260  1.0
  C  C153  1  0.921190  0.431200  0.195170  1.0
  C  C154  1  0.078810  0.568800  0.804830  1.0
  C  C155  1  0.440690  0.682680  0.241250  1.0
  C  C156  1  0.559310  0.317320  0.758750  1.0
  C  C157  1  0.510030  0.376640  0.498680  1.0
  C  C158  1  0.489970  0.623360  0.501320  1.0
  C  C159  1  0.960680  0.143600  0.931050  1.0
  C  C160  1  0.039320  0.856400  0.068950  1.0
  C  C161  1  0.622200  0.985500  0.277330  1.0
  C  C162  1  0.377800  0.014500  0.722670  1.0
  C  C163  1  0.083730  0.171040  0.969100  1.0
  C  C164  1  0.916270  0.828960  0.030900  1.0
  C  C165  1  0.436120  0.608390  0.314100  1.0
  C  C166  1  0.563880  0.391610  0.685900  1.0
  C  C167  1  0.426280  0.316980  0.611240  1.0
  C  C168  1  0.573720  0.683020  0.388760  1.0
  C  C169  1  0.009500  0.491690  0.094350  1.0
  C  C170  1  0.990500  0.508310  0.905650  1.0
  C  C171  1  0.605810  0.575570  0.256620  1.0
  C  C172  1  0.394190  0.424430  0.743380  1.0
  C  C173  1  0.794620  0.085400  0.053460  1.0
  C  C174  1  0.205380  0.914600  0.946540  1.0
  C  C175  1  0.524690  0.666810  0.211640  1.0
  C  C176  1  0.475310  0.333190  0.788360  1.0
  C  C177  1  0.693300  0.559150  0.225800  1.0
  C  C178  1  0.306700  0.440850  0.774200  1.0
  C  C179  1  0.936600  0.585760  0.063090  1.0
  C  C180  1  0.063400  0.414240  0.936910  1.0
  C  C181  1  0.848290  0.526720  0.163710  1.0
  C  C182  1  0.151710  0.473280  0.836290  1.0
  C  C183  1  0.856500  0.604190  0.096480  1.0
  C  C184  1  0.143500  0.395810  0.903520  1.0
  C  C185  1  0.764100  0.544440  0.199130  1.0
  C  C186  1  0.235900  0.455560  0.800870  1.0
  C  C187  1  0.424720  0.242700  0.685300  1.0
  C  C188  1  0.575280  0.757300  0.314700  1.0
  C  C189  1  0.708500  0.033200  0.164690  1.0
  C  C190  1  0.291500  0.966800  0.835310  1.0
  C  C191  1  0.033200  0.168100  0.910710  1.0
  C  C192  1  0.966800  0.831900  0.089290  1.0
  C  C193  1  0.514350  0.439690  0.435750  1.0
  C  C194  1  0.485650  0.560310  0.564250  1.0
  C  C195  1  0.634700  0.887900  0.577900  1.0
  C  C196  1  0.365300  0.112100  0.422100  1.0
  C  C197  1  0.602450  0.500590  0.330200  1.0
  C  C198  1  0.397550  0.499410  0.669800  1.0
  C  C199  1  0.518340  0.516680  0.359420  1.0
  C  C200  1  0.481660  0.483320  0.640580  1.0
  C  C201  1  0.591900  0.934300  0.431500  1.0
  C  C202  1  0.408100  0.065700  0.568500  1.0
  C  C203  1  0.496100  0.887900  0.529600  1.0
  C  C204  1  0.503900  0.112100  0.470400  1.0
  C  C205  1  0.513200  0.918900  0.448400  1.0
  C  C206  1  0.486800  0.081100  0.551600  1.0
  C  C207  1  0.555700  0.872100  0.593700  1.0
  C  C208  1  0.444300  0.127900  0.406300  1.0
  C  C209  1  0.651000  0.920500  0.496100  1.0
  C  C210  1  0.349000  0.079500  0.503900  1.0
  C  C211  1  0.606400  0.967900  0.347000  1.0
  C  C212  1  0.393600  0.032100  0.653000  1.0
  C  C213  1  0.611800  0.742900  0.880550  1.0
  C  C214  1  0.388200  0.257100  0.119450  1.0
  C  C215  1  0.583000  0.658300  0.017400  1.0
  C  C216  1  0.417000  0.341700  0.982600  1.0
  C  C217  1  0.485300  0.697300  0.892000  1.0
  C  C218  1  0.514700  0.302700  0.108000  1.0
  N  N219  1  0.567500  0.696300  0.928850  1.0
  N  N220  1  0.432500  0.303700  0.071150  1.0
  O  O221  1  0.489010  0.124060  0.977100  1.0
  O  O222  1  0.510990  0.875940  0.022900  1.0
  O  O223  1  0.181110  0.173720  0.093000  1.0
  O  O224  1  0.818890  0.826280  0.907000  1.0
  O  O225  1  0.732240  0.018280  0.691050  1.0
  O  O226  1  0.267760  0.981720  0.308950  1.0
  O  O227  1  0.650560  0.959490  0.784200  1.0
  O  O228  1  0.349440  0.040510  0.215800  1.0
  O  O229  1  0.672880  0.753000  0.905980  1.0
  O  O230  1  0.327120  0.247000  0.094020  1.0
  O  O231  1  0.096930  0.120380  0.186750  1.0
  O  O232  1  0.903070  0.879620  0.813250  1.0
  O  O233  1  0.365970  0.774500  0.193390  1.0
  O  O234  1  0.634030  0.225500  0.806610  1.0
  O  O235  1  0.066870  0.242100  0.249940  1.0
  O  O236  1  0.933130  0.757900  0.750060  1.0
  O  O237  1  0.764660  0.896060  0.628150  1.0
  O  O238  1  0.235340  0.103940  0.371850  1.0
  O  O239  1  0.145550  0.300800  0.152720  1.0
  O  O240  1  0.854450  0.699200  0.847280  1.0
  O  O241  1  0.686460  0.834190  0.723510  1.0
  O  O242  1  0.313540  0.165810  0.276490  1.0
  O  O243  1  0.085500  0.036220  0.368910  1.0
  O  O244  1  0.914500  0.963780  0.631090  1.0
