# generated using pymatgen
data_V15H28C52N6(ClO53)3
_symmetry_space_group_name_H-M   'P 1'
_cell_length_a   20.29103577
_cell_length_b   20.29103577
_cell_length_c   20.29103577
_cell_angle_alpha   95.06796281
_cell_angle_beta   117.11843616
_cell_angle_gamma   117.11843616
_symmetry_Int_Tables_number   1
_chemical_formula_structural   V15H28C52N6(ClO53)3
_chemical_formula_sum   'V30 H56 C104 N12 Cl6 O318'
_cell_volume   6138.72622738
_cell_formula_units_Z   2
loop_
 _symmetry_equiv_pos_site_id
 _symmetry_equiv_pos_as_xyz
  1  'x, y, z'
loop_
 _atom_site_type_symbol
 _atom_site_label
 _atom_site_symmetry_multiplicity
 _atom_site_fract_x
 _atom_site_fract_y
 _atom_site_fract_z
 _atom_site_occupancy
  C  C1  1  0.389400  0.869100  0.060300  1
  C  C2  1  0.808800  0.479700  0.869100  1
  C  C3  1  0.610600  0.670900  0.479700  1
  C  C4  1  0.191200  0.060300  0.670900  1
  C  C5  1  0.610600  0.130900  0.939700  1
  C  C6  1  0.191200  0.520300  0.130900  1
  C  C7  1  0.389400  0.329100  0.520300  1
  C  C8  1  0.808800  0.939700  0.329100  1
  C  C9  1  0.476000  0.874000  0.010000  1
  C  C10  1  0.864000  0.398000  0.874000  1
  C  C11  1  0.524000  0.534000  0.398000  1
  C  C12  1  0.136000  0.010000  0.534000  1
  C  C13  1  0.524000  0.126000  0.990000  1
  C  C14  1  0.136000  0.602000  0.126000  1
  C  C15  1  0.476000  0.466000  0.602000  1
  C  C16  1  0.864000  0.990000  0.466000  1
  C  C17  1  0.472000  0.816000  0.126000  1
  C  C18  1  0.690000  0.344000  0.816000  1
  C  C19  1  0.528000  0.654000  0.344000  1
  C  C20  1  0.310000  0.126000  0.654000  1
  C  C21  1  0.528000  0.184000  0.874000  1
  C  C22  1  0.310000  0.656000  0.184000  1
  C  C23  1  0.472000  0.346000  0.656000  1
  C  C24  1  0.690000  0.874000  0.346000  1
  C  C25  1  0.419400  0.827400  0.334800  1.0
  C  C26  1  0.492600  0.408000  0.827400  1.0
  C  C27  1  0.580600  0.915400  0.408000  1.0
  C  C28  1  0.507400  0.334800  0.915400  1.0
  C  C29  1  0.580600  0.172600  0.665200  1.0
  C  C30  1  0.507400  0.592000  0.172600  1.0
  C  C31  1  0.419400  0.084600  0.592000  1.0
  C  C32  1  0.492600  0.665200  0.084600  1.0
  C  C33  1  0.271500  0.069400  0.899700  1.0
  C  C34  1  0.169700  0.797900  0.069400  1.0
  C  C35  1  0.728500  0.628200  0.797900  1.0
  C  C36  1  0.830300  0.899700  0.628200  1.0
  C  C37  1  0.728500  0.930600  0.100300  1.0
  C  C38  1  0.830300  0.202100  0.930600  1.0
  C  C39  1  0.271500  0.371800  0.202100  1.0
  C  C40  1  0.169700  0.100300  0.371800  1.0
  C  C41  1  0.270500  0.004800  0.919700  1.0
  C  C42  1  0.085100  0.734300  0.004800  1.0
  C  C43  1  0.729500  0.649200  0.734300  1.0
  C  C44  1  0.914900  0.919700  0.649200  1.0
  C  C45  1  0.729500  0.995200  0.080300  1.0
  C  C46  1  0.914900  0.265700  0.995200  1.0
  C  C47  1  0.270500  0.350800  0.265700  1.0
  C  C48  1  0.085100  0.080300  0.350800  1.0
  C  C49  1  0.319600  0.016400  0.999200  1.0
  C  C50  1  0.017200  0.696800  0.016400  1.0
  C  C51  1  0.680400  0.679600  0.696800  1.0
  C  C52  1  0.982800  0.999200  0.679600  1.0
  C  C53  1  0.680400  0.983600  0.000800  1.0
  C  C54  1  0.982800  0.303200  0.983600  1.0
  C  C55  1  0.319600  0.320400  0.303200  1.0
  C  C56  1  0.017200  0.000800  0.320400  1.0
  C  C57  1  0.320300  0.213200  0.936100  1.0
  C  C58  1  0.277100  0.892900  0.213200  1.0
  C  C59  1  0.679700  0.615800  0.892900  1.0
  C  C60  1  0.722900  0.936100  0.615800  1.0
  C  C61  1  0.679700  0.786800  0.063900  1.0
  C  C62  1  0.722900  0.107100  0.786800  1.0
  C  C63  1  0.320300  0.384200  0.107100  1.0
  C  C64  1  0.277100  0.063900  0.384200  1.0
  C  C65  1  0.213300  0.924200  0.856100  1.0
  C  C66  1  0.068100  0.710900  0.924200  1.0
  C  C67  1  0.786700  0.642800  0.710900  1.0
  C  C68  1  0.931900  0.856100  0.642800  1.0
  C  C69  1  0.786700  0.075800  0.143900  1.0
  C  C70  1  0.931900  0.289100  0.075800  1.0
  C  C71  1  0.213300  0.357200  0.289100  1.0
  C  C72  1  0.068100  0.143900  0.357200  1.0
  C  C73  1  0.370000  0.090900  0.058300  1.0
  C  C74  1  0.032600  0.720900  0.090900  1.0
  C  C75  1  0.630000  0.688300  0.720900  1.0
  C  C76  1  0.967400  0.058300  0.688300  1.0
  C  C77  1  0.630000  0.909100  0.941700  1.0
  C  C78  1  0.967400  0.279100  0.909100  1.0
  C  C79  1  0.370000  0.311700  0.279100  1.0
  C  C80  1  0.032600  0.941700  0.311700  1.0
  C  C81  1  0.370200  0.154900  0.037500  1.0
  C  C82  1  0.117400  0.784700  0.154900  1.0
  C  C83  1  0.629800  0.667300  0.784700  1.0
  C  C84  1  0.882600  0.037500  0.667300  1.0
  C  C85  1  0.629800  0.845100  0.962500  1.0
  C  C86  1  0.882600  0.215300  0.845100  1.0
  C  C87  1  0.370200  0.332700  0.215300  1.0
  C  C88  1  0.117400  0.962500  0.332700  1.0
  C  C89  1  0.322100  0.144400  0.958500  1.0
  C  C90  1  0.185900  0.822300  0.144400  1.0
  C  C91  1  0.677900  0.636400  0.822300  1.0
  C  C92  1  0.814100  0.958500  0.636400  1.0
  C  C93  1  0.677900  0.855600  0.041500  1.0
  C  C94  1  0.814100  0.177700  0.855600  1.0
  C  C95  1  0.322100  0.363600  0.177700  1.0
  C  C96  1  0.185900  0.041500  0.363600  1.0
  C  C97  1  0.419900  0.102500  0.144600  1.0
  C  C98  1  0.957900  0.682600  0.102500  1.0
  C  C99  1  0.580100  0.724700  0.682600  1.0
  C  C100  1  0.042100  0.144600  0.724700  1.0
  C  C101  1  0.580100  0.897500  0.855400  1.0
  C  C102  1  0.042100  0.317400  0.897500  1.0
  C  C103  1  0.419900  0.275300  0.317400  1.0
  C  C104  1  0.957900  0.855400  0.275300  1.0
  Cl  Cl105  1  0.000000  0.775000  0.775000  1.0
  Cl  Cl106  1  0.000000  0.225000  0.225000  1.0
  Cl  Cl107  1  0.189240  0.276210  0.913030  1.0
  Cl  Cl108  1  0.363180  0.086970  0.276210  1.0
  Cl  Cl109  1  0.810760  0.723790  0.086970  1.0
  Cl  Cl110  1  0.636820  0.913030  0.723790  1.0
  H  H111  1  0.368200  0.821100  0.331900  1.0
  H  H112  1  0.489200  0.452900  0.821100  1.0
  H  H113  1  0.631800  0.963700  0.452900  1.0
  H  H114  1  0.510800  0.331900  0.963700  1.0
  H  H115  1  0.631800  0.178900  0.668100  1.0
  H  H116  1  0.510800  0.547100  0.178900  1.0
  H  H117  1  0.368200  0.036300  0.547100  1.0
  H  H118  1  0.489200  0.668100  0.036300  1.0
  H  H119  1  0.422500  0.782800  0.343100  1.0
  H  H120  1  0.439700  0.360300  0.782800  1.0
  H  H121  1  0.577500  0.920600  0.360300  1.0
  H  H122  1  0.560300  0.343100  0.920600  1.0
  H  H123  1  0.577500  0.217200  0.656900  1.0
  H  H124  1  0.560300  0.639700  0.217200  1.0
  H  H125  1  0.422500  0.079400  0.639700  1.0
  H  H126  1  0.439700  0.656900  0.079400  1.0
  H  H127  1  0.414300  0.829900  0.285800  1.0
  H  H128  1  0.544100  0.415600  0.829900  1.0
  H  H129  1  0.585700  0.871500  0.415600  1.0
  H  H130  1  0.455900  0.285800  0.871500  1.0
  H  H131  1  0.585700  0.170100  0.714200  1.0
  H  H132  1  0.455900  0.584400  0.170100  1.0
  H  H133  1  0.414300  0.128500  0.584400  1.0
  H  H134  1  0.544100  0.714200  0.128500  1.0
  H  H135  1  0.504400  0.898100  0.446500  1.0
  H  H136  1  0.451600  0.393700  0.898100  1.0
  H  H137  1  0.495600  0.942100  0.393700  1.0
  H  H138  1  0.548400  0.446500  0.942100  1.0
  H  H139  1  0.495600  0.101900  0.553500  1.0
  H  H140  1  0.548400  0.606300  0.101900  1.0
  H  H141  1  0.504400  0.057900  0.606300  1.0
  H  H142  1  0.451600  0.553500  0.057900  1.0
  H  H143  1  0.237800  0.062000  0.846400  1.0
  H  H144  1  0.215600  0.824200  0.062000  1.0
  H  H145  1  0.762200  0.608600  0.824200  1.0
  H  H146  1  0.784400  0.846400  0.608600  1.0
  H  H147  1  0.762200  0.938000  0.153600  1.0
  H  H148  1  0.784400  0.175800  0.938000  1.0
  H  H149  1  0.237800  0.391400  0.175800  1.0
  H  H150  1  0.215600  0.153600  0.391400  1.0
  H  H151  1  0.318900  0.973800  0.013300  1.0
  H  H152  1  0.960500  0.654900  0.973800  1.0
  H  H153  1  0.681100  0.694400  0.654900  1.0
  H  H154  1  0.039500  0.013300  0.694400  1.0
  H  H155  1  0.681100  0.026200  0.986700  1.0
  H  H156  1  0.039500  0.345100  0.026200  1.0
  H  H157  1  0.318900  0.305600  0.345100  1.0
  H  H158  1  0.960500  0.986700  0.305600  1.0
  H  H159  1  0.402900  0.204700  0.077200  1.0
  H  H160  1  0.127500  0.801800  0.204700  1.0
  H  H161  1  0.597100  0.674300  0.801800  1.0
  H  H162  1  0.872500  0.077200  0.674300  1.0
  H  H163  1  0.597100  0.795300  0.922800  1.0
  H  H164  1  0.872500  0.198200  0.795300  1.0
  H  H165  1  0.402900  0.325700  0.198200  1.0
  H  H166  1  0.127500  0.922800  0.325700  1.0
  N  N167  1  0.439100  0.837700  0.054600  1
  N  N168  1  0.783100  0.398600  0.837700  1
  N  N169  1  0.560900  0.615500  0.398600  1
  N  N170  1  0.216900  0.054600  0.615500  1
  N  N171  1  0.560900  0.162300  0.945400  1
  N  N172  1  0.216900  0.601400  0.162300  1
  N  N173  1  0.439100  0.384500  0.601400  1
  N  N174  1  0.783100  0.945400  0.384500  1
  N  N175  1  0.500000  0.900800  0.400800  1
  N  N176  1  0.500000  0.400800  0.900800  1
  N  N177  1  0.500000  0.099200  0.599200  1
  N  N178  1  0.500000  0.599200  0.099200  1
  O  O179  1  0.125000  0.966000  0.159000  1
  O  O180  1  0.807000  0.841000  0.966000  1
  O  O181  1  0.875000  0.034000  0.841000  1
  O  O182  1  0.193000  0.159000  0.034000  1
  O  O183  1  0.182000  0.115400  0.211400  1
  O  O184  1  0.904000  0.933400  0.115400  1
  O  O185  1  0.818000  0.029400  0.933400  1
  O  O186  1  0.096000  0.211400  0.029400  1
  O  O187  1  0.818000  0.884600  0.788600  1
  O  O188  1  0.096000  0.066600  0.884600  1
  O  O189  1  0.182000  0.970600  0.066600  1
  O  O190  1  0.904000  0.788600  0.970600  1
  O  O191  1  0.111200  0.143700  0.197500  1
  O  O192  1  0.946200  0.032500  0.143700  1
  O  O193  1  0.888800  0.086300  0.032500  1
  O  O194  1  0.053800  0.197500  0.086300  1
  O  O195  1  0.888800  0.856300  0.802500  1
  O  O196  1  0.053800  0.967500  0.856300  1
  O  O197  1  0.111200  0.913700  0.967500  1
  O  O198  1  0.946200  0.802500  0.913700  1
  O  O199  1  0.011000  0.890000  0.121000  1
  O  O200  1  0.769000  0.879000  0.890000  1
  O  O201  1  0.989000  0.110000  0.879000  1
  O  O202  1  0.231000  0.121000  0.110000  1
  O  O203  1  0.159000  0.077000  0.140000  1
  O  O204  1  0.937000  0.918000  0.077000  1
  O  O205  1  0.841000  0.981000  0.918000  1
  O  O206  1  0.063000  0.140000  0.981000  1
  O  O207  1  0.841000  0.923000  0.860000  1
  O  O208  1  0.063000  0.082000  0.923000  1
  O  O209  1  0.159000  0.019000  0.082000  1
  O  O210  1  0.937000  0.860000  0.019000  1
  O  O211  1  0.099000  0.035000  0.150000  1
  O  O212  1  0.885000  0.936000  0.035000  1
  O  O213  1  0.901000  0.051000  0.936000  1
  O  O214  1  0.115000  0.150000  0.051000  1
  O  O215  1  0.901000  0.965000  0.850000  1
  O  O216  1  0.115000  0.064000  0.965000  1
  O  O217  1  0.099000  0.949000  0.064000  1
  O  O218  1  0.885000  0.850000  0.949000  1
  O  O219  1  0.063000  0.137000  0.112000  1
  O  O220  1  0.025000  0.074000  0.137000  1
  O  O221  1  0.937000  0.049000  0.074000  1
  O  O222  1  0.975000  0.112000  0.049000  1
  O  O223  1  0.937000  0.863000  0.888000  1
  O  O224  1  0.975000  0.926000  0.863000  1
  O  O225  1  0.063000  0.951000  0.926000  1
  O  O226  1  0.025000  0.888000  0.951000  1
  O  O227  1  0.324000  0.532000  0.838000  1
  O  O228  1  0.694000  0.208000  0.532000  1
  O  O229  1  0.676000  0.514000  0.208000  1
  O  O230  1  0.306000  0.838000  0.514000  1
  O  O231  1  0.676000  0.468000  0.162000  1
  O  O232  1  0.306000  0.792000  0.468000  1
  O  O233  1  0.324000  0.486000  0.792000  1
  O  O234  1  0.694000  0.162000  0.486000  1
  O  O235  1  0.225000  0.498000  0.645000  1
  O  O236  1  0.853000  0.273000  0.498000  1
  O  O237  1  0.775000  0.420000  0.273000  1
  O  O238  1  0.147000  0.645000  0.420000  1
  O  O239  1  0.775000  0.502000  0.355000  1
  O  O240  1  0.147000  0.727000  0.502000  1
  O  O241  1  0.225000  0.580000  0.727000  1
  O  O242  1  0.853000  0.355000  0.580000  1
  O  O243  1  0.179000  0.344000  0.617000  1
  O  O244  1  0.727000  0.165000  0.344000  1
  O  O245  1  0.821000  0.438000  0.165000  1
  O  O246  1  0.273000  0.617000  0.438000  1
  O  O247  1  0.821000  0.656000  0.383000  1
  O  O248  1  0.273000  0.835000  0.656000  1
  O  O249  1  0.179000  0.562000  0.835000  1
  O  O250  1  0.727000  0.383000  0.562000  1
  O  O251  1  0.053000  0.357000  0.558000  1
  O  O252  1  0.799000  0.304000  0.357000  1
  O  O253  1  0.947000  0.505000  0.304000  1
  O  O254  1  0.201000  0.558000  0.505000  1
  O  O255  1  0.947000  0.643000  0.442000  1
  O  O256  1  0.201000  0.696000  0.643000  1
  O  O257  1  0.053000  0.495000  0.696000  1
  O  O258  1  0.799000  0.442000  0.495000  1
  O  O259  1  0.274000  0.419000  0.679000  1
  O  O260  1  0.740000  0.145000  0.419000  1
  O  O261  1  0.726000  0.405000  0.145000  1
  O  O262  1  0.260000  0.679000  0.405000  1
  O  O263  1  0.726000  0.581000  0.321000  1
  O  O264  1  0.260000  0.855000  0.581000  1
  O  O265  1  0.274000  0.595000  0.855000  1
  O  O266  1  0.740000  0.321000  0.595000  1
  O  O267  1  0.104000  0.186000  0.550000  1
  O  O268  1  0.636000  0.082000  0.186000  1
  O  O269  1  0.896000  0.446000  0.082000  1
  O  O270  1  0.364000  0.550000  0.446000  1
  O  O271  1  0.896000  0.814000  0.450000  1
  O  O272  1  0.364000  0.918000  0.814000  1
  O  O273  1  0.104000  0.554000  0.918000  1
  O  O274  1  0.636000  0.450000  0.554000  1
  O  O275  1  0.443000  0.895000  0.920000  1
  O  O276  1  0.975000  0.452000  0.895000  1
  O  O277  1  0.557000  0.477000  0.452000  1
  O  O278  1  0.025000  0.920000  0.477000  1
  O  O279  1  0.557000  0.105000  0.080000  1
  O  O280  1  0.025000  0.548000  0.105000  1
  O  O281  1  0.443000  0.523000  0.548000  1
  O  O282  1  0.975000  0.080000  0.523000  1
  O  O283  1  0.318000  0.715000  0.019000  1
  O  O284  1  0.696000  0.397000  0.715000  1
  O  O285  1  0.682000  0.701000  0.397000  1
  O  O286  1  0.304000  0.019000  0.701000  1
  O  O287  1  0.682000  0.285000  0.981000  1
  O  O288  1  0.304000  0.603000  0.285000  1
  O  O289  1  0.318000  0.299000  0.603000  1
  O  O290  1  0.696000  0.981000  0.299000  1
  O  O291  1  0.469000  0.937000  0.002000  1
  O  O292  1  0.935000  0.468000  0.937000  1
  O  O293  1  0.531000  0.533000  0.468000  1
  O  O294  1  0.065000  0.002000  0.533000  1
  O  O295  1  0.531000  0.063000  0.998000  1
  O  O296  1  0.065000  0.532000  0.063000  1
  O  O297  1  0.469000  0.467000  0.532000  1
  O  O298  1  0.935000  0.998000  0.467000  1
  O  O299  1  0.410000  0.761000  0.989000  1
  O  O300  1  0.772000  0.351000  0.761000  1
  O  O301  1  0.590000  0.579000  0.351000  1
  O  O302  1  0.228000  0.989000  0.579000  1
  O  O303  1  0.590000  0.239000  0.011000  1
  O  O304  1  0.228000  0.649000  0.239000  1
  O  O305  1  0.410000  0.421000  0.649000  1
  O  O306  1  0.772000  0.011000  0.421000  1
  O  O307  1  0.534000  0.913000  0.093000  1
  O  O308  1  0.820000  0.379000  0.913000  1
  O  O309  1  0.466000  0.559000  0.379000  1
  O  O310  1  0.180000  0.093000  0.559000  1
  O  O311  1  0.466000  0.087000  0.907000  1
  O  O312  1  0.180000  0.621000  0.087000  1
  O  O313  1  0.534000  0.441000  0.621000  1
  O  O314  1  0.820000  0.907000  0.441000  1
  O  O315  1  0.425000  0.791000  0.926000  1
  O  O316  1  0.865000  0.366000  0.791000  1
  O  O317  1  0.575000  0.501000  0.366000  1
  O  O318  1  0.135000  0.926000  0.501000  1
  O  O319  1  0.575000  0.209000  0.074000  1
  O  O320  1  0.135000  0.634000  0.209000  1
  O  O321  1  0.425000  0.499000  0.634000  1
  O  O322  1  0.865000  0.074000  0.499000  1
  O  O323  1  0.379000  0.788000  0.103000  1
  O  O324  1  0.685000  0.409000  0.788000  1
  O  O325  1  0.621000  0.724000  0.409000  1
  O  O326  1  0.315000  0.103000  0.724000  1
  O  O327  1  0.621000  0.212000  0.897000  1
  O  O328  1  0.315000  0.591000  0.212000  1
  O  O329  1  0.379000  0.276000  0.591000  1
  O  O330  1  0.685000  0.897000  0.276000  1
  O  O331  1  0.131000  0.130000  0.129000  1
  O  O332  1  0.001000  0.999000  0.130000  1
  O  O333  1  0.869000  0.998000  0.999000  1
  O  O334  1  0.999000  0.129000  0.998000  1
  O  O335  1  0.869000  0.870000  0.871000  1
  O  O336  1  0.999000  0.001000  0.870000  1
  O  O337  1  0.131000  0.002000  0.001000  1
  O  O338  1  0.001000  0.871000  0.002000  1
  O  O339  1  0.006000  0.204800  0.556800  1
  O  O340  1  0.648000  0.198800  0.204800  1
  O  O341  1  0.994000  0.550800  0.198800  1
  O  O342  1  0.352000  0.556800  0.550800  1
  O  O343  1  0.994000  0.795200  0.443200  1
  O  O344  1  0.352000  0.801200  0.795200  1
  O  O345  1  0.006000  0.449200  0.801200  1
  O  O346  1  0.648000  0.443200  0.449200  1
  O  O347  1  0.999000  0.299000  0.532000  1
  O  O348  1  0.767000  0.300000  0.299000  1
  O  O349  1  0.001000  0.533000  0.300000  1
  O  O350  1  0.233000  0.532000  0.533000  1
  O  O351  1  0.001000  0.701000  0.468000  1
  O  O352  1  0.233000  0.700000  0.701000  1
  O  O353  1  0.999000  0.467000  0.700000  1
  O  O354  1  0.767000  0.468000  0.467000  1
  O  O355  1  0.088200  0.249300  0.565300  1
  O  O356  1  0.684000  0.161100  0.249300  1
  O  O357  1  0.911800  0.477100  0.161100  1
  O  O358  1  0.316000  0.565300  0.477100  1
  O  O359  1  0.911800  0.750700  0.434700  1
  O  O360  1  0.316000  0.838900  0.750700  1
  O  O361  1  0.088200  0.522900  0.838900  1
  O  O362  1  0.684000  0.434700  0.522900  1
  O  O363  1  0.152000  0.396600  0.610600  1
  O  O364  1  0.786000  0.244600  0.396600  1
  O  O365  1  0.848000  0.458600  0.244600  1
  O  O366  1  0.214000  0.610600  0.458600  1
  O  O367  1  0.848000  0.603400  0.389400  1
  O  O368  1  0.214000  0.755400  0.603400  1
  O  O369  1  0.152000  0.541400  0.755400  1
  O  O370  1  0.786000  0.389400  0.541400  1
  O  O371  1  0.097000  0.324300  0.571300  1
  O  O372  1  0.753000  0.227300  0.324300  1
  O  O373  1  0.903000  0.474300  0.227300  1
  O  O374  1  0.247000  0.571300  0.474300  1
  O  O375  1  0.903000  0.675700  0.428700  1
  O  O376  1  0.247000  0.772700  0.675700  1
  O  O377  1  0.097000  0.525700  0.772700  1
  O  O378  1  0.753000  0.428700  0.525700  1
  O  O379  1  0.424100  0.621100  0.803000  1
  O  O380  1  0.818100  0.197000  0.621100  1
  O  O381  1  0.575900  0.378900  0.197000  1
  O  O382  1  0.181900  0.803000  0.378900  1
  O  O383  1  0.340000  0.561000  0.779000  1
  O  O384  1  0.782000  0.221000  0.561000  1
  O  O385  1  0.660000  0.439000  0.221000  1
  O  O386  1  0.218000  0.779000  0.439000  1
  O  O387  1  0.361000  0.629000  0.824000  1
  O  O388  1  0.805000  0.268000  0.629000  1
  O  O389  1  0.639000  0.463000  0.268000  1
  O  O390  1  0.195000  0.824000  0.463000  1
  O  O391  1  0.639000  0.371000  0.176000  1
  O  O392  1  0.195000  0.732000  0.371000  1
  O  O393  1  0.361000  0.537000  0.732000  1
  O  O394  1  0.805000  0.176000  0.537000  1
  O  O395  1  0.000000  0.600500  0.600500  1.0
  O  O396  1  0.000000  0.399500  0.399500  1.0
  O  O397  1  0.325300  0.489300  0.836000  1.0
  O  O398  1  0.653300  0.164000  0.489300  1.0
  O  O399  1  0.674700  0.510700  0.164000  1.0
  O  O400  1  0.346700  0.836000  0.510700  1.0
  O  O401  1  0.481300  0.438800  0.042500  1.0
  O  O402  1  0.396300  0.957500  0.438800  1.0
  O  O403  1  0.518700  0.561200  0.957500  1.0
  O  O404  1  0.603700  0.042500  0.561200  1.0
  O  O405  1  0.046600  0.335000  0.711600  1.0
  O  O406  1  0.623400  0.288400  0.335000  1.0
  O  O407  1  0.953400  0.665000  0.288400  1.0
  O  O408  1  0.376600  0.711600  0.665000  1.0
  O  O409  1  0.213400  0.868390  0.878790  1.0
  O  O410  1  0.989600  0.654990  0.868390  1.0
  O  O411  1  0.786600  0.665390  0.654990  1.0
  O  O412  1  0.010400  0.878790  0.665390  1.0
  O  O413  1  0.786600  0.131610  0.121210  1.0
  O  O414  1  0.010400  0.345010  0.131610  1.0
  O  O415  1  0.213400  0.334610  0.345010  1.0
  O  O416  1  0.989600  0.121210  0.334610  1.0
  O  O417  1  0.117900  0.762310  0.725210  1.0
  O  O418  1  0.037100  0.644410  0.762310  1.0
  O  O419  1  0.882100  0.607310  0.644410  1.0
  O  O420  1  0.962900  0.725210  0.607310  1.0
  O  O421  1  0.882100  0.237690  0.274790  1.0
  O  O422  1  0.962900  0.355590  0.237690  1.0
  O  O423  1  0.117900  0.392690  0.355590  1.0
  O  O424  1  0.037100  0.274790  0.392690  1.0
  O  O425  1  0.272300  0.197810  0.862310  1.0
  O  O426  1  0.335500  0.925510  0.197810  1.0
  O  O427  1  0.727700  0.590010  0.925510  1.0
  O  O428  1  0.664500  0.862310  0.590010  1.0
  O  O429  1  0.727700  0.802190  0.137690  1.0
  O  O430  1  0.664500  0.074490  0.802190  1.0
  O  O431  1  0.272300  0.409990  0.074490  1.0
  O  O432  1  0.335500  0.137690  0.409990  1.0
  O  O433  1  0.221100  0.736020  0.850920  1.0
  O  O434  1  0.885100  0.514920  0.736020  1.0
  O  O435  1  0.778900  0.629820  0.514920  1.0
  O  O436  1  0.114900  0.850920  0.629820  1.0
  O  O437  1  0.778900  0.263980  0.149080  1.0
  O  O438  1  0.114900  0.485080  0.263980  1.0
  O  O439  1  0.221100  0.370180  0.485080  1.0
  O  O440  1  0.885100  0.149080  0.370180  1.0
  O  O441  1  0.461800  0.170840  0.194240  1.0
  O  O442  1  0.976600  0.709040  0.170840  1.0
  O  O443  1  0.538200  0.732440  0.709040  1.0
  O  O444  1  0.023400  0.194240  0.732440  1.0
  O  O445  1  0.538200  0.829160  0.805760  1.0
  O  O446  1  0.023400  0.290960  0.829160  1.0
  O  O447  1  0.461800  0.267560  0.290960  1.0
  O  O448  1  0.976600  0.805760  0.267560  1.0
  O  O449  1  0.268900  0.255900  0.743200  1.0
  O  O450  1  0.512700  0.987000  0.255900  1.0
  O  O451  1  0.731100  0.474300  0.987000  1.0
  O  O452  1  0.487300  0.743200  0.474300  1.0
  O  O453  1  0.731100  0.744100  0.256800  1.0
  O  O454  1  0.487300  0.013000  0.744100  1.0
  O  O455  1  0.268900  0.525700  0.013000  1.0
  O  O456  1  0.512700  0.256800  0.525700  1.0
  O  O457  1  0.343400  0.355660  0.889460  1.0
  O  O458  1  0.466200  0.012260  0.355660  1.0
  O  O459  1  0.656600  0.546060  0.012260  1.0
  O  O460  1  0.533800  0.889460  0.546060  1.0
  O  O461  1  0.656600  0.644340  0.110540  1.0
  O  O462  1  0.533800  0.987740  0.644340  1.0
  O  O463  1  0.343400  0.453940  0.987740  1.0
  O  O464  1  0.466200  0.110540  0.453940  1.0
  O  O465  1  0.364900  0.277580  0.992480  1.0
  O  O466  1  0.285100  0.912680  0.277580  1.0
  O  O467  1  0.635100  0.627580  0.912680  1.0
  O  O468  1  0.714900  0.992480  0.627580  1.0
  O  O469  1  0.635100  0.722420  0.007520  1.0
  O  O470  1  0.714900  0.087320  0.722420  1.0
  O  O471  1  0.364900  0.372420  0.087320  1.0
  O  O472  1  0.285100  0.007520  0.372420  1.0
  O  O473  1  0.168600  0.916720  0.784920  1.0
  O  O474  1  0.131800  0.748120  0.916720  1.0
  O  O475  1  0.831400  0.616320  0.748120  1.0
  O  O476  1  0.868200  0.784920  0.616320  1.0
  O  O477  1  0.831400  0.083280  0.215080  1.0
  O  O478  1  0.868200  0.251880  0.083280  1.0
  O  O479  1  0.168600  0.383680  0.251880  1.0
  O  O480  1  0.131800  0.215080  0.383680  1.0
  O  O481  1  0.416100  0.042290  0.159990  1.0
  O  O482  1  0.882300  0.626190  0.042290  1.0
  O  O483  1  0.583900  0.743890  0.626190  1.0
  O  O484  1  0.117700  0.159990  0.743890  1.0
  O  O485  1  0.583900  0.957710  0.840010  1.0
  O  O486  1  0.117700  0.373810  0.957710  1.0
  O  O487  1  0.416100  0.256110  0.373810  1.0
  O  O488  1  0.882300  0.840010  0.256110  1.0
  O  O489  1  0.185000  0.317570  0.769370  1.0
  O  O490  1  0.548200  0.132570  0.317570  1.0
  O  O491  1  0.815000  0.584370  0.132570  1.0
  O  O492  1  0.451800  0.769370  0.584370  1.0
  O  O493  1  0.815000  0.682430  0.230630  1.0
  O  O494  1  0.451800  0.867430  0.682430  1.0
  O  O495  1  0.185000  0.415630  0.867430  1.0
  O  O496  1  0.548200  0.230630  0.415630  1.0
  V  V497  1  0.000000  0.659740  0.659740  1.0
  V  V498  1  0.000000  0.340260  0.340260  1.0
  V  V499  1  0.376110  0.382230  0.993880  1.0
  V  V500  1  0.388350  0.006120  0.382230  1.0
  V  V501  1  0.623890  0.617770  0.006120  1.0
  V  V502  1  0.611650  0.993880  0.617770  1.0
  V  V503  1  0.099910  0.315930  0.783980  1.0
  V  V504  1  0.531950  0.216020  0.315930  1.0
  V  V505  1  0.900090  0.684070  0.216020  1.0
  V  V506  1  0.468050  0.783980  0.684070  1.0
  V  V507  1  0.281200  0.416600  0.864600  1.0
  V  V508  1  0.552000  0.135400  0.416600  1.0
  V  V509  1  0.718800  0.583400  0.135400  1.0
  V  V510  1  0.448000  0.864600  0.583400  1.0
  V  V511  1  0.141850  0.749050  0.822580  1.0
  V  V512  1  0.926470  0.607200  0.749050  1.0
  V  V513  1  0.858150  0.680730  0.607200  1.0
  V  V514  1  0.073530  0.822580  0.680730  1.0
  V  V515  1  0.858150  0.250950  0.177420  1.0
  V  V516  1  0.073530  0.392800  0.250950  1.0
  V  V517  1  0.141850  0.319270  0.392800  1.0
  V  V518  1  0.926470  0.177420  0.319270  1.0
  V  V519  1  0.239370  0.264140  0.802250  1.0
  V  V520  1  0.461890  0.024770  0.264140  1.0
  V  V521  1  0.760630  0.562880  0.024770  1.0
  V  V522  1  0.538110  0.802250  0.562880  1.0
  V  V523  1  0.760630  0.735860  0.197750  1.0
  V  V524  1  0.538110  0.975230  0.735860  1.0
  V  V525  1  0.239370  0.437120  0.975230  1.0
  V  V526  1  0.461890  0.197750  0.437120  1.0
