# generated using pymatgen
data_H41Ru6C84(NO5)6
_symmetry_space_group_name_H-M   'P 1'
_cell_length_a   21.68300000
_cell_length_b   22.21200000
_cell_length_c   22.23300000
_cell_angle_alpha   64.95400000
_cell_angle_beta   75.01000000
_cell_angle_gamma   84.50800000
_symmetry_Int_Tables_number   1
_chemical_formula_structural   H41Ru6C84(NO5)6
_chemical_formula_sum   'H82 Ru12 C168 N12 O60'
_cell_volume   9369.75418450
_cell_formula_units_Z   2
loop_
 _symmetry_equiv_pos_site_id
 _symmetry_equiv_pos_as_xyz
  1  'x, y, z'
loop_
 _atom_site_type_symbol
 _atom_site_label
 _atom_site_symmetry_multiplicity
 _atom_site_fract_x
 _atom_site_fract_y
 _atom_site_fract_z
 _atom_site_occupancy
  H  H1  1  0.123600  0.319000  0.501700  1.0
  H  H2  1  0.876400  0.681000  0.498300  1.0
  H  H3  1  0.142900  0.216800  0.575100  1.0
  H  H4  1  0.857100  0.783200  0.424900  1.0
  H  H5  1  0.276800  0.308300  0.358700  1.0
  H  H6  1  0.723200  0.691700  0.641300  1.0
  H  H7  1  0.317600  0.032200  0.571000  1.0
  H  H8  1  0.682400  0.967800  0.429000  1.0
  H  H9  1  0.405900  0.022800  0.486600  1.0
  H  H10  1  0.594100  0.977200  0.513400  1.0
  H  H11  1  0.379600  0.210700  0.355600  1.0
  H  H12  1  0.620400  0.789300  0.644400  1.0
  H  H13  1  0.090200  0.739400  0.242400  1.0
  H  H14  1  0.909800  0.260600  0.757600  1.0
  H  H15  1  0.082600  0.854100  0.179900  1.0
  H  H16  1  0.917400  0.145900  0.820100  1.0
  H  H17  1  0.230500  0.721800  0.092700  1.0
  H  H18  1  0.769500  0.278200  0.907300  1.0
  H  H19  1  0.229700  0.593500  0.458900  1.0
  H  H20  1  0.770300  0.406500  0.541100  1.0
  H  H21  1  0.291900  0.640600  0.496300  1.0
  H  H22  1  0.708100  0.359400  0.503700  1.0
  H  H23  1  0.384100  0.573000  0.320400  1.0
  H  H24  1  0.615900  0.427000  0.679600  1.0
  H  H25  1  0.539300  0.719600  0.412600  1.0
  H  H26  1  0.460700  0.280400  0.587400  1.0
  H  H27  1  0.627800  0.691200  0.349700  1.0
  H  H28  1  0.372200  0.308800  0.650300  1.0
  H  H29  1  0.516900  0.613700  0.278600  1.0
  H  H30  1  0.483100  0.386300  0.721400  1.0
  H  H31  1  0.964000  0.617400  0.075500  1.0
  H  H32  1  0.036000  0.382600  0.924500  1.0
  H  H33  1  0.054400  0.610400  0.991800  1.0
  H  H34  1  0.945600  0.389600  0.008200  1.0
  H  H35  1  0.852100  0.564700  0.986200  1.0
  H  H36  1  0.147900  0.435300  0.013800  1.0
  H  H37  1  0.090700  0.548900  0.774000  1.0
  H  H38  1  0.909300  0.451100  0.226000  1.0
  H  H39  1  0.020600  0.519100  0.729200  1.0
  H  H40  1  0.979400  0.480900  0.270800  1.0
  H  H41  1  0.869900  0.538300  0.865300  1.0
  H  H42  1  0.130100  0.461700  0.134700  1.0
  H  H43  1  0.824700  0.462900  0.349300  1.0
  H  H44  1  0.175300  0.537100  0.650700  1.0
  H  H45  1  0.843300  0.358200  0.420200  1.0
  H  H46  1  0.156700  0.641800  0.579800  1.0
  H  H47  1  0.712000  0.393300  0.276000  1.0
  H  H48  1  0.288000  0.606700  0.724000  1.0
  H  H49  1  0.768700  0.112200  0.463600  1.0
  H  H50  1  0.231300  0.887800  0.536400  1.0
  H  H51  1  0.697700  0.074400  0.421300  1.0
  H  H52  1  0.302300  0.925600  0.578700  1.0
  H  H53  1  0.671200  0.266300  0.298900  1.0
  H  H54  1  0.328800  0.733700  0.701100  1.0
  H  H55  1  0.274800  0.003900  0.828000  1.0
  H  H56  1  0.725200  0.996100  0.172000  1.0
  H  H57  1  0.191400  0.016100  0.909700  1.0
  H  H58  1  0.808600  0.983900  0.090300  1.0
  H  H59  1  0.289200  0.809700  0.950900  1.0
  H  H60  1  0.710800  0.190300  0.049100  1.0
  H  H61  1  0.443500  0.951800  0.243900  1.0
  H  H62  1  0.556500  0.048200  0.756100  1.0
  H  H63  1  0.384400  0.911600  0.196300  1.0
  H  H64  1  0.615600  0.088400  0.803700  1.0
  H  H65  1  0.422200  0.140400  0.119700  1.0
  H  H66  1  0.577800  0.859600  0.880300  1.0
  H  H67  1  0.251700  0.020700  0.005100  1.0
  H  H68  1  0.748300  0.979300  0.994900  1.0
  H  H69  1  0.349700  0.203800  0.010000  1.0
  H  H70  1  0.650300  0.796200  0.990000  1.0
  H  H71  1  0.414100  0.686300  0.474100  1.0
  H  H72  1  0.585900  0.313700  0.525900  1.0
  H  H73  1  0.214700  0.101800  0.591600  1.0
  H  H74  1  0.785300  0.898200  0.408400  1.0
  H  H75  1  0.127900  0.953000  0.046400  1.0
  H  H76  1  0.872100  0.047000  0.953600  1.0
  H  H77  1  0.813800  0.223700  0.461900  1.0
  H  H78  1  0.186200  0.776300  0.538100  1.0
  H  H79  1  0.092900  0.571200  0.891600  1.0
  H  H80  1  0.907100  0.428800  0.108400  1.0
  H  H81  1  0.304200  0.954900  0.110200  1.0
  H  H82  1  0.695800  0.045100  0.889800  1.0
  Ru  Ru83  1  0.137890  0.528550  0.338390  1.0
  Ru  Ru84  1  0.862110  0.471450  0.661610  1.0
  Ru  Ru85  1  0.225460  0.520280  0.256670  1.0
  Ru  Ru86  1  0.774540  0.479720  0.743330  1.0
  Ru  Ru87  1  0.706140  0.607510  0.146960  1.0
  Ru  Ru88  1  0.293860  0.392490  0.853040  1.0
  Ru  Ru89  1  0.772300  0.649080  0.187890  1.0
  Ru  Ru90  1  0.227700  0.350920  0.812110  1.0
  Ru  Ru91  1  0.554830  0.163120  0.232940  1.0
  Ru  Ru92  1  0.445170  0.836880  0.767060  1.0
  Ru  Ru93  1  0.567280  0.052040  0.305140  1.0
  Ru  Ru94  1  0.432720  0.947960  0.694860  1.0
  C  C95  1  0.193000  0.396200  0.378800  1.0
  C  C96  1  0.807000  0.603800  0.621200  1.0
  C  C97  1  0.199900  0.324700  0.426400  1.0
  C  C98  1  0.800100  0.675300  0.573600  1.0
  C  C99  1  0.158700  0.295800  0.488800  1.0
  C  C100  1  0.841300  0.704200  0.511200  1.0
  C  C101  1  0.168800  0.235000  0.531000  1.0
  C  C102  1  0.831200  0.765000  0.469000  1.0
  C  C103  1  0.215100  0.199600  0.511300  1.0
  C  C104  1  0.784900  0.800400  0.488700  1.0
  C  C105  1  0.261400  0.226300  0.446900  1.0
  C  C106  1  0.738600  0.773700  0.553100  1.0
  C  C107  1  0.251000  0.289200  0.402800  1.0
  C  C108  1  0.749000  0.710800  0.597200  1.0
  C  C109  1  0.308000  0.178300  0.444800  1.0
  C  C110  1  0.692000  0.821700  0.555200  1.0
  C  C111  1  0.289900  0.121500  0.510800  1.0
  C  C112  1  0.710100  0.878500  0.489200  1.0
  C  C113  1  0.327700  0.066400  0.527400  1.0
  C  C114  1  0.672300  0.933600  0.472600  1.0
  C  C115  1  0.382100  0.061400  0.478200  1.0
  C  C116  1  0.617900  0.938600  0.521800  1.0
  C  C117  1  0.398500  0.119300  0.414700  1.0
  C  C118  1  0.601500  0.880700  0.585300  1.0
  C  C119  1  0.365600  0.174900  0.397500  1.0
  C  C120  1  0.634400  0.825100  0.602500  1.0
  C  C121  1  0.455000  0.119900  0.361200  1.0
  C  C122  1  0.545000  0.880100  0.638800  1.0
  C  C123  1  0.895600  0.506000  0.758400  1.0
  C  C124  1  0.104400  0.494000  0.241600  1.0
  C  C125  1  0.169800  0.649000  0.218100  1.0
  C  C126  1  0.830200  0.351000  0.781900  1.0
  C  C127  1  0.163500  0.721000  0.173900  1.0
  C  C128  1  0.836500  0.279000  0.826100  1.0
  C  C129  1  0.117100  0.760000  0.199100  1.0
  C  C130  1  0.882900  0.240000  0.800900  1.0
  C  C131  1  0.110400  0.828600  0.161000  1.0
  C  C132  1  0.889600  0.171400  0.839000  1.0
  C  C133  1  0.148900  0.858000  0.090600  1.0
  C  C134  1  0.851100  0.142000  0.909400  1.0
  C  C135  1  0.194500  0.816900  0.064500  1.0
  C  C136  1  0.805500  0.183100  0.935500  1.0
  C  C137  1  0.200800  0.748000  0.108700  1.0
  C  C138  1  0.799200  0.252000  0.891300  1.0
  C  C139  1  0.257800  0.559900  0.351700  1.0
  C  C140  1  0.742200  0.440100  0.648300  1.0
  C  C141  1  0.299300  0.581100  0.384000  1.0
  C  C142  1  0.700700  0.418900  0.616000  1.0
  C  C143  1  0.273000  0.600600  0.437800  1.0
  C  C144  1  0.727000  0.399400  0.562200  1.0
  C  C145  1  0.309800  0.629800  0.459500  1.0
  C  C146  1  0.690200  0.370200  0.540500  1.0
  C  C147  1  0.372500  0.643200  0.427600  1.0
  C  C148  1  0.627500  0.356800  0.572400  1.0
  C  C149  1  0.402300  0.615800  0.380000  1.0
  C  C150  1  0.597700  0.384200  0.620000  1.0
  C  C151  1  0.365500  0.587200  0.354700  1.0
  C  C152  1  0.634500  0.412800  0.645300  1.0
  C  C153  1  0.468200  0.633000  0.362300  1.0
  C  C154  1  0.531800  0.367000  0.637700  1.0
  C  C155  1  0.477600  0.660600  0.410400  1.0
  C  C156  1  0.522400  0.339400  0.589600  1.0
  C  C157  1  0.535300  0.690400  0.393700  1.0
  C  C158  1  0.464700  0.309600  0.606300  1.0
  C  C159  1  0.587600  0.679300  0.350200  1.0
  C  C160  1  0.412400  0.320700  0.649800  1.0
  C  C161  1  0.582800  0.650300  0.306100  1.0
  C  C162  1  0.417200  0.349700  0.693900  1.0
  C  C163  1  0.522200  0.629500  0.309600  1.0
  C  C164  1  0.477800  0.370500  0.690400  1.0
  C  C165  1  0.639000  0.646400  0.255100  1.0
  C  C166  1  0.361000  0.353600  0.744900  1.0
  C  C167  1  0.277000  0.252100  0.922900  1.0
  C  C168  1  0.723000  0.747900  0.077100  1.0
  C  C169  1  0.290600  0.180700  0.968300  1.0
  C  C170  1  0.709400  0.819300  0.031700  1.0
  C  C171  1  0.261500  0.127700  0.964900  1.0
  C  C172  1  0.738500  0.872300  0.035100  1.0
  C  C173  1  0.838900  0.609700  0.080900  1.0
  C  C174  1  0.161100  0.390300  0.919100  1.0
  C  C175  1  0.897700  0.599300  0.033200  1.0
  C  C176  1  0.102300  0.400700  0.966800  1.0
  C  C177  1  0.959200  0.607900  0.040000  1.0
  C  C178  1  0.040800  0.392100  0.960000  1.0
  C  C179  1  0.013900  0.601400  0.990300  1.0
  C  C180  1  0.986100  0.398600  0.009700  1.0
  C  C181  1  0.007800  0.582000  0.939800  1.0
  C  C182  1  0.992200  0.418000  0.060200  1.0
  C  C183  1  0.945000  0.569200  0.939400  1.0
  C  C184  1  0.055000  0.430800  0.060600  1.0
  C  C185  1  0.892200  0.576000  0.986200  1.0
  C  C186  1  0.107800  0.424000  0.013800  1.0
  C  C187  1  0.953500  0.549300  0.886400  1.0
  C  C188  1  0.046500  0.450700  0.113600  1.0
  C  C189  1  0.020800  0.554500  0.851900  1.0
  C  C190  1  0.979200  0.445500  0.148100  1.0
  C  C191  1  0.047000  0.544700  0.794000  1.0
  C  C192  1  0.953000  0.455300  0.206000  1.0
  C  C193  1  0.004100  0.528100  0.767500  1.0
  C  C194  1  0.995900  0.471900  0.232500  1.0
  C  C195  1  0.939400  0.523500  0.792300  1.0
  C  C196  1  0.060600  0.476500  0.207700  1.0
  C  C197  1  0.914000  0.537200  0.850100  1.0
  C  C198  1  0.086000  0.462800  0.149900  1.0
  C  C199  1  0.756100  0.505100  0.256900  1.0
  C  C200  1  0.243900  0.494900  0.743100  1.0
  C  C201  1  0.767700  0.437000  0.304000  1.0
  C  C202  1  0.232300  0.563000  0.696000  1.0
  C  C203  1  0.806200  0.427000  0.349000  1.0
  C  C204  1  0.193800  0.573000  0.651000  1.0
  C  C205  1  0.816200  0.364300  0.391900  1.0
  C  C206  1  0.183800  0.635700  0.608100  1.0
  C  C207  1  0.786700  0.304900  0.396600  1.0
  C  C208  1  0.213300  0.695100  0.603400  1.0
  C  C209  1  0.750200  0.318500  0.348200  1.0
  C  C210  1  0.249800  0.681500  0.651800  1.0
  C  C211  1  0.739300  0.385300  0.304600  1.0
  C  C212  1  0.260700  0.614700  0.695400  1.0
  C  C213  1  0.730200  0.256400  0.358200  1.0
  C  C214  1  0.269800  0.743600  0.641800  1.0
  C  C215  1  0.757100  0.209600  0.412400  1.0
  C  C216  1  0.242900  0.790400  0.587600  1.0
  C  C217  1  0.747800  0.143000  0.432000  1.0
  C  C218  1  0.252200  0.857000  0.568000  1.0
  C  C219  1  0.706600  0.119500  0.404800  1.0
  C  C220  1  0.293400  0.880500  0.595200  1.0
  C  C221  1  0.680700  0.166300  0.353300  1.0
  C  C222  1  0.319300  0.833700  0.646700  1.0
  C  C223  1  0.691100  0.235400  0.331500  1.0
  C  C224  1  0.308900  0.764600  0.668500  1.0
  C  C225  1  0.638400  0.144200  0.324600  1.0
  C  C226  1  0.361600  0.855800  0.675400  1.0
  C  C227  1  0.340200  0.903600  0.825100  1.0
  C  C228  1  0.659800  0.096400  0.174900  1.0
  C  C229  1  0.288800  0.908400  0.880500  1.0
  C  C230  1  0.711200  0.091600  0.119500  1.0
  C  C231  1  0.260900  0.967900  0.869800  1.0
  C  C232  1  0.739100  0.032100  0.130200  1.0
  C  C233  1  0.212900  0.976100  0.918800  1.0
  C  C234  1  0.787100  0.023900  0.081200  1.0
  C  C235  1  0.196000  0.921600  0.985100  1.0
  C  C236  1  0.804000  0.078400  0.014900  1.0
  C  C237  1  0.221000  0.862800  0.993900  1.0
  C  C238  1  0.779000  0.137200  0.006100  1.0
  C  C239  1  0.270600  0.851000  0.943300  1.0
  C  C240  1  0.729400  0.149000  0.056700  1.0
  C  C241  1  0.484800  0.077900  0.211200  1.0
  C  C242  1  0.515200  0.922100  0.788800  1.0
  C  C243  1  0.441100  0.047700  0.185200  1.0
  C  C244  1  0.558900  0.952300  0.814800  1.0
  C  C245  1  0.427000  0.981900  0.207900  1.0
  C  C246  1  0.573000  0.018100  0.792100  1.0
  C  C247  1  0.390500  0.957000  0.181600  1.0
  C  C248  1  0.609500  0.043000  0.818400  1.0
  C  C249  1  0.364000  0.002800  0.132900  1.0
  C  C250  1  0.636000  0.997200  0.867100  1.0
  C  C251  1  0.375800  0.074000  0.105300  1.0
  C  C252  1  0.624200  0.926000  0.894700  1.0
  C  C253  1  0.414400  0.095300  0.134200  1.0
  C  C254  1  0.585600  0.904700  0.865800  1.0
  C  C255  1  0.336100  0.104300  0.056800  1.0
  C  C256  1  0.663900  0.895700  0.943200  1.0
  C  C257  1  0.313400  0.048400  0.047300  1.0
  C  C258  1  0.686600  0.951600  0.952700  1.0
  C  C259  1  0.271000  0.055700  0.006300  1.0
  C  C260  1  0.729000  0.944300  0.993700  1.0
  C  C261  1  0.328500  0.168800  0.011100  1.0
  C  C262  1  0.671500  0.831200  0.988900  1.0
  N  N263  1  0.421200  0.668600  0.445300  1.0
  N  N264  1  0.578800  0.331400  0.554700  1.0
  N  N265  1  0.234300  0.129800  0.551800  1.0
  N  N266  1  0.765700  0.870200  0.448200  1.0
  N  N267  1  0.150500  0.920300  0.042500  1.0
  N  N268  1  0.849500  0.079700  0.957500  1.0
  N  N269  1  0.791900  0.241800  0.431700  1.0
  N  N270  1  0.208100  0.758200  0.568300  1.0
  N  N271  1  0.052500  0.570200  0.895300  1.0
  N  N272  1  0.947500  0.429800  0.104700  1.0
  N  N273  1  0.321900  0.992400  0.098900  1.0
  N  N274  1  0.678100  0.007600  0.901100  1.0
  O  O275  1  0.146100  0.426000  0.402100  1.0
  O  O276  1  0.853900  0.574000  0.597900  1.0
  O  O277  1  0.232500  0.418700  0.321300  1.0
  O  O278  1  0.767500  0.581300  0.678700  1.0
  O  O279  1  0.922400  0.497400  0.705800  1.0
  O  O280  1  0.077600  0.502600  0.294200  1.0
  O  O281  1  0.838100  0.507000  0.784800  1.0
  O  O282  1  0.161900  0.493000  0.215200  1.0
  O  O283  1  0.132800  0.627700  0.276100  1.0
  O  O284  1  0.867200  0.372300  0.723900  1.0
  O  O285  1  0.217200  0.620800  0.192700  1.0
  O  O286  1  0.782800  0.379200  0.807300  1.0
  O  O287  1  0.201200  0.555000  0.381400  1.0
  O  O288  1  0.798800  0.445000  0.618600  1.0
  O  O289  1  0.286500  0.547700  0.300700  1.0
  O  O290  1  0.713500  0.452300  0.699300  1.0
  O  O291  1  0.055600  0.541300  0.417000  1.0
  O  O292  1  0.944400  0.458700  0.583000  1.0
  O  O293  1  0.312800  0.510100  0.175800  1.0
  O  O294  1  0.687200  0.489900  0.824200  1.0
  O  O295  1  0.239600  0.253500  0.883300  1.0
  O  O296  1  0.760400  0.746500  0.116700  1.0
  O  O297  1  0.304100  0.295500  0.923200  1.0
  O  O298  1  0.695900  0.704500  0.076800  1.0
  O  O299  1  0.851300  0.635200  0.117400  1.0
  O  O300  1  0.148700  0.364800  0.882600  1.0
  O  O301  1  0.786600  0.594100  0.077000  1.0
  O  O302  1  0.213400  0.405900  0.923000  1.0
  O  O303  1  0.781800  0.549300  0.259400  1.0
  O  O304  1  0.218200  0.450700  0.740600  1.0
  O  O305  1  0.717500  0.510200  0.218300  1.0
  O  O306  1  0.282500  0.489800  0.781700  1.0
  O  O307  1  0.691600  0.662000  0.259000  1.0
  O  O308  1  0.308400  0.338000  0.741000  1.0
  O  O309  1  0.628600  0.619000  0.220300  1.0
  O  O310  1  0.371400  0.381000  0.779700  1.0
  O  O311  1  0.839700  0.685000  0.228800  1.0
  O  O312  1  0.160300  0.315000  0.771200  1.0
  O  O313  1  0.637000  0.567600  0.108800  1.0
  O  O314  1  0.363000  0.432400  0.891200  1.0
  O  O315  1  0.354900  0.956400  0.769300  1.0
  O  O316  1  0.645100  0.043600  0.230700  1.0
  O  O317  1  0.365400  0.848100  0.839300  1.0
  O  O318  1  0.634600  0.151900  0.160700  1.0
  O  O319  1  0.505400  0.023700  0.262700  1.0
  O  O320  1  0.494600  0.976300  0.737300  1.0
  O  O321  1  0.493900  0.134800  0.191000  1.0
  O  O322  1  0.506100  0.865200  0.809000  1.0
  O  O323  1  0.486500  0.062200  0.378400  1.0
  O  O324  1  0.513500  0.937800  0.621600  1.0
  O  O325  1  0.474600  0.170000  0.307600  1.0
  O  O326  1  0.525400  0.830000  0.692400  1.0
  O  O327  1  0.629300  0.082500  0.345900  1.0
  O  O328  1  0.370700  0.917500  0.654100  1.0
  O  O329  1  0.614200  0.188800  0.277700  1.0
  O  O330  1  0.385800  0.811200  0.722300  1.0
  O  O331  1  0.573600  0.942700  0.377800  1.0
  O  O332  1  0.426400  0.057300  0.622200  1.0
  O  O333  1  0.545100  0.271300  0.161100  1.0
  O  O334  1  0.454900  0.728700  0.838900  1.0
