# generated using pymatgen
data_H61Ru6C93(N3O10)3
_symmetry_space_group_name_H-M   'P 1'
_cell_length_a   21.74720000
_cell_length_b   22.42390000
_cell_length_c   23.37650000
_cell_angle_alpha   61.52600000
_cell_angle_beta   88.20000000
_cell_angle_gamma   64.39500000
_symmetry_Int_Tables_number   1
_chemical_formula_structural   H61Ru6C93(N3O10)3
_chemical_formula_sum   'H122 Ru12 C186 N18 O60'
_cell_volume   8814.64763458
_cell_formula_units_Z   2
loop_
 _symmetry_equiv_pos_site_id
 _symmetry_equiv_pos_as_xyz
  1  'x, y, z'
loop_
 _atom_site_type_symbol
 _atom_site_label
 _atom_site_symmetry_multiplicity
 _atom_site_fract_x
 _atom_site_fract_y
 _atom_site_fract_z
 _atom_site_occupancy
  H  H1  1  0.221800  0.635900  0.143200  1.0
  H  H2  1  0.778200  0.364100  0.856800  1.0
  H  H3  1  0.131200  0.679800  0.061300  1.0
  H  H4  1  0.868800  0.320200  0.938700  1.0
  H  H5  1  0.264600  0.808700  0.022200  1.0
  H  H6  1  0.735400  0.191300  0.977800  1.0
  H  H7  1  0.534800  0.404700  0.237300  1.0
  H  H8  1  0.465200  0.595300  0.762700  1.0
  H  H9  1  0.609200  0.326800  0.202200  1.0
  H  H10  1  0.390800  0.673200  0.797800  1.0
  H  H11  1  0.578400  0.575200  0.116600  1.0
  H  H12  1  0.421600  0.424800  0.883400  1.0
  H  H13  1  0.769300  0.369300  0.016300  1.0
  H  H14  1  0.230700  0.630700  0.983700  1.0
  H  H15  1  0.786800  0.472500  0.946800  1.0
  H  H16  1  0.213200  0.527500  0.053200  1.0
  H  H17  1  0.660400  0.599500  0.021200  1.0
  H  H18  1  0.339600  0.400500  0.978800  1.0
  H  H19  1  0.237500  0.703600  0.368500  1.0
  H  H20  1  0.762500  0.296400  0.631500  1.0
  H  H21  1  0.151600  0.782900  0.398400  1.0
  H  H22  1  0.848400  0.217100  0.601600  1.0
  H  H23  1  0.279400  0.874400  0.246700  1.0
  H  H24  1  0.720600  0.125600  0.753300  1.0
  H  H25  1  0.231900  0.031900  0.216000  1.0
  H  H26  1  0.768100  0.968100  0.784000  1.0
  H  H27  1  0.550600  0.472500  0.470100  1.0
  H  H28  1  0.449400  0.527500  0.529900  1.0
  H  H29  1  0.634800  0.427700  0.557700  1.0
  H  H30  1  0.365200  0.572300  0.442300  1.0
  H  H31  1  0.602000  0.637000  0.347000  1.0
  H  H32  1  0.398000  0.363000  0.653000  1.0
  H  H33  1  0.831600  0.508200  0.583700  1.0
  H  H34  1  0.168400  0.491800  0.416300  1.0
  H  H35  1  0.854500  0.606700  0.510400  1.0
  H  H36  1  0.145500  0.393300  0.489600  1.0
  H  H37  1  0.702900  0.684500  0.362100  1.0
  H  H38  1  0.297100  0.315500  0.637900  1.0
  H  H39  1  0.013400  0.551000  0.004400  1.0
  H  H40  1  0.986600  0.449000  0.995600  1.0
  H  H41  1  0.106600  0.504700  0.086500  1.0
  H  H42  1  0.893400  0.495300  0.913500  1.0
  H  H43  1  0.882500  0.691100  0.064100  1.0
  H  H44  1  0.117500  0.308900  0.935900  1.0
  H  H45  1  0.131700  0.569800  0.277000  1.0
  H  H46  1  0.868300  0.430200  0.723000  1.0
  H  H47  1  0.052600  0.647600  0.312200  1.0
  H  H48  1  0.947400  0.352400  0.687800  1.0
  H  H49  1  0.895300  0.722400  0.168100  1.0
  H  H50  1  0.104700  0.277600  0.831900  1.0
  H  H51  1  0.312100  0.225400  0.345400  1.0
  H  H52  1  0.687900  0.774600  0.654600  1.0
  H  H53  1  0.395900  0.163500  0.442000  1.0
  H  H54  1  0.604100  0.836500  0.558000  1.0
  H  H55  1  0.457300  0.119300  0.265500  1.0
  H  H56  1  0.542700  0.880700  0.734500  1.0
  H  H57  1  0.754800  0.903900  0.470700  1.0
  H  H58  1  0.245200  0.096100  0.529300  1.0
  H  H59  1  0.672700  0.958800  0.522400  1.0
  H  H60  1  0.327300  0.041200  0.477600  1.0
  H  H61  1  0.602800  0.013100  0.308500  1.0
  H  H62  1  0.397200  0.986900  0.691500  1.0
  H  H63  1  0.044000  0.027500  0.743500  1.0
  H  H64  1  0.956000  0.972500  0.256500  1.0
  H  H65  1  0.014100  0.933000  0.810100  1.0
  H  H66  1  0.985900  0.067000  0.189900  1.0
  H  H67  1  0.203600  0.940300  0.889300  1.0
  H  H68  1  0.796400  0.059700  0.110700  1.0
  H  H69  1  0.445300  0.432600  0.412900  1.0
  H  H70  1  0.554700  0.567400  0.587100  1.0
  H  H71  1  0.464200  0.263500  0.478600  1.0
  H  H72  1  0.535800  0.736500  0.521400  1.0
  H  H73  1  0.412800  0.298300  0.516100  1.0
  H  H74  1  0.587200  0.701700  0.483900  1.0
  H  H75  1  0.475000  0.316700  0.498300  1.0
  H  H76  1  0.525000  0.683300  0.501700  1.0
  H  H77  1  0.306800  0.373500  0.419400  1.0
  H  H78  1  0.693200  0.626500  0.580600  1.0
  H  H79  1  0.357500  0.329500  0.387400  1.0
  H  H80  1  0.642500  0.670500  0.612600  1.0
  H  H81  1  0.319100  0.419800  0.348600  1.0
  H  H82  1  0.680900  0.580200  0.651400  1.0
  H  H83  1  0.901900  0.706600  0.742100  1.0
  H  H84  1  0.098100  0.293400  0.257900  1.0
  H  H85  1  0.978200  0.724000  0.677300  1.0
  H  H86  1  0.021800  0.276000  0.322700  1.0
  H  H87  1  0.999900  0.669500  0.648100  1.0
  H  H88  1  0.000100  0.330500  0.351900  1.0
  H  H89  1  0.052400  0.651600  0.705700  1.0
  H  H90  1  0.947600  0.348400  0.294300  1.0
  H  H91  1  0.015100  0.517800  0.807700  1.0
  H  H92  1  0.984900  0.482200  0.192300  1.0
  H  H93  1  0.058600  0.530800  0.752300  1.0
  H  H94  1  0.941400  0.469200  0.247700  1.0
  H  H95  1  0.987100  0.533600  0.738200  1.0
  H  H96  1  0.012900  0.466400  0.261800  1.0
  H  H97  1  0.028900  0.709600  0.401300  1.0
  H  H98  1  0.971100  0.290400  0.598700  1.0
  H  H99  1  0.027800  0.729200  0.536100  1.0
  H  H100  1  0.972200  0.270800  0.463900  1.0
  H  H101  1  0.103700  0.719600  0.538500  1.0
  H  H102  1  0.896300  0.280400  0.461500  1.0
  H  H103  1  0.092300  0.647500  0.580200  1.0
  H  H104  1  0.907700  0.352500  0.419800  1.0
  H  H105  1  0.157600  0.577200  0.517300  1.0
  H  H106  1  0.842400  0.422800  0.482700  1.0
  H  H107  1  0.183400  0.638900  0.493300  1.0
  H  H108  1  0.816600  0.361100  0.506700  1.0
  H  H109  1  0.147100  0.632900  0.440900  1.0
  H  H110  1  0.852900  0.367100  0.559100  1.0
  H  H111  1  0.532600  0.061500  0.499400  1.0
  H  H112  1  0.467400  0.938500  0.500600  1.0
  H  H113  1  0.139100  0.525400  0.185600  1.0
  H  H114  1  0.860900  0.474600  0.814400  1.0
  H  H115  1  0.689500  0.330300  0.108700  1.0
  H  H116  1  0.310500  0.669700  0.891300  1.0
  H  H117  1  0.082400  0.933700  0.367600  1.0
  H  H118  1  0.917600  0.066300  0.632400  1.0
  H  H119  1  0.065100  0.794700  0.929500  1.0
  H  H120  1  0.934900  0.205300  0.070500  1.0
  H  H121  1  0.740200  0.450300  0.590000  1.0
  H  H122  1  0.259800  0.549700  0.410000  1.0
  Ru  Ru123  1  0.396848  0.590993  0.279107  1.0
  Ru  Ru124  1  0.603152  0.409007  0.720893  1.0
  Ru  Ru125  1  0.422419  0.686473  0.210968  1.0
  Ru  Ru126  1  0.577581  0.313527  0.789032  1.0
  Ru  Ru127  1  0.817811  0.682618  0.849123  1.0
  Ru  Ru128  1  0.182189  0.317382  0.150877  1.0
  Ru  Ru129  1  0.741449  0.754850  0.887433  1.0
  Ru  Ru130  1  0.258551  0.245150  0.112567  1.0
  Ru  Ru131  1  0.871529  0.806169  0.352260  1.0
  Ru  Ru132  1  0.128471  0.193831  0.647740  1.0
  Ru  Ru133  1  0.783967  0.853595  0.267697  1.0
  Ru  Ru134  1  0.216033  0.146405  0.732303  1.0
  C  C135  1  0.309340  0.689180  0.146870  1.0
  C  C136  1  0.690660  0.310820  0.853130  1.0
  C  C137  1  0.251150  0.718180  0.091170  1.0
  C  C138  1  0.748850  0.281820  0.908830  1.0
  C  C139  1  0.211150  0.679920  0.101990  1.0
  C  C140  1  0.788850  0.320080  0.898010  1.0
  C  C141  1  0.157370  0.705480  0.053840  1.0
  C  C142  1  0.842630  0.294520  0.946160  1.0
  C  C143  1  0.142750  0.773240  0.991530  1.0
  C  C144  1  0.857250  0.226760  0.008470  1.0
  C  C145  1  0.182530  0.811680  0.980340  1.0
  C  C146  1  0.817470  0.188320  0.019660  1.0
  C  C147  1  0.237440  0.784160  0.029660  1.0
  C  C148  1  0.762560  0.215840  0.970340  1.0
  C  C149  1  0.151790  0.876280  0.913670  1.0
  C  C150  1  0.848210  0.123720  0.086330  1.0
  C  C151  1  0.096420  0.875480  0.887990  1.0
  C  C152  1  0.903580  0.124520  0.112010  1.0
  C  C153  1  0.499700  0.548230  0.205240  1.0
  C  C154  1  0.500300  0.451770  0.794760  1.0
  C  C155  1  0.547570  0.498800  0.182330  1.0
  C  C156  1  0.452430  0.501200  0.817670  1.0
  C  C157  1  0.558980  0.423380  0.205810  1.0
  C  C158  1  0.441020  0.576620  0.794190  1.0
  C  C159  1  0.603190  0.376300  0.185200  1.0
  C  C160  1  0.396810  0.623700  0.814800  1.0
  C  C161  1  0.639080  0.404350  0.137920  1.0
  C  C162  1  0.360920  0.595650  0.862080  1.0
  C  C163  1  0.625250  0.482420  0.109080  1.0
  C  C164  1  0.374750  0.517580  0.890920  1.0
  C  C165  1  0.583620  0.526140  0.132900  1.0
  C  C166  1  0.416380  0.473860  0.867100  1.0
  C  C167  1  0.669110  0.492320  0.061300  1.0
  C  C168  1  0.330890  0.507680  0.938700  1.0
  C  C169  1  0.703380  0.422900  0.060250  1.0
  C  C170  1  0.296620  0.577100  0.939750  1.0
  C  C171  1  0.747730  0.414700  0.017360  1.0
  C  C172  1  0.252270  0.585300  0.982640  1.0
  C  C173  1  0.758170  0.476480  0.976620  1.0
  C  C174  1  0.241830  0.523520  0.023380  1.0
  C  C175  1  0.728020  0.545450  0.977430  1.0
  C  C176  1  0.271980  0.454550  0.022570  1.0
  C  C177  1  0.681790  0.554050  0.020310  1.0
  C  C178  1  0.318210  0.445950  0.979690  1.0
  C  C179  1  0.743390  0.608820  0.936490  1.0
  C  C180  1  0.256610  0.391180  0.063510  1.0
  C  C181  1  0.318000  0.729850  0.284080  1.0
  C  C182  1  0.682000  0.270150  0.715920  1.0
  C  C183  1  0.265400  0.782770  0.302410  1.0
  C  C184  1  0.734600  0.217230  0.697590  1.0
  C  C185  1  0.227490  0.754760  0.349300  1.0
  C  C186  1  0.772510  0.245240  0.650700  1.0
  C  C187  1  0.176060  0.801560  0.367210  1.0
  C  C188  1  0.823940  0.198440  0.632790  1.0
  C  C189  1  0.162090  0.879080  0.336140  1.0
  C  C190  1  0.837910  0.120920  0.663860  1.0
  C  C191  1  0.201580  0.905940  0.292590  1.0
  C  C192  1  0.798420  0.094060  0.707410  1.0
  C  C193  1  0.253130  0.856630  0.276030  1.0
  C  C194  1  0.746870  0.143370  0.723970  1.0
  C  C195  1  0.175210  0.985390  0.274040  1.0
  C  C196  1  0.824790  0.014610  0.725960  1.0
  C  C197  1  0.120610  0.001210  0.307490  1.0
  C  C198  1  0.879390  0.998790  0.692510  1.0
  C  C199  1  0.195000  0.041860  0.237200  1.0
  C  C200  1  0.805000  0.958140  0.762800  1.0
  C  C201  1  0.511130  0.587210  0.344150  1.0
  C  C202  1  0.488870  0.412790  0.655850  1.0
  C  C203  1  0.565490  0.559770  0.399600  1.0
  C  C204  1  0.434510  0.440230  0.600400  1.0
  C  C205  1  0.578060  0.496590  0.463370  1.0
  C  C206  1  0.421940  0.503410  0.536630  1.0
  C  C207  1  0.628650  0.468860  0.515940  1.0
  C  C208  1  0.371350  0.531140  0.484060  1.0
  C  C209  1  0.669470  0.503310  0.505090  1.0
  C  C210  1  0.330530  0.496690  0.494910  1.0
  C  C211  1  0.659710  0.568440  0.441230  1.0
  C  C212  1  0.340290  0.431560  0.558770  1.0
  C  C213  1  0.608420  0.595720  0.388780  1.0
  C  C214  1  0.391580  0.404280  0.611220  1.0
  C  C215  1  0.711940  0.589940  0.448440  1.0
  C  C216  1  0.288060  0.410060  0.551560  1.0
  C  C217  1  0.750750  0.537270  0.515760  1.0
  C  C218  1  0.249250  0.462730  0.484240  1.0
  C  C219  1  0.805580  0.542680  0.540080  1.0
  C  C220  1  0.194420  0.457320  0.459920  1.0
  C  C221  1  0.818650  0.601840  0.495610  1.0
  C  C222  1  0.181350  0.398160  0.504390  1.0
  C  C223  1  0.781460  0.653700  0.430840  1.0
  C  C224  1  0.218540  0.346300  0.569160  1.0
  C  C225  1  0.727950  0.649190  0.405970  1.0
  C  C226  1  0.272050  0.350810  0.594030  1.0
  C  C227  1  0.799370  0.714910  0.387350  1.0
  C  C228  1  0.200630  0.285090  0.612650  1.0
  C  C229  1  0.881310  0.654860  0.972430  1.0
  C  C230  1  0.118690  0.345140  0.027570  1.0
  C  C231  1  0.937450  0.626610  0.025930  1.0
  C  C232  1  0.062550  0.373390  0.974070  1.0
  C  C233  1  0.006190  0.570020  0.033100  1.0
  C  C234  1  0.993810  0.429980  0.966900  1.0
  C  C235  1  0.062430  0.542600  0.081340  1.0
  C  C236  1  0.937570  0.457400  0.918660  1.0
  C  C237  1  0.049410  0.574650  0.121650  1.0
  C  C238  1  0.950590  0.425350  0.878350  1.0
  C  C239  1  0.981660  0.628640  0.117350  1.0
  C  C240  1  0.018340  0.371360  0.882650  1.0
  C  C241  1  0.926970  0.654400  0.068290  1.0
  C  C242  1  0.073030  0.345600  0.931710  1.0
  C  C243  1  0.988360  0.645360  0.168890  1.0
  C  C244  1  0.011640  0.354640  0.831110  1.0
  C  C245  1  0.060270  0.598920  0.202170  1.0
  C  C246  1  0.939730  0.401080  0.797830  1.0
  C  C247  1  0.084680  0.599880  0.255540  1.0
  C  C248  1  0.915320  0.400120  0.744460  1.0
  C  C249  1  0.036990  0.646970  0.276000  1.0
  C  C250  1  0.963010  0.353030  0.724000  1.0
  C  C251  1  0.966190  0.693550  0.244070  1.0
  C  C252  1  0.033810  0.306450  0.755930  1.0
  C  C253  1  0.942220  0.691960  0.189780  1.0
  C  C254  1  0.057780  0.308040  0.810220  1.0
  C  C255  1  0.918020  0.742140  0.267320  1.0
  C  C256  1  0.081980  0.257860  0.732680  1.0
  C  C257  1  0.320990  0.216120  0.235350  1.0
  C  C258  1  0.679010  0.783880  0.764650  1.0
  C  C259  1  0.374970  0.178710  0.296330  1.0
  C  C260  1  0.625030  0.821290  0.703670  1.0
  C  C261  1  0.357900  0.191350  0.349240  1.0
  C  C262  1  0.642100  0.808650  0.650760  1.0
  C  C263  1  0.407190  0.154630  0.407140  1.0
  C  C264  1  0.592810  0.845370  0.592860  1.0
  C  C265  1  0.444990  0.127660  0.300470  1.0
  C  C266  1  0.555010  0.872340  0.699530  1.0
  C  C267  1  0.181890  0.172480  0.195940  1.0
  C  C268  1  0.818110  0.827520  0.804060  1.0
  C  C269  1  0.159270  0.113550  0.232220  1.0
  C  C270  1  0.840730  0.886450  0.767780  1.0
  C  C271  1  0.103630  0.128730  0.264930  1.0
  C  C272  1  0.896370  0.871270  0.735070  1.0
  C  C273  1  0.081640  0.073850  0.301490  1.0
  C  C274  1  0.918360  0.926150  0.698510  1.0
  C  C275  1  0.736810  0.912190  0.356690  1.0
  C  C276  1  0.263190  0.087810  0.643310  1.0
  C  C277  1  0.686190  0.951760  0.384920  1.0
  C  C278  1  0.313810  0.048240  0.615080  1.0
  C  C279  1  0.707950  0.936300  0.448740  1.0
  C  C280  1  0.292050  0.063700  0.551260  1.0
  C  C281  1  0.659030  0.969710  0.479710  1.0
  C  C282  1  0.340970  0.030290  0.520290  1.0
  C  C283  1  0.589990  0.019340  0.444710  1.0
  C  C284  1  0.410010  0.980660  0.555290  1.0
  C  C285  1  0.569340  0.035660  0.379990  1.0
  C  C286  1  0.430660  0.964340  0.620010  1.0
  C  C287  1  0.616920  0.002130  0.351090  1.0
  C  C288  1  0.383080  0.997870  0.648910  1.0
  C  C289  1  0.493960  0.091060  0.358450  1.0
  C  C290  1  0.506040  0.908940  0.641550  1.0
  C  C291  1  0.475920  0.102680  0.410240  1.0
  C  C292  1  0.524080  0.897320  0.589760  1.0
  C  C293  1  0.142490  0.056780  0.767190  1.0
  C  C294  1  0.857510  0.943220  0.232810  1.0
  C  C295  1  0.125890  0.994110  0.809540  1.0
  C  C296  1  0.874110  0.005890  0.190460  1.0
  C  C297  1  0.070480  0.990100  0.786700  1.0
  C  C298  1  0.929520  0.009900  0.213300  1.0
  C  C299  1  0.053120  0.933120  0.825240  1.0
  C  C300  1  0.946880  0.066880  0.174760  1.0
  C  C301  1  0.166710  0.937920  0.873130  1.0
  C  C302  1  0.833290  0.062080  0.126870  1.0
  C  C303  1  0.407190  0.435250  0.392830  1.0
  C  C304  1  0.592810  0.564750  0.607170  1.0
  C  C305  1  0.440890  0.307630  0.483660  1.0
  C  C306  1  0.559110  0.692370  0.516340  1.0
  C  C307  1  0.340610  0.373940  0.391910  1.0
  C  C308  1  0.659390  0.626060  0.608090  1.0
  C  C309  1  0.923000  0.653680  0.759630  1.0
  C  C310  1  0.077000  0.346320  0.240370  1.0
  C  C311  1  0.004050  0.671560  0.687870  1.0
  C  C312  1  0.995950  0.328440  0.312130  1.0
  C  C313  1  0.012330  0.545530  0.760580  1.0
  C  C314  1  0.987670  0.454470  0.239420  1.0
  C  C315  1  0.022810  0.717900  0.436890  1.0
  C  C316  1  0.977190  0.282100  0.563110  1.0
  C  C317  1  0.075570  0.696050  0.539260  1.0
  C  C318  1  0.924430  0.303950  0.460740  1.0
  C  C319  1  0.147820  0.628490  0.483780  1.0
  C  C320  1  0.852180  0.371510  0.516220  1.0
  N  N321  1  0.532640  0.061380  0.462630  1.0
  N  N322  1  0.467360  0.938620  0.537370  1.0
  N  N323  1  0.095130  0.557460  0.173350  1.0
  N  N324  1  0.904870  0.442540  0.826650  1.0
  N  N325  1  0.679750  0.374150  0.103770  1.0
  N  N326  1  0.320250  0.625850  0.896230  1.0
  N  N327  1  0.113010  0.937210  0.343740  1.0
  N  N328  1  0.886990  0.062790  0.656260  1.0
  N  N329  1  0.093410  0.809940  0.935000  1.0
  N  N330  1  0.906590  0.190060  0.065000  1.0
  N  N331  1  0.724820  0.486620  0.548840  1.0
  N  N332  1  0.275180  0.513380  0.451160  1.0
  N  N333  1  0.976850  0.626240  0.736120  1.0
  N  N334  1  0.023150  0.373760  0.263880  1.0
  N  N335  1  0.397960  0.372470  0.422260  1.0
  N  N336  1  0.602040  0.627530  0.577740  1.0
  N  N337  1  0.080010  0.683790  0.483490  1.0
  N  N338  1  0.919990  0.316210  0.516510  1.0
  O  O339  1  0.344740  0.725330  0.133850  1.0
  O  O340  1  0.655260  0.274670  0.866150  1.0
  O  O341  1  0.317690  0.632090  0.202240  1.0
  O  O342  1  0.682310  0.367910  0.797760  1.0
  O  O343  1  0.467130  0.521310  0.246400  1.0
  O  O344  1  0.532870  0.478690  0.753600  1.0
  O  O345  1  0.493520  0.615120  0.180120  1.0
  O  O346  1  0.506480  0.384880  0.819880  1.0
  O  O347  1  0.350730  0.756810  0.242160  1.0
  O  O348  1  0.649270  0.243190  0.757840  1.0
  O  O349  1  0.327390  0.660740  0.311410  1.0
  O  O350  1  0.672610  0.339260  0.688590  1.0
  O  O351  1  0.501430  0.645140  0.289300  1.0
  O  O352  1  0.498570  0.354860  0.710700  1.0
  O  O353  1  0.476330  0.550790  0.355760  1.0
  O  O354  1  0.523670  0.449210  0.644240  1.0
  O  O355  1  0.337010  0.196740  0.193410  1.0
  O  O356  1  0.662990  0.803260  0.806590  1.0
  O  O357  1  0.259910  0.264580  0.233490  1.0
  O  O358  1  0.740090  0.735420  0.766510  1.0
  O  O359  1  0.152220  0.232590  0.199780  1.0
  O  O360  1  0.847780  0.767410  0.800220  1.0
  O  O361  1  0.231330  0.158250  0.166700  1.0
  O  O362  1  0.768670  0.841750  0.833300  1.0
  O  O363  1  0.894490  0.631680  0.931810  1.0
  O  O364  1  0.105510  0.368320  0.068190  1.0
  O  O365  1  0.820510  0.706230  0.967840  1.0
  O  O366  1  0.179490  0.293770  0.032160  1.0
  O  O367  1  0.788410  0.597660  0.900920  1.0
  O  O368  1  0.211590  0.402340  0.099080  1.0
  O  O369  1  0.716090  0.667140  0.942070  1.0
  O  O370  1  0.283910  0.332860  0.057930  1.0
  O  O371  1  0.849410  0.716450  0.411910  1.0
  O  O372  1  0.150590  0.283550  0.588090  1.0
  O  O373  1  0.761800  0.763890  0.328000  1.0
  O  O374  1  0.238200  0.236110  0.672000  1.0
  O  O375  1  0.853970  0.785250  0.234110  1.0
  O  O376  1  0.146030  0.214750  0.765890  1.0
  O  O377  1  0.941000  0.739840  0.316690  1.0
  O  O378  1  0.059000  0.260160  0.683310  1.0
  O  O379  1  0.192470  0.058510  0.791620  1.0
  O  O380  1  0.807530  0.941490  0.208380  1.0
  O  O381  1  0.106180  0.104190  0.708010  1.0
  O  O382  1  0.893820  0.895810  0.291990  1.0
  O  O383  1  0.713880  0.920460  0.303060  1.0
  O  O384  1  0.286120  0.079540  0.696940  1.0
  O  O385  1  0.800560  0.871470  0.388180  1.0
  O  O386  1  0.199440  0.128530  0.611820  1.0
  O  O387  1  0.448160  0.785440  0.141080  1.0
  O  O388  1  0.551840  0.214560  0.858920  1.0
  O  O389  1  0.663070  0.828720  0.928050  1.0
  O  O390  1  0.336930  0.171280  0.071950  1.0
  O  O391  1  0.692810  0.903360  0.181180  1.0
  O  O392  1  0.307190  0.096640  0.818820  1.0
  O  O393  1  0.369870  0.494560  0.342550  1.0
  O  O394  1  0.630130  0.505440  0.657450  1.0
  O  O395  1  0.896390  0.620030  0.801150  1.0
  O  O396  1  0.103610  0.379970  0.198850  1.0
  O  O397  1  0.963020  0.759160  0.436820  1.0
  O  O398  1  0.036980  0.240840  0.563180  1.0
