# generated using pymatgen
data_H4RuC8O5
_symmetry_space_group_name_H-M   'P 1'
_cell_length_a   22.27500000
_cell_length_b   25.02800000
_cell_length_c   25.33200000
_cell_angle_alpha   109.58800000
_cell_angle_beta   112.58800000
_cell_angle_gamma   103.58000000
_symmetry_Int_Tables_number   1
_chemical_formula_structural   H4RuC8O5
_chemical_formula_sum   'H96 Ru24 C192 O120'
_cell_volume   11160.09042850
_cell_formula_units_Z   24
loop_
 _symmetry_equiv_pos_site_id
 _symmetry_equiv_pos_as_xyz
  1  'x, y, z'
loop_
 _atom_site_type_symbol
 _atom_site_label
 _atom_site_symmetry_multiplicity
 _atom_site_fract_x
 _atom_site_fract_y
 _atom_site_fract_z
 _atom_site_occupancy
  H  H1  1  0.165400  0.437800  0.951800  1.0
  H  H2  1  0.834600  0.562200  0.048200  1.0
  H  H3  1  0.042800  0.387100  0.907200  1.0
  H  H4  1  0.957200  0.612900  0.092800  1.0
  H  H5  1  0.998000  0.361200  0.968400  1.0
  H  H6  1  0.002000  0.638800  0.031600  1.0
  H  H7  1  0.198300  0.436700  0.118800  1.0
  H  H8  1  0.801700  0.563300  0.881200  1.0
  H  H9  1  0.443900  0.400100  0.968500  1.0
  H  H10  1  0.556100  0.599900  0.031500  1.0
  H  H11  1  0.485200  0.325800  0.934300  1.0
  H  H12  1  0.514800  0.674200  0.065700  1.0
  H  H13  1  0.524300  0.277600  0.996100  1.0
  H  H14  1  0.475700  0.722400  0.003900  1.0
  H  H15  1  0.480800  0.377700  0.126200  1.0
  H  H16  1  0.519200  0.622300  0.873800  1.0
  H  H17  1  0.621300  0.691500  0.153600  1.0
  H  H18  1  0.378700  0.308500  0.846400  1.0
  H  H19  1  0.743400  0.748800  0.201900  1.0
  H  H20  1  0.256600  0.251200  0.798100  1.0
  H  H21  1  0.822800  0.750700  0.295100  1.0
  H  H22  1  0.177200  0.249300  0.704900  1.0
  H  H23  1  0.658100  0.638100  0.291700  1.0
  H  H24  1  0.341900  0.361900  0.708300  1.0
  H  H25  1  0.365300  0.725900  0.132400  1.0
  H  H26  1  0.634700  0.274100  0.867600  1.0
  H  H27  1  0.336300  0.808000  0.172200  1.0
  H  H28  1  0.663700  0.192000  0.827800  1.0
  H  H29  1  0.323200  0.828400  0.262500  1.0
  H  H30  1  0.676800  0.171600  0.737500  1.0
  H  H31  1  0.367900  0.684700  0.273300  1.0
  H  H32  1  0.632100  0.315300  0.726700  1.0
  H  H33  1  0.934700  0.524100  0.175700  1.0
  H  H34  1  0.065300  0.475900  0.824300  1.0
  H  H35  1  0.949000  0.627000  0.211800  1.0
  H  H36  1  0.051000  0.373000  0.788200  1.0
  H  H37  1  0.059900  0.707400  0.293500  1.0
  H  H38  1  0.940100  0.292600  0.706500  1.0
  H  H39  1  0.142300  0.581900  0.302900  1.0
  H  H40  1  0.857700  0.418100  0.697100  1.0
  H  H41  1  0.164300  0.719000  0.787100  1.0
  H  H42  1  0.835700  0.281000  0.212900  1.0
  H  H43  1  0.205300  0.752200  0.727200  1.0
  H  H44  1  0.794700  0.247800  0.272800  1.0
  H  H45  1  0.124300  0.735700  0.626000  1.0
  H  H46  1  0.875700  0.264300  0.374000  1.0
  H  H47  1  0.961300  0.652700  0.644600  1.0
  H  H48  1  0.038700  0.347300  0.355400  1.0
  H  H49  1  0.902800  0.139600  0.012100  1.0
  H  H50  1  0.097200  0.860400  0.987900  1.0
  H  H51  1  0.890700  0.037400  0.977900  1.0
  H  H52  1  0.109300  0.962600  0.022100  1.0
  H  H53  1  0.980400  0.015300  0.038500  1.0
  H  H54  1  0.019600  0.984700  0.961500  1.0
  H  H55  1  0.094300  0.197700  0.167500  1.0
  H  H56  1  0.905700  0.802300  0.832500  1.0
  H  H57  1  0.501000  0.999100  0.548200  1.0
  H  H58  1  0.499000  0.000900  0.451800  1.0
  H  H59  1  0.613200  0.079000  0.627400  1.0
  H  H60  1  0.386800  0.921000  0.372600  1.0
  H  H61  1  0.700900  0.058300  0.692500  1.0
  H  H62  1  0.299100  0.941700  0.307500  1.0
  H  H63  1  0.564200  0.877600  0.599200  1.0
  H  H64  1  0.435800  0.122400  0.400800  1.0
  H  H65  1  0.254300  0.895500  0.592700  1.0
  H  H66  1  0.745700  0.104500  0.407300  1.0
  H  H67  1  0.253200  0.923500  0.689300  1.0
  H  H68  1  0.746800  0.076500  0.310700  1.0
  H  H69  1  0.292500  0.876200  0.752300  1.0
  H  H70  1  0.707500  0.123800  0.247700  1.0
  H  H71  1  0.333800  0.773100  0.622000  1.0
  H  H72  1  0.666200  0.226900  0.378000  1.0
  H  H73  1  0.959300  0.014500  0.713000  1.0
  H  H74  1  0.040700  0.985500  0.287000  1.0
  H  H75  1  0.021700  0.008600  0.657500  1.0
  H  H76  1  0.978300  0.991400  0.342500  1.0
  H  H77  1  0.998200  0.912300  0.580000  1.0
  H  H78  1  0.001800  0.087700  0.420000  1.0
  H  H79  1  0.850100  0.827900  0.613500  1.0
  H  H80  1  0.149900  0.172100  0.386500  1.0
  H  H81  1  0.241100  0.966800  0.047300  1.0
  H  H82  1  0.758900  0.033200  0.952700  1.0
  H  H83  1  0.305200  0.960500  0.993500  1.0
  H  H84  1  0.694800  0.039500  0.006500  1.0
  H  H85  1  0.408600  0.045800  0.031900  1.0
  H  H86  1  0.591400  0.954200  0.968100  1.0
  H  H87  1  0.383800  0.143700  0.178100  1.0
  H  H88  1  0.616200  0.856300  0.821900  1.0
  H  H89  1  0.932700  0.547900  0.307500  1.0
  H  H90  1  0.067300  0.452100  0.692500  1.0
  H  H91  1  0.905500  0.452200  0.226400  1.0
  H  H92  1  0.094500  0.547800  0.773600  1.0
  H  H93  1  0.810800  0.363400  0.196000  1.0
  H  H94  1  0.189200  0.636600  0.804000  1.0
  H  H95  1  0.770500  0.466000  0.327600  1.0
  H  H96  1  0.229500  0.534000  0.672400  1.0
  Ru  Ru97  1  0.401340  0.552270  0.079490  1.0
  Ru  Ru98  1  0.598660  0.447730  0.920510  1.0
  Ru  Ru99  1  0.420480  0.538210  0.168890  1.0
  Ru  Ru100  1  0.579520  0.461790  0.831110  1.0
  Ru  Ru101  1  0.959810  0.343740  0.125070  1.0
  Ru  Ru102  1  0.040190  0.656260  0.874930  1.0
  Ru  Ru103  1  0.074830  0.377220  0.205220  1.0
  Ru  Ru104  1  0.925170  0.622780  0.794780  1.0
  Ru  Ru105  1  0.296090  0.828940  0.427990  1.0
  Ru  Ru106  1  0.703910  0.171060  0.572010  1.0
  Ru  Ru107  1  0.336330  0.755860  0.443020  1.0
  Ru  Ru108  1  0.663670  0.244140  0.556980  1.0
  Ru  Ru109  1  0.831080  0.983910  0.805880  1.0
  Ru  Ru110  1  0.168920  0.016090  0.194120  1.0
  Ru  Ru111  1  0.760170  0.878810  0.742520  1.0
  Ru  Ru112  1  0.239830  0.121190  0.257480  1.0
  Ru  Ru113  1  0.937170  0.712020  0.454290  1.0
  Ru  Ru114  1  0.062830  0.287980  0.545710  1.0
  Ru  Ru115  1  0.844490  0.663880  0.465100  1.0
  Ru  Ru116  1  0.155510  0.336120  0.534900  1.0
  Ru  Ru117  1  0.609140  0.223500  0.149580  1.0
  Ru  Ru118  1  0.390860  0.776500  0.850420  1.0
  Ru  Ru119  1  0.585620  0.281880  0.224500  1.0
  Ru  Ru120  1  0.414380  0.718120  0.775500  1.0
  C  C121  1  0.272600  0.477100  0.070100  1.0
  C  C122  1  0.727400  0.522900  0.929900  1.0
  C  C123  1  0.194000  0.442300  0.039700  1.0
  C  C124  1  0.806000  0.557700  0.960300  1.0
  C  C125  1  0.147400  0.427400  0.976300  1.0
  C  C126  1  0.852600  0.572600  0.023700  1.0
  C  C127  1  0.074000  0.397000  0.949600  1.0
  C  C128  1  0.926000  0.603000  0.050400  1.0
  C  C129  1  0.047100  0.381500  0.986300  1.0
  C  C130  1  0.952900  0.618500  0.013700  1.0
  C  C131  1  0.093700  0.396400  0.049700  1.0
  C  C132  1  0.906300  0.603600  0.950300  1.0
  C  C133  1  0.167100  0.426800  0.076400  1.0
  C  C134  1  0.832900  0.573200  0.923600  1.0
  C  C135  1  0.065700  0.382000  0.091100  1.0
  C  C136  1  0.934300  0.618000  0.908900  1.0
  C  C137  1  0.436500  0.448200  0.076200  1.0
  C  C138  1  0.563500  0.551800  0.923800  1.0
  C  C139  1  0.458300  0.396300  0.050700  1.0
  C  C140  1  0.541700  0.603700  0.949300  1.0
  C  C141  1  0.459600  0.380700  0.993300  1.0
  C  C142  1  0.540400  0.619300  0.006700  1.0
  C  C143  1  0.484300  0.336200  0.972800  1.0
  C  C144  1  0.515700  0.663800  0.027200  1.0
  C  C145  1  0.507700  0.307300  0.009800  1.0
  C  C146  1  0.492300  0.692700  0.990200  1.0
  C  C147  1  0.506400  0.322900  0.067300  1.0
  C  C148  1  0.493600  0.677100  0.932700  1.0
  C  C149  1  0.481700  0.367300  0.087800  1.0
  C  C150  1  0.518300  0.632700  0.912200  1.0
  C  C151  1  0.537300  0.295200  0.109500  1.0
  C  C152  1  0.462700  0.704800  0.890500  1.0
  C  C153  1  0.547500  0.618300  0.181800  1.0
  C  C154  1  0.452500  0.381700  0.818200  1.0
  C  C155  1  0.627600  0.659100  0.217900  1.0
  C  C156  1  0.372400  0.340900  0.782100  1.0
  C  C157  1  0.653100  0.692300  0.190900  1.0
  C  C158  1  0.346900  0.307700  0.809100  1.0
  C  C159  1  0.726300  0.726600  0.219900  1.0
  C  C160  1  0.273700  0.273400  0.780100  1.0
  C  C161  1  0.773900  0.727800  0.275800  1.0
  C  C162  1  0.226100  0.272200  0.724200  1.0
  C  C163  1  0.748300  0.694600  0.302700  1.0
  C  C164  1  0.251700  0.305400  0.697300  1.0
  C  C165  1  0.675200  0.660300  0.273700  1.0
  C  C166  1  0.324800  0.339700  0.726300  1.0
  C  C167  1  0.799900  0.693300  0.358600  1.0
  C  C168  1  0.200100  0.306700  0.641400  1.0
  C  C169  1  0.385900  0.640800  0.172200  1.0
  C  C170  1  0.614100  0.359200  0.827800  1.0
  C  C171  1  0.369500  0.697200  0.198900  1.0
  C  C172  1  0.630500  0.302800  0.801100  1.0
  C  C173  1  0.360000  0.734100  0.168600  1.0
  C  C174  1  0.640000  0.265900  0.831400  1.0
  C  C175  1  0.342700  0.783300  0.192400  1.0
  C  C176  1  0.657300  0.216700  0.807600  1.0
  C  C177  1  0.334800  0.795500  0.246500  1.0
  C  C178  1  0.665200  0.204500  0.753500  1.0
  C  C179  1  0.344200  0.758600  0.276800  1.0
  C  C180  1  0.655800  0.241400  0.723200  1.0
  C  C181  1  0.361600  0.709400  0.253000  1.0
  C  C182  1  0.638400  0.290600  0.747000  1.0
  C  C183  1  0.334200  0.773200  0.335600  1.0
  C  C184  1  0.665800  0.226800  0.664400  1.0
  C  C185  1  0.027800  0.475200  0.209600  1.0
  C  C186  1  0.972200  0.524800  0.790400  1.0
  C  C187  1  0.037100  0.542800  0.235800  1.0
  C  C188  1  0.962900  0.457200  0.764200  1.0
  C  C189  1  0.979100  0.556300  0.208500  1.0
  C  C190  1  0.020900  0.443700  0.791500  1.0
  C  C191  1  0.987700  0.617900  0.230100  1.0
  C  C192  1  0.012300  0.382100  0.769900  1.0
  C  C193  1  0.054200  0.666100  0.279000  1.0
  C  C194  1  0.945800  0.333900  0.721000  1.0
  C  C195  1  0.112100  0.652600  0.306300  1.0
  C  C196  1  0.887900  0.347400  0.693700  1.0
  C  C197  1  0.103500  0.591000  0.284700  1.0
  C  C198  1  0.896500  0.409000  0.715300  1.0
  C  C199  1  0.184800  0.704300  0.356000  1.0
  C  C200  1  0.815200  0.295700  0.644000  1.0
  C  C201  1  0.029900  0.663800  0.760600  1.0
  C  C202  1  0.970100  0.336200  0.239400  1.0
  C  C203  1  0.058800  0.682600  0.721800  1.0
  C  C204  1  0.941200  0.317400  0.278200  1.0
  C  C205  1  0.131800  0.712400  0.746500  1.0
  C  C206  1  0.868200  0.287600  0.253500  1.0
  C  C207  1  0.156400  0.732300  0.710700  1.0
  C  C208  1  0.843600  0.267700  0.289300  1.0
  C  C209  1  0.107900  0.722400  0.650000  1.0
  C  C210  1  0.892100  0.277600  0.350000  1.0
  C  C211  1  0.034800  0.692600  0.625300  1.0
  C  C212  1  0.965200  0.307400  0.374700  1.0
  C  C213  1  0.010200  0.672600  0.661200  1.0
  C  C214  1  0.989800  0.327400  0.338800  1.0
  C  C215  1  0.982800  0.687200  0.561700  1.0
  C  C216  1  0.017200  0.312800  0.438300  1.0
  C  C217  1  0.006000  0.246100  0.119700  1.0
  C  C218  1  0.994000  0.753900  0.880300  1.0
  C  C219  1  0.999700  0.178800  0.093200  1.0
  C  C220  1  0.000300  0.821200  0.906800  1.0
  C  C221  1  0.938800  0.130800  0.036400  1.0
  C  C222  1  0.061200  0.869200  0.963600  1.0
  C  C223  1  0.931500  0.069500  0.015900  1.0
  C  C224  1  0.068500  0.930500  0.984100  1.0
  C  C225  1  0.985200  0.056300  0.052200  1.0
  C  C226  1  0.014800  0.943700  0.947800  1.0
  C  C227  1  0.046200  0.104300  0.109000  1.0
  C  C228  1  0.953800  0.895700  0.891000  1.0
  C  C229  1  0.053500  0.165600  0.129500  1.0
  C  C230  1  0.946500  0.834400  0.870500  1.0
  C  C231  1  0.104800  0.091400  0.149800  1.0
  C  C232  1  0.895200  0.908600  0.850200  1.0
  C  C233  1  0.445900  0.880100  0.516600  1.0
  C  C234  1  0.554100  0.119900  0.483400  1.0
  C  C235  1  0.521500  0.930400  0.565800  1.0
  C  C236  1  0.478500  0.069600  0.434200  1.0
  C  C237  1  0.536100  0.990800  0.574300  1.0
  C  C238  1  0.463900  0.009200  0.425700  1.0
  C  C239  1  0.603400  0.038700  0.621700  1.0
  C  C240  1  0.396600  0.961300  0.378300  1.0
  C  C241  1  0.655900  0.026200  0.660700  1.0
  C  C242  1  0.344100  0.973800  0.339300  1.0
  C  C243  1  0.641200  0.965900  0.652300  1.0
  C  C244  1  0.358800  0.034100  0.347700  1.0
  C  C245  1  0.574000  0.917900  0.604800  1.0
  C  C246  1  0.426000  0.082100  0.395200  1.0
  C  C247  1  0.696200  0.951800  0.694900  1.0
  C  C248  1  0.303800  0.048200  0.305100  1.0
  C  C249  1  0.299500  0.815400  0.536700  1.0
  C  C250  1  0.700500  0.184600  0.463300  1.0
  C  C251  1  0.294100  0.831500  0.597800  1.0
  C  C252  1  0.705900  0.168500  0.402200  1.0
  C  C253  1  0.270000  0.876600  0.618000  1.0
  C  C254  1  0.730000  0.123400  0.382000  1.0
  C  C255  1  0.269400  0.893300  0.675800  1.0
  C  C256  1  0.730600  0.106700  0.324200  1.0
  C  C257  1  0.292900  0.865000  0.713500  1.0
  C  C258  1  0.707100  0.135000  0.286500  1.0
  C  C259  1  0.317000  0.820000  0.693400  1.0
  C  C260  1  0.683000  0.180000  0.306600  1.0
  C  C261  1  0.317700  0.803200  0.635500  1.0
  C  C262  1  0.682300  0.196800  0.364500  1.0
  C  C263  1  0.344400  0.790500  0.734300  1.0
  C  C264  1  0.655600  0.209500  0.265700  1.0
  C  C265  1  0.857300  0.923200  0.704900  1.0
  C  C266  1  0.142700  0.076800  0.295100  1.0
  C  C267  1  0.898500  0.921800  0.668700  1.0
  C  C268  1  0.101500  0.078200  0.331300  1.0
  C  C269  1  0.949900  0.975900  0.681900  1.0
  C  C270  1  0.050100  0.024100  0.318100  1.0
  C  C271  1  0.987300  0.972300  0.648600  1.0
  C  C272  1  0.012700  0.027700  0.351400  1.0
  C  C273  1  0.973200  0.914700  0.602200  1.0
  C  C274  1  0.026800  0.085300  0.397800  1.0
  C  C275  1  0.921900  0.860500  0.589000  1.0
  C  C276  1  0.078100  0.139500  0.411000  1.0
  C  C277  1  0.884500  0.864100  0.622300  1.0
  C  C278  1  0.115500  0.135900  0.377700  1.0
  C  C279  1  0.909200  0.796900  0.540900  1.0
  C  C280  1  0.090800  0.203100  0.459100  1.0
  C  C281  1  0.267200  0.061800  0.156800  1.0
  C  C282  1  0.732800  0.938200  0.843200  1.0
  C  C283  1  0.306100  0.055900  0.118100  1.0
  C  C284  1  0.693900  0.944100  0.881900  1.0
  C  C285  1  0.282600  0.001000  0.062800  1.0
  C  C286  1  0.717400  0.999000  0.937200  1.0
  C  C287  1  0.321000  0.997200  0.030500  1.0
  C  C288  1  0.679000  0.002800  0.969500  1.0
  C  C289  1  0.382900  0.048300  0.053500  1.0
  C  C290  1  0.617100  0.951700  0.946500  1.0
  C  C291  1  0.406400  0.103200  0.108800  1.0
  C  C292  1  0.593600  0.896800  0.891200  1.0
  C  C293  1  0.368000  0.107000  0.141100  1.0
  C  C294  1  0.632000  0.893000  0.858900  1.0
  C  C295  1  0.476000  0.158100  0.137100  1.0
  C  C296  1  0.524000  0.841900  0.862900  1.0
  C  C297  1  0.870400  0.578600  0.377800  1.0
  C  C298  1  0.129600  0.421400  0.622200  1.0
  C  C299  1  0.854300  0.516400  0.325600  1.0
  C  C300  1  0.145700  0.483600  0.674400  1.0
  C  C301  1  0.894700  0.512300  0.295300  1.0
  C  C302  1  0.105300  0.487700  0.704700  1.0
  C  C303  1  0.878400  0.455000  0.246700  1.0
  C  C304  1  0.121600  0.545000  0.753300  1.0
  C  C305  1  0.821700  0.401800  0.228500  1.0
  C  C306  1  0.178300  0.598200  0.771500  1.0
  C  C307  1  0.781300  0.405900  0.258700  1.0
  C  C308  1  0.218700  0.594100  0.741300  1.0
  C  C309  1  0.797600  0.463200  0.307300  1.0
  C  C310  1  0.202400  0.536800  0.692700  1.0
  C  C311  1  0.716800  0.349100  0.235800  1.0
  C  C312  1  0.283200  0.650900  0.764200  1.0
  O  O313  1  0.294400  0.497300  0.036600  1.0
  O  O314  1  0.705600  0.502700  0.963400  1.0
  O  O315  1  0.420700  0.475900  0.042100  1.0
  O  O316  1  0.579300  0.524100  0.957900  1.0
  O  O317  1  0.508600  0.609200  0.125700  1.0
  O  O318  1  0.491400  0.390800  0.874300  1.0
  O  O319  1  0.384800  0.628200  0.119000  1.0
  O  O320  1  0.615200  0.371800  0.881000  1.0
  O  O321  1  0.313000  0.484300  0.123900  1.0
  O  O322  1  0.687000  0.515700  0.876100  1.0
  O  O323  1  0.438600  0.461000  0.128600  1.0
  O  O324  1  0.561400  0.539000  0.871400  1.0
  O  O325  1  0.528400  0.595500  0.213700  1.0
  O  O326  1  0.471600  0.404500  0.786300  1.0
  O  O327  1  0.402100  0.613900  0.206100  1.0
  O  O328  1  0.597900  0.386100  0.793900  1.0
  O  O329  1  0.370700  0.554600  0.980800  1.0
  O  O330  1  0.629300  0.445400  0.019200  1.0
  O  O331  1  0.439700  0.522400  0.258300  1.0
  O  O332  1  0.560300  0.477600  0.741700  1.0
  O  O333  1  0.999300  0.360200  0.067300  1.0
  O  O334  1  0.000700  0.639800  0.932700  1.0
  O  O335  1  0.970000  0.434800  0.163800  1.0
  O  O336  1  0.030000  0.565200  0.836200  1.0
  O  O337  1  0.077000  0.673900  0.815600  1.0
  O  O338  1  0.923000  0.326100  0.184400  1.0
  O  O339  1  0.952600  0.253900  0.088500  1.0
  O  O340  1  0.047400  0.746100  0.911500  1.0
  O  O341  1  0.111400  0.393700  0.147000  1.0
  O  O342  1  0.888600  0.606300  0.853000  1.0
  O  O343  1  0.082500  0.466600  0.239500  1.0
  O  O344  1  0.917500  0.533400  0.760500  1.0
  O  O345  1  0.964100  0.640000  0.736900  1.0
  O  O346  1  0.035900  0.360000  0.263100  1.0
  O  O347  1  0.064600  0.286900  0.167900  1.0
  O  O348  1  0.935400  0.713100  0.832100  1.0
  O  O349  1  0.840500  0.315400  0.047900  1.0
  O  O350  1  0.159500  0.684600  0.952100  1.0
  O  O351  1  0.192200  0.411100  0.286500  1.0
  O  O352  1  0.807800  0.588900  0.713500  1.0
  O  O353  1  0.193000  0.759200  0.367600  1.0
  O  O354  1  0.807000  0.240800  0.632400  1.0
  O  O355  1  0.310000  0.812200  0.349400  1.0
  O  O356  1  0.690000  0.187800  0.650600  1.0
  O  O357  1  0.399900  0.895600  0.488900  1.0
  O  O358  1  0.600100  0.104400  0.511100  1.0
  O  O359  1  0.283400  0.846800  0.507100  1.0
  O  O360  1  0.716600  0.153200  0.492900  1.0
  O  O361  1  0.233200  0.688200  0.380900  1.0
  O  O362  1  0.766800  0.311800  0.619100  1.0
  O  O363  1  0.350600  0.739900  0.363700  1.0
  O  O364  1  0.649400  0.260100  0.636300  1.0
  O  O365  1  0.438900  0.825700  0.505900  1.0
  O  O366  1  0.561100  0.174300  0.494100  1.0
  O  O367  1  0.320800  0.774400  0.521400  1.0
  O  O368  1  0.679200  0.225600  0.478600  1.0
  O  O369  1  0.253400  0.901000  0.412300  1.0
  O  O370  1  0.746600  0.099000  0.587700  1.0
  O  O371  1  0.371200  0.677800  0.453600  1.0
  O  O372  1  0.628800  0.322200  0.546400  1.0
  O  O373  1  0.753800  0.999500  0.743300  1.0
  O  O374  1  0.246200  0.000500  0.256700  1.0
  O  O375  1  0.879200  0.978500  0.750800  1.0
  O  O376  1  0.120800  0.021500  0.249200  1.0
  O  O377  1  0.093300  0.034800  0.133700  1.0
  O  O378  1  0.906700  0.965200  0.866300  1.0
  O  O379  1  0.217500  0.011100  0.139100  1.0
  O  O380  1  0.782500  0.988900  0.860900  1.0
  O  O381  1  0.684800  0.896800  0.682600  1.0
  O  O382  1  0.315200  0.103200  0.317400  1.0
  O  O383  1  0.809900  0.875200  0.689000  1.0
  O  O384  1  0.190100  0.124800  0.311000  1.0
  O  O385  1  0.161600  0.137300  0.196900  1.0
  O  O386  1  0.838400  0.862700  0.803100  1.0
  O  O387  1  0.287800  0.113400  0.201700  1.0
  O  O388  1  0.712200  0.886600  0.798300  1.0
  O  O389  1  0.891700  0.091200  0.868800  1.0
  O  O390  1  0.108300  0.908800  0.131200  1.0
  O  O391  1  0.687300  0.769800  0.678300  1.0
  O  O392  1  0.312700  0.230200  0.321700  1.0
  O  O393  1  0.864600  0.716400  0.377100  1.0
  O  O394  1  0.135400  0.283600  0.622900  1.0
  O  O395  1  0.921600  0.626000  0.390100  1.0
  O  O396  1  0.078400  0.374000  0.609900  1.0
  O  O397  1  0.009000  0.709200  0.533800  1.0
  O  O398  1  0.991000  0.290800  0.466200  1.0
  O  O399  1  0.948600  0.796200  0.515800  1.0
  O  O400  1  0.051400  0.203800  0.484200  1.0
  O  O401  1  0.774700  0.667800  0.386400  1.0
  O  O402  1  0.225300  0.332200  0.613600  1.0
  O  O403  1  0.830500  0.578900  0.401800  1.0
  O  O404  1  0.169500  0.421100  0.598200  1.0
  O  O405  1  0.917200  0.662500  0.543700  1.0
  O  O406  1  0.082800  0.337500  0.456300  1.0
  O  O407  1  0.859600  0.750700  0.528500  1.0
  O  O408  1  0.140400  0.249300  0.471500  1.0
  O  O409  1  0.027900  0.764000  0.442200  1.0
  O  O410  1  0.972100  0.236000  0.557800  1.0
  O  O411  1  0.750500  0.609500  0.476200  1.0
  O  O412  1  0.249500  0.390500  0.523800  1.0
  O  O413  1  0.559400  0.256200  0.089100  1.0
  O  O414  1  0.440600  0.743800  0.910900  1.0
  O  O415  1  0.512000  0.150400  0.109300  1.0
  O  O416  1  0.488000  0.849600  0.890700  1.0
  O  O417  1  0.343600  0.808700  0.787300  1.0
  O  O418  1  0.656400  0.191300  0.212700  1.0
  O  O419  1  0.704700  0.299400  0.190700  1.0
  O  O420  1  0.295300  0.700600  0.809300  1.0
  O  O421  1  0.536100  0.312500  0.161800  1.0
  O  O422  1  0.463900  0.687500  0.838200  1.0
  O  O423  1  0.490300  0.206700  0.183600  1.0
  O  O424  1  0.509700  0.793300  0.816400  1.0
  O  O425  1  0.366000  0.751200  0.715000  1.0
  O  O426  1  0.634000  0.248800  0.285000  1.0
  O  O427  1  0.680900  0.355600  0.262200  1.0
  O  O428  1  0.319100  0.644400  0.737800  1.0
  O  O429  1  0.637100  0.166700  0.074200  1.0
  O  O430  1  0.362900  0.833300  0.925800  1.0
  O  O431  1  0.561900  0.340200  0.303000  1.0
  O  O432  1  0.438100  0.659800  0.697000  1.0
