# generated using pymatgen
data_H54Pd3C42(N9O14)2
_symmetry_space_group_name_H-M   'P 1'
_cell_length_a   14.58600000
_cell_length_b   19.45000000
_cell_length_c   26.40000000
_cell_angle_alpha   94.13000000
_cell_angle_beta   90.00000000
_cell_angle_gamma   90.00000000
_symmetry_Int_Tables_number   1
_chemical_formula_structural   H54Pd3C42(N9O14)2
_chemical_formula_sum   'H216 Pd12 C168 N72 O112'
_cell_volume   7470.17031328
_cell_formula_units_Z   4
loop_
 _symmetry_equiv_pos_site_id
 _symmetry_equiv_pos_as_xyz
  1  'x, y, z'
loop_
 _atom_site_type_symbol
 _atom_site_label
 _atom_site_symmetry_multiplicity
 _atom_site_fract_x
 _atom_site_fract_y
 _atom_site_fract_z
 _atom_site_occupancy
  H  H1  1  0.617200  0.574500  0.154900  1.0
  H  H2  1  0.117200  0.425500  0.345100  1.0
  H  H3  1  0.382800  0.425500  0.845100  1.0
  H  H4  1  0.882800  0.574500  0.654900  1.0
  H  H5  1  0.577600  0.606800  0.277000  1.0
  H  H6  1  0.077600  0.393200  0.223000  1.0
  H  H7  1  0.422400  0.393200  0.723000  1.0
  H  H8  1  0.922400  0.606800  0.777000  1.0
  H  H9  1  0.651300  0.414500  0.307500  1.0
  H  H10  1  0.151300  0.585500  0.192500  1.0
  H  H11  1  0.348700  0.585500  0.692500  1.0
  H  H12  1  0.848700  0.414500  0.807500  1.0
  H  H13  1  0.575000  0.400300  0.267100  1.0
  H  H14  1  0.075000  0.599700  0.232900  1.0
  H  H15  1  0.425000  0.599700  0.732900  1.0
  H  H16  1  0.925000  0.400300  0.767100  1.0
  H  H17  1  0.571100  0.453000  0.362700  1.0
  H  H18  1  0.071100  0.547000  0.137300  1.0
  H  H19  1  0.428900  0.547000  0.637300  1.0
  H  H20  1  0.928900  0.453000  0.862700  1.0
  H  H21  1  0.647900  0.502000  0.346500  1.0
  H  H22  1  0.147900  0.498000  0.153500  1.0
  H  H23  1  0.352100  0.498000  0.653500  1.0
  H  H24  1  0.852100  0.502000  0.846500  1.0
  H  H25  1  0.533200  0.548700  0.358700  1.0
  H  H26  1  0.033200  0.451300  0.141300  1.0
  H  H27  1  0.466800  0.451300  0.641300  1.0
  H  H28  1  0.966800  0.548700  0.858700  1.0
  H  H29  1  0.472300  0.542800  0.310400  1.0
  H  H30  1  0.972300  0.457200  0.189600  1.0
  H  H31  1  0.527700  0.457200  0.689600  1.0
  H  H32  1  0.027700  0.542800  0.810400  1.0
  H  H33  1  0.649700  0.590500  0.317700  1.0
  H  H34  1  0.149700  0.409500  0.182300  1.0
  H  H35  1  0.350300  0.409500  0.682300  1.0
  H  H36  1  0.850300  0.590500  0.817700  1.0
  H  H37  1  0.624400  0.420500  0.145500  1.0
  H  H38  1  0.124400  0.579500  0.354500  1.0
  H  H39  1  0.375600  0.579500  0.854500  1.0
  H  H40  1  0.875600  0.420500  0.645500  1.0
  H  H41  1  0.656200  0.329400  0.098400  1.0
  H  H42  1  0.156200  0.670600  0.401600  1.0
  H  H43  1  0.343800  0.670600  0.901600  1.0
  H  H44  1  0.843800  0.329400  0.598400  1.0
  H  H45  1  0.875100  0.303100  0.191000  1.0
  H  H46  1  0.375100  0.696900  0.309000  1.0
  H  H47  1  0.124900  0.696900  0.809000  1.0
  H  H48  1  0.624900  0.303100  0.691000  1.0
  H  H49  1  0.817600  0.403700  0.247700  1.0
  H  H50  1  0.317600  0.596300  0.252300  1.0
  H  H51  1  0.182400  0.596300  0.752300  1.0
  H  H52  1  0.682400  0.403700  0.747700  1.0
  H  H53  1  0.602500  0.122400  0.186700  1.0
  H  H54  1  0.102500  0.877600  0.313300  1.0
  H  H55  1  0.397500  0.877600  0.813300  1.0
  H  H56  1  0.897500  0.122400  0.686700  1.0
  H  H57  1  0.698300  0.089600  0.176500  1.0
  H  H58  1  0.198300  0.910400  0.323500  1.0
  H  H59  1  0.301700  0.910400  0.823500  1.0
  H  H60  1  0.801700  0.089600  0.676500  1.0
  H  H61  1  0.618700  0.073300  0.138600  1.0
  H  H62  1  0.118700  0.926700  0.361400  1.0
  H  H63  1  0.381300  0.926700  0.861400  1.0
  H  H64  1  0.881300  0.073300  0.638600  1.0
  H  H65  1  0.810400  0.601400  0.255900  1.0
  H  H66  1  0.310400  0.398600  0.244100  1.0
  H  H67  1  0.189600  0.398600  0.744100  1.0
  H  H68  1  0.689600  0.601400  0.755900  1.0
  H  H69  1  0.872500  0.679000  0.207500  1.0
  H  H70  1  0.372500  0.321000  0.292500  1.0
  H  H71  1  0.127500  0.321000  0.792500  1.0
  H  H72  1  0.627500  0.679000  0.707500  1.0
  H  H73  1  0.663700  0.663600  0.108300  1.0
  H  H74  1  0.163700  0.336400  0.391700  1.0
  H  H75  1  0.336300  0.336400  0.891700  1.0
  H  H76  1  0.836300  0.663600  0.608300  1.0
  H  H77  1  0.388400  0.169500  0.070500  1.0
  H  H78  1  0.888400  0.830500  0.429500  1.0
  H  H79  1  0.611600  0.830500  0.929500  1.0
  H  H80  1  0.111600  0.169500  0.570500  1.0
  H  H81  1  0.398600  0.239900  0.101500  1.0
  H  H82  1  0.898600  0.760100  0.398500  1.0
  H  H83  1  0.601400  0.760100  0.898500  1.0
  H  H84  1  0.101400  0.239900  0.601500  1.0
  H  H85  1  0.463600  0.166300  0.157100  1.0
  H  H86  1  0.963600  0.833700  0.342900  1.0
  H  H87  1  0.536400  0.833700  0.842900  1.0
  H  H88  1  0.036400  0.166300  0.657100  1.0
  H  H89  1  0.392400  0.108700  0.143400  1.0
  H  H90  1  0.892400  0.891300  0.356600  1.0
  H  H91  1  0.607600  0.891300  0.856600  1.0
  H  H92  1  0.107600  0.108700  0.643400  1.0
  H  H93  1  0.358500  0.232000  0.204600  1.0
  H  H94  1  0.858500  0.768000  0.295400  1.0
  H  H95  1  0.641500  0.768000  0.795400  1.0
  H  H96  1  0.141500  0.232000  0.704600  1.0
  H  H97  1  0.342600  0.158100  0.221300  1.0
  H  H98  1  0.842600  0.841900  0.278700  1.0
  H  H99  1  0.657400  0.841900  0.778700  1.0
  H  H100  1  0.157400  0.158100  0.721300  1.0
  H  H101  1  0.206200  0.153000  0.191000  1.0
  H  H102  1  0.706200  0.847000  0.309000  1.0
  H  H103  1  0.793800  0.847000  0.809000  1.0
  H  H104  1  0.293800  0.153000  0.691000  1.0
  H  H105  1  0.212600  0.232300  0.201900  1.0
  H  H106  1  0.712600  0.767700  0.298100  1.0
  H  H107  1  0.787400  0.767700  0.798100  1.0
  H  H108  1  0.287400  0.232300  0.701900  1.0
  H  H109  1  0.244200  0.126900  0.007300  1.0
  H  H110  1  0.744200  0.873100  0.492700  1.0
  H  H111  1  0.755800  0.873100  0.992700  1.0
  H  H112  1  0.255800  0.126900  0.507300  1.0
  H  H113  1  0.230600  0.132900  0.920200  1.0
  H  H114  1  0.730600  0.867100  0.579800  1.0
  H  H115  1  0.769400  0.867100  0.079800  1.0
  H  H116  1  0.269400  0.132900  0.420200  1.0
  H  H117  1  0.211200  0.348000  0.947000  1.0
  H  H118  1  0.711200  0.652000  0.553000  1.0
  H  H119  1  0.788800  0.652000  0.053000  1.0
  H  H120  1  0.288800  0.348000  0.447000  1.0
  H  H121  1  0.190300  0.317000  0.035600  1.0
  H  H122  1  0.690300  0.683000  0.464400  1.0
  H  H123  1  0.809700  0.683000  0.964400  1.0
  H  H124  1  0.309700  0.317000  0.535600  1.0
  H  H125  1  0.688700  0.925500  0.179100  1.0
  H  H126  1  0.188700  0.074500  0.320900  1.0
  H  H127  1  0.311300  0.074500  0.820900  1.0
  H  H128  1  0.811300  0.925500  0.679100  1.0
  H  H129  1  0.596300  0.898000  0.198700  1.0
  H  H130  1  0.096300  0.102000  0.301300  1.0
  H  H131  1  0.403700  0.102000  0.801300  1.0
  H  H132  1  0.903700  0.898000  0.698700  1.0
  H  H133  1  0.686100  0.886900  0.228500  1.0
  H  H134  1  0.186100  0.113100  0.271500  1.0
  H  H135  1  0.313900  0.113100  0.771500  1.0
  H  H136  1  0.813900  0.886900  0.728500  1.0
  H  H137  1  0.094000  0.319700  0.092800  1.0
  H  H138  1  0.594000  0.680300  0.407200  1.0
  H  H139  1  0.906000  0.680300  0.907200  1.0
  H  H140  1  0.406000  0.319700  0.592800  1.0
  H  H141  1  0.935100  0.327600  0.091200  1.0
  H  H142  1  0.435100  0.672400  0.408800  1.0
  H  H143  1  0.064900  0.672400  0.908800  1.0
  H  H144  1  0.564900  0.327600  0.591200  1.0
  H  H145  1  0.898900  0.123500  0.115700  1.0
  H  H146  1  0.398900  0.876500  0.384300  1.0
  H  H147  1  0.101100  0.876500  0.884300  1.0
  H  H148  1  0.601100  0.123500  0.615700  1.0
  H  H149  1  0.071000  0.112700  0.113800  1.0
  H  H150  1  0.571000  0.887300  0.386200  1.0
  H  H151  1  0.929000  0.887300  0.886200  1.0
  H  H152  1  0.429000  0.112700  0.613800  1.0
  H  H153  1  0.795000  0.215700  0.777200  1.0
  H  H154  1  0.295000  0.784300  0.722800  1.0
  H  H155  1  0.205000  0.784300  0.222800  1.0
  H  H156  1  0.705000  0.215700  0.277200  1.0
  H  H157  1  0.770100  0.139900  0.786000  1.0
  H  H158  1  0.270100  0.860100  0.714000  1.0
  H  H159  1  0.229900  0.860100  0.214000  1.0
  H  H160  1  0.729900  0.139900  0.286000  1.0
  H  H161  1  0.646200  0.246200  0.781500  1.0
  H  H162  1  0.146200  0.753800  0.718500  1.0
  H  H163  1  0.353800  0.753800  0.218500  1.0
  H  H164  1  0.853800  0.246200  0.281500  1.0
  H  H165  1  0.652700  0.182100  0.743300  1.0
  H  H166  1  0.152700  0.817900  0.756700  1.0
  H  H167  1  0.347300  0.817900  0.256700  1.0
  H  H168  1  0.847300  0.182100  0.243300  1.0
  H  H169  1  0.541300  0.155300  0.806000  1.0
  H  H170  1  0.041300  0.844700  0.694000  1.0
  H  H171  1  0.458700  0.844700  0.194000  1.0
  H  H172  1  0.958700  0.155300  0.306000  1.0
  H  H173  1  0.626700  0.110200  0.814900  1.0
  H  H174  1  0.126700  0.889800  0.685100  1.0
  H  H175  1  0.373300  0.889800  0.185100  1.0
  H  H176  1  0.873300  0.110200  0.314900  1.0
  H  H177  1  0.593600  0.241900  0.867000  1.0
  H  H178  1  0.093600  0.758100  0.633000  1.0
  H  H179  1  0.406400  0.758100  0.133000  1.0
  H  H180  1  0.906400  0.241900  0.367000  1.0
  H  H181  1  0.600400  0.173700  0.893800  1.0
  H  H182  1  0.100400  0.826300  0.606200  1.0
  H  H183  1  0.399600  0.826300  0.106200  1.0
  H  H184  1  0.899600  0.173700  0.393800  1.0
  H  H185  1  0.736000  0.126900  0.954200  1.0
  H  H186  1  0.236000  0.873100  0.545800  1.0
  H  H187  1  0.264000  0.873100  0.045800  1.0
  H  H188  1  0.764000  0.126900  0.454200  1.0
  H  H189  1  0.754600  0.131200  0.044800  1.0
  H  H190  1  0.254600  0.868800  0.455200  1.0
  H  H191  1  0.245400  0.868800  0.955200  1.0
  H  H192  1  0.745400  0.131200  0.544800  1.0
  H  H193  1  0.790800  0.343900  0.039100  1.0
  H  H194  1  0.290800  0.656100  0.460900  1.0
  H  H195  1  0.209200  0.656100  0.960900  1.0
  H  H196  1  0.709200  0.343900  0.539100  1.0
  H  H197  1  0.786200  0.320500  0.951900  1.0
  H  H198  1  0.286200  0.679500  0.548100  1.0
  H  H199  1  0.213800  0.679500  0.048100  1.0
  H  H200  1  0.713800  0.320500  0.451900  1.0
  H  H201  1  0.916400  0.123300  0.836800  1.0
  H  H202  1  0.416400  0.876700  0.663200  1.0
  H  H203  1  0.083600  0.876700  0.163200  1.0
  H  H204  1  0.583600  0.123300  0.336800  1.0
  H  H205  1  0.081600  0.126300  0.850800  1.0
  H  H206  1  0.581600  0.873700  0.649200  1.0
  H  H207  1  0.918400  0.873700  0.149200  1.0
  H  H208  1  0.418400  0.126300  0.350800  1.0
  H  H209  1  0.058100  0.341700  0.893500  1.0
  H  H210  1  0.558100  0.658300  0.606500  1.0
  H  H211  1  0.941900  0.658300  0.106500  1.0
  H  H212  1  0.441900  0.341700  0.393500  1.0
  H  H213  1  0.896400  0.321700  0.888400  1.0
  H  H214  1  0.396400  0.678300  0.611600  1.0
  H  H215  1  0.103600  0.678300  0.111600  1.0
  H  H216  1  0.603600  0.321700  0.388400  1.0
  Pd  Pd217  1  0.663800  0.499500  0.244500  1.0
  Pd  Pd218  1  0.163800  0.500500  0.255500  1.0
  Pd  Pd219  1  0.336200  0.500500  0.755500  1.0
  Pd  Pd220  1  0.836200  0.499500  0.744500  1.0
  Pd  Pd221  1  0.234200  0.206500  0.101510  1.0
  Pd  Pd222  1  0.734200  0.793500  0.398490  1.0
  Pd  Pd223  1  0.765800  0.793500  0.898490  1.0
  Pd  Pd224  1  0.265800  0.206500  0.601510  1.0
  Pd  Pd225  1  0.763300  0.208100  0.869500  1.0
  Pd  Pd226  1  0.263300  0.791900  0.630500  1.0
  Pd  Pd227  1  0.236700  0.791900  0.130500  1.0
  Pd  Pd228  1  0.736700  0.208100  0.369500  1.0
  C  C229  1  0.589000  0.474000  0.341000  1.0
  C  C230  1  0.089000  0.526000  0.159000  1.0
  C  C231  1  0.411000  0.526000  0.659000  1.0
  C  C232  1  0.911000  0.474000  0.841000  1.0
  C  C233  1  0.524000  0.511000  0.319000  1.0
  C  C234  1  0.024000  0.489000  0.181000  1.0
  C  C235  1  0.476000  0.489000  0.681000  1.0
  C  C236  1  0.976000  0.511000  0.819000  1.0
  C  C237  1  0.678000  0.398000  0.156000  1.0
  C  C238  1  0.178000  0.602000  0.344000  1.0
  C  C239  1  0.322000  0.602000  0.844000  1.0
  C  C240  1  0.822000  0.398000  0.656000  1.0
  C  C241  1  0.696000  0.345000  0.126000  1.0
  C  C242  1  0.196000  0.655000  0.374000  1.0
  C  C243  1  0.304000  0.655000  0.874000  1.0
  C  C244  1  0.804000  0.345000  0.626000  1.0
  C  C245  1  0.775000  0.308000  0.137000  1.0
  C  C246  1  0.275000  0.692000  0.363000  1.0
  C  C247  1  0.225000  0.692000  0.863000  1.0
  C  C248  1  0.725000  0.308000  0.637000  1.0
  C  C249  1  0.820000  0.329000  0.181000  1.0
  C  C250  1  0.320000  0.671000  0.319000  1.0
  C  C251  1  0.180000  0.671000  0.819000  1.0
  C  C252  1  0.680000  0.329000  0.681000  1.0
  C  C253  1  0.793000  0.385000  0.211000  1.0
  C  C254  1  0.293000  0.615000  0.289000  1.0
  C  C255  1  0.207000  0.615000  0.789000  1.0
  C  C256  1  0.707000  0.385000  0.711000  1.0
  C  C257  1  0.797000  0.237000  0.105000  1.0
  C  C258  1  0.297000  0.763000  0.395000  1.0
  C  C259  1  0.203000  0.763000  0.895000  1.0
  C  C260  1  0.703000  0.237000  0.605000  1.0
  C  C261  1  0.676000  0.172000  0.131000  1.0
  C  C262  1  0.176000  0.828000  0.369000  1.0
  C  C263  1  0.324000  0.828000  0.869000  1.0
  C  C264  1  0.824000  0.172000  0.631000  1.0
  C  C265  1  0.653000  0.109000  0.162000  1.0
  C  C266  1  0.153000  0.891000  0.338000  1.0
  C  C267  1  0.347000  0.891000  0.838000  1.0
  C  C268  1  0.847000  0.109000  0.662000  1.0
  C  C269  1  0.787000  0.610000  0.221000  1.0
  C  C270  1  0.287000  0.390000  0.279000  1.0
  C  C271  1  0.213000  0.390000  0.779000  1.0
  C  C272  1  0.713000  0.610000  0.721000  1.0
  C  C273  1  0.818000  0.669000  0.196000  1.0
  C  C274  1  0.318000  0.331000  0.304000  1.0
  C  C275  1  0.182000  0.331000  0.804000  1.0
  C  C276  1  0.682000  0.669000  0.696000  1.0
  C  C277  1  0.776000  0.693000  0.155000  1.0
  C  C278  1  0.276000  0.307000  0.345000  1.0
  C  C279  1  0.224000  0.307000  0.845000  1.0
  C  C280  1  0.724000  0.693000  0.655000  1.0
  C  C281  1  0.702000  0.651000  0.137000  1.0
  C  C282  1  0.202000  0.349000  0.363000  1.0
  C  C283  1  0.298000  0.349000  0.863000  1.0
  C  C284  1  0.798000  0.651000  0.637000  1.0
  C  C285  1  0.670000  0.598000  0.164000  1.0
  C  C286  1  0.170000  0.402000  0.336000  1.0
  C  C287  1  0.330000  0.402000  0.836000  1.0
  C  C288  1  0.830000  0.598000  0.664000  1.0
  C  C289  1  0.400000  0.158000  0.150000  1.0
  C  C290  1  0.900000  0.842000  0.350000  1.0
  C  C291  1  0.600000  0.842000  0.850000  1.0
  C  C292  1  0.100000  0.158000  0.650000  1.0
  C  C293  1  0.337000  0.185000  0.193000  1.0
  C  C294  1  0.837000  0.815000  0.307000  1.0
  C  C295  1  0.663000  0.815000  0.807000  1.0
  C  C296  1  0.163000  0.185000  0.693000  1.0
  C  C297  1  0.236000  0.172000  0.991000  1.0
  C  C298  1  0.736000  0.828000  0.509000  1.0
  C  C299  1  0.764000  0.828000  0.009000  1.0
  C  C300  1  0.264000  0.172000  0.491000  1.0
  C  C301  1  0.229000  0.176000  0.940800  1.0
  C  C302  1  0.729000  0.824000  0.559200  1.0
  C  C303  1  0.771000  0.824000  0.059200  1.0
  C  C304  1  0.271000  0.176000  0.440800  1.0
  C  C305  1  0.216000  0.244000  0.924000  1.0
  C  C306  1  0.716000  0.756000  0.576000  1.0
  C  C307  1  0.784000  0.756000  0.076000  1.0
  C  C308  1  0.284000  0.244000  0.424000  1.0
  C  C309  1  0.211000  0.300000  0.958000  1.0
  C  C310  1  0.711000  0.700000  0.542000  1.0
  C  C311  1  0.789000  0.700000  0.042000  1.0
  C  C312  1  0.289000  0.300000  0.458000  1.0
  C  C313  1  0.214000  0.286000  0.007000  1.0
  C  C314  1  0.714000  0.714000  0.493000  1.0
  C  C315  1  0.786000  0.714000  0.993000  1.0
  C  C316  1  0.286000  0.286000  0.507000  1.0
  C  C317  1  0.674000  0.825000  0.165000  1.0
  C  C318  1  0.174000  0.175000  0.335000  1.0
  C  C319  1  0.326000  0.175000  0.835000  1.0
  C  C320  1  0.826000  0.825000  0.665000  1.0
  C  C321  1  0.660000  0.894000  0.193000  1.0
  C  C322  1  0.160000  0.106000  0.307000  1.0
  C  C323  1  0.340000  0.106000  0.807000  1.0
  C  C324  1  0.840000  0.894000  0.693000  1.0
  C  C325  1  0.058000  0.283000  0.100000  1.0
  C  C326  1  0.558000  0.717000  0.400000  1.0
  C  C327  1  0.942000  0.717000  0.900000  1.0
  C  C328  1  0.442000  0.283000  0.600000  1.0
  C  C329  1  0.971000  0.286000  0.101000  1.0
  C  C330  1  0.471000  0.714000  0.399000  1.0
  C  C331  1  0.029000  0.714000  0.899000  1.0
  C  C332  1  0.529000  0.286000  0.601000  1.0
  C  C333  1  0.902000  0.229000  0.111100  1.0
  C  C334  1  0.402000  0.771000  0.388900  1.0
  C  C335  1  0.098000  0.771000  0.888900  1.0
  C  C336  1  0.598000  0.229000  0.611100  1.0
  C  C337  1  0.941000  0.166000  0.115800  1.0
  C  C338  1  0.441000  0.834000  0.384200  1.0
  C  C339  1  0.059000  0.834000  0.884200  1.0
  C  C340  1  0.559000  0.166000  0.615800  1.0
  C  C341  1  0.038000  0.158000  0.112000  1.0
  C  C342  1  0.538000  0.842000  0.388000  1.0
  C  C343  1  0.962000  0.842000  0.888000  1.0
  C  C344  1  0.462000  0.158000  0.612000  1.0
  C  C345  1  0.659000  0.195000  0.776900  1.0
  C  C346  1  0.159000  0.805000  0.723100  1.0
  C  C347  1  0.341000  0.805000  0.223100  1.0
  C  C348  1  0.841000  0.195000  0.276900  1.0
  C  C349  1  0.602000  0.162000  0.815000  1.0
  C  C350  1  0.102000  0.838000  0.685000  1.0
  C  C351  1  0.398000  0.838000  0.185000  1.0
  C  C352  1  0.898000  0.162000  0.315000  1.0
  C  C353  1  0.752000  0.171000  0.974500  1.0
  C  C354  1  0.252000  0.829000  0.525500  1.0
  C  C355  1  0.248000  0.829000  0.025500  1.0
  C  C356  1  0.748000  0.171000  0.474500  1.0
  C  C357  1  0.760000  0.173000  0.025000  1.0
  C  C358  1  0.260000  0.827000  0.475000  1.0
  C  C359  1  0.240000  0.827000  0.975000  1.0
  C  C360  1  0.740000  0.173000  0.525000  1.0
  C  C361  1  0.775000  0.234000  0.050700  1.0
  C  C362  1  0.275000  0.766000  0.449300  1.0
  C  C363  1  0.225000  0.766000  0.949300  1.0
  C  C364  1  0.725000  0.234000  0.550700  1.0
  C  C365  1  0.786000  0.298000  0.021000  1.0
  C  C366  1  0.286000  0.702000  0.479000  1.0
  C  C367  1  0.214000  0.702000  0.979000  1.0
  C  C368  1  0.714000  0.298000  0.521000  1.0
  C  C369  1  0.774000  0.283000  0.970000  1.0
  C  C370  1  0.274000  0.717000  0.530000  1.0
  C  C371  1  0.226000  0.717000  0.030000  1.0
  C  C372  1  0.726000  0.283000  0.470000  1.0
  C  C373  1  0.952000  0.168000  0.851000  1.0
  C  C374  1  0.452000  0.832000  0.649000  1.0
  C  C375  1  0.048000  0.832000  0.149000  1.0
  C  C376  1  0.548000  0.168000  0.351000  1.0
  C  C377  1  0.058000  0.175000  0.854000  1.0
  C  C378  1  0.558000  0.825000  0.646000  1.0
  C  C379  1  0.942000  0.825000  0.146000  1.0
  C  C380  1  0.442000  0.175000  0.354000  1.0
  C  C381  1  0.094000  0.240000  0.865100  1.0
  C  C382  1  0.594000  0.760000  0.634900  1.0
  C  C383  1  0.906000  0.760000  0.134900  1.0
  C  C384  1  0.406000  0.240000  0.365100  1.0
  C  C385  1  0.035000  0.295000  0.880000  1.0
  C  C386  1  0.535000  0.705000  0.620000  1.0
  C  C387  1  0.965000  0.705000  0.120000  1.0
  C  C388  1  0.465000  0.295000  0.380000  1.0
  C  C389  1  0.941000  0.279000  0.879000  1.0
  C  C390  1  0.441000  0.721000  0.621000  1.0
  C  C391  1  0.059000  0.721000  0.121000  1.0
  C  C392  1  0.559000  0.279000  0.379000  1.0
  C  C393  1  0.807000  0.754000  0.131000  1.0
  C  C394  1  0.307000  0.246000  0.369000  1.0
  C  C395  1  0.193000  0.246000  0.869000  1.0
  C  C396  1  0.693000  0.754000  0.631000  1.0
  N  N397  1  0.440000  0.728000  0.761400  1
  N  N398  1  0.940000  0.272000  0.738600  1
  N  N399  1  0.560000  0.272000  0.238600  1
  N  N400  1  0.060000  0.728000  0.261400  1
  N  N401  1  0.942000  0.728000  0.759500  1
  N  N402  1  0.442000  0.272000  0.740500  1
  N  N403  1  0.058000  0.272000  0.240500  1
  N  N404  1  0.558000  0.728000  0.259500  1
  N  N405  1  0.485000  0.969000  0.079000  1
  N  N406  1  0.985000  0.031000  0.421000  1
  N  N407  1  0.515000  0.031000  0.921000  1
  N  N408  1  0.015000  0.969000  0.579000  1
  N  N409  1  0.770000  0.036000  0.782000  1
  N  N410  1  0.270000  0.964000  0.718000  1
  N  N411  1  0.230000  0.964000  0.218000  1
  N  N412  1  0.730000  0.036000  0.282000  1
  N  N413  1  0.736000  0.617000  0.374100  1
  N  N414  1  0.236000  0.383000  0.125900  1
  N  N415  1  0.264000  0.383000  0.625900  1
  N  N416  1  0.764000  0.617000  0.874100  1
  N  N417  1  0.876000  0.537000  0.081000  1
  N  N418  1  0.376000  0.463000  0.419000  1
  N  N419  1  0.124000  0.463000  0.919000  1
  N  N420  1  0.624000  0.537000  0.581000  1
  N  N421  1  0.605000  0.436000  0.287700  1.0
  N  N422  1  0.105000  0.564000  0.212300  1.0
  N  N423  1  0.395000  0.564000  0.712300  1.0
  N  N424  1  0.895000  0.436000  0.787700  1.0
  N  N425  1  0.607000  0.570000  0.293700  1.0
  N  N426  1  0.107000  0.430000  0.206300  1.0
  N  N427  1  0.393000  0.430000  0.706300  1.0
  N  N428  1  0.893000  0.570000  0.793700  1.0
  N  N429  1  0.715000  0.419000  0.197000  1.0
  N  N430  1  0.215000  0.581000  0.303000  1.0
  N  N431  1  0.285000  0.581000  0.803000  1.0
  N  N432  1  0.785000  0.419000  0.697000  1.0
  N  N433  1  0.717000  0.576000  0.204100  1.0
  N  N434  1  0.217000  0.424000  0.295900  1.0
  N  N435  1  0.283000  0.424000  0.795900  1.0
  N  N436  1  0.783000  0.576000  0.704100  1.0
  N  N437  1  0.369000  0.193000  0.101800  1.0
  N  N438  1  0.869000  0.807000  0.398200  1.0
  N  N439  1  0.631000  0.807000  0.898200  1.0
  N  N440  1  0.131000  0.193000  0.601800  1.0
  N  N441  1  0.240000  0.190000  0.182000  1.0
  N  N442  1  0.740000  0.810000  0.318000  1.0
  N  N443  1  0.760000  0.810000  0.818000  1.0
  N  N444  1  0.260000  0.190000  0.682000  1.0
  N  N445  1  0.090000  0.216000  0.106300  1.0
  N  N446  1  0.590000  0.784000  0.393700  1.0
  N  N447  1  0.910000  0.784000  0.893700  1.0
  N  N448  1  0.410000  0.216000  0.606300  1.0
  N  N449  1  0.231000  0.228000  0.027000  1.0
  N  N450  1  0.731000  0.772000  0.473000  1.0
  N  N451  1  0.769000  0.772000  0.973000  1.0
  N  N452  1  0.269000  0.228000  0.527000  1.0
  N  N453  1  0.756000  0.188000  0.794500  1.0
  N  N454  1  0.256000  0.812000  0.705500  1.0
  N  N455  1  0.244000  0.812000  0.205500  1.0
  N  N456  1  0.744000  0.188000  0.294500  1.0
  N  N457  1  0.624000  0.199000  0.867100  1.0
  N  N458  1  0.124000  0.801000  0.632900  1.0
  N  N459  1  0.376000  0.801000  0.132900  1.0
  N  N460  1  0.876000  0.199000  0.367100  1.0
  N  N461  1  0.899000  0.225000  0.867300  1.0
  N  N462  1  0.399000  0.775000  0.632700  1.0
  N  N463  1  0.101000  0.775000  0.132700  1.0
  N  N464  1  0.601000  0.225000  0.367300  1.0
  N  N465  1  0.764000  0.222000  0.954000  1.0
  N  N466  1  0.264000  0.778000  0.546000  1.0
  N  N467  1  0.236000  0.778000  0.046000  1.0
  N  N468  1  0.736000  0.222000  0.454000  1.0
  O  O469  1  0.359000  0.716000  0.756600  1
  O  O470  1  0.859000  0.284000  0.743400  1
  O  O471  1  0.641000  0.284000  0.243400  1
  O  O472  1  0.141000  0.716000  0.256600  1
  O  O473  1  0.504000  0.680000  0.772300  1
  O  O474  1  0.004000  0.320000  0.727700  1
  O  O475  1  0.496000  0.320000  0.227700  1
  O  O476  1  0.996000  0.680000  0.272300  1
  O  O477  1  0.466000  0.786000  0.757400  1
  O  O478  1  0.966000  0.214000  0.742600  1
  O  O479  1  0.534000  0.214000  0.242600  1
  O  O480  1  0.034000  0.786000  0.257400  1
  O  O481  1  0.858000  0.715000  0.763000  1
  O  O482  1  0.358000  0.285000  0.737000  1
  O  O483  1  0.142000  0.285000  0.237000  1
  O  O484  1  0.642000  0.715000  0.263000  1
  O  O485  1  0.999000  0.681000  0.747200  1
  O  O486  1  0.499000  0.319000  0.752800  1
  O  O487  1  0.001000  0.319000  0.252800  1
  O  O488  1  0.501000  0.681000  0.247200  1
  O  O489  1  0.969000  0.794000  0.773400  1
  O  O490  1  0.469000  0.206000  0.726600  1
  O  O491  1  0.031000  0.206000  0.226600  1
  O  O492  1  0.531000  0.794000  0.273400  1
  O  O493  1  0.239000  0.613000  0.140000  1
  O  O494  1  0.739000  0.387000  0.360000  1
  O  O495  1  0.761000  0.387000  0.860000  1
  O  O496  1  0.261000  0.613000  0.640000  1
  O  O497  1  0.431000  0.664000  0.146000  1
  O  O498  1  0.931000  0.336000  0.354000  1
  O  O499  1  0.569000  0.336000  0.854000  1
  O  O500  1  0.069000  0.664000  0.646000  1
  O  O501  1  0.567000  0.665000  0.868000  1
  O  O502  1  0.067000  0.335000  0.632000  1
  O  O503  1  0.433000  0.335000  0.132000  1
  O  O504  1  0.933000  0.665000  0.368000  1
  O  O505  1  0.562000  0.897000  0.976000  1
  O  O506  1  0.062000  0.103000  0.524000  1
  O  O507  1  0.438000  0.103000  0.024000  1
  O  O508  1  0.938000  0.897000  0.476000  1
  O  O509  1  0.725000  0.499000  0.438000  1
  O  O510  1  0.225000  0.501000  0.062000  1
  O  O511  1  0.275000  0.501000  0.562000  1
  O  O512  1  0.775000  0.499000  0.938000  1
  O  O513  1  0.581000  0.501000  0.820000  1
  O  O514  1  0.081000  0.499000  0.680000  1
  O  O515  1  0.419000  0.499000  0.180000  1
  O  O516  1  0.919000  0.501000  0.320000  1
  O  O517  1  0.349000  0.007000  0.405000  1
  O  O518  1  0.849000  0.993000  0.095000  1
  O  O519  1  0.651000  0.993000  0.595000  1
  O  O520  1  0.151000  0.007000  0.905000  1
  O  O521  1  0.709000  0.011000  0.038000  1
  O  O522  1  0.209000  0.989000  0.462000  1
  O  O523  1  0.291000  0.989000  0.962000  1
  O  O524  1  0.791000  0.011000  0.538000  1
  O  O525  1  0.365000  0.003000  0.306000  1
  O  O526  1  0.865000  0.997000  0.194000  1
  O  O527  1  0.635000  0.997000  0.694000  1
  O  O528  1  0.135000  0.003000  0.806000  1
  O  O529  1  0.477000  0.030000  0.241000  1
  O  O530  1  0.977000  0.970000  0.259000  1
  O  O531  1  0.523000  0.970000  0.759000  1
  O  O532  1  0.023000  0.030000  0.741000  1
  O  O533  1  0.406000  0.968000  0.101000  1
  O  O534  1  0.906000  0.032000  0.399000  1
  O  O535  1  0.594000  0.032000  0.899000  1
  O  O536  1  0.094000  0.968000  0.601000  1
  O  O537  1  0.474000  0.896000  0.068000  1
  O  O538  1  0.974000  0.104000  0.432000  1
  O  O539  1  0.526000  0.104000  0.932000  1
  O  O540  1  0.026000  0.896000  0.568000  1
  O  O541  1  0.531000  0.990000  0.079000  1
  O  O542  1  0.031000  0.010000  0.421000  1
  O  O543  1  0.469000  0.010000  0.921000  1
  O  O544  1  0.969000  0.990000  0.579000  1
  O  O545  1  0.745000  0.961000  0.803000  1
  O  O546  1  0.245000  0.039000  0.697000  1
  O  O547  1  0.255000  0.039000  0.197000  1
  O  O548  1  0.755000  0.961000  0.303000  1
  O  O549  1  0.788000  0.038000  0.834000  1
  O  O550  1  0.288000  0.962000  0.666000  1
  O  O551  1  0.212000  0.962000  0.166000  1
  O  O552  1  0.712000  0.038000  0.334000  1
  O  O553  1  0.751000  0.039000  0.751000  1
  O  O554  1  0.251000  0.961000  0.749000  1
  O  O555  1  0.249000  0.961000  0.249000  1
  O  O556  1  0.749000  0.039000  0.251000  1
  O  O557  1  0.872000  0.461000  0.079000  1
  O  O558  1  0.372000  0.539000  0.421000  1
  O  O559  1  0.128000  0.539000  0.921000  1
  O  O560  1  0.628000  0.461000  0.579000  1
  O  O561  1  0.203000  0.022000  0.065000  1
  O  O562  1  0.703000  0.978000  0.435000  1
  O  O563  1  0.797000  0.978000  0.935000  1
  O  O564  1  0.297000  0.022000  0.565000  1
  O  O565  1  0.620000  0.204000  0.108000  1.0
  O  O566  1  0.120000  0.796000  0.392000  1.0
  O  O567  1  0.380000  0.796000  0.892000  1.0
  O  O568  1  0.880000  0.204000  0.608000  1.0
  O  O569  1  0.766000  0.182200  0.129900  1.0
  O  O570  1  0.266000  0.817800  0.370100  1.0
  O  O571  1  0.234000  0.817800  0.870100  1.0
  O  O572  1  0.734000  0.182200  0.629900  1.0
  O  O573  1  0.622000  0.791000  0.140300  1.0
  O  O574  1  0.122000  0.209000  0.359700  1.0
  O  O575  1  0.378000  0.209000  0.859700  1.0
  O  O576  1  0.878000  0.791000  0.640300  1.0
  O  O577  1  0.768000  0.815000  0.163300  1.0
  O  O578  1  0.268000  0.185000  0.336700  1.0
  O  O579  1  0.232000  0.185000  0.836700  1.0
  O  O580  1  0.732000  0.815000  0.663300  1.0
