# generated using pymatgen
data_Pd3C42(N6O5)4
_symmetry_space_group_name_H-M   'P 1'
_cell_length_a   19.17000000
_cell_length_b   20.17000000
_cell_length_c   22.73000000
_cell_angle_alpha   113.47000000
_cell_angle_beta   95.68000000
_cell_angle_gamma   98.70000000
_symmetry_Int_Tables_number   1
_chemical_formula_structural   Pd3C42(N6O5)4
_chemical_formula_sum   'Pd12 C168 N96 O80'
_cell_volume   7845.07625141
_cell_formula_units_Z   4
loop_
 _symmetry_equiv_pos_site_id
 _symmetry_equiv_pos_as_xyz
  1  'x, y, z'
loop_
 _atom_site_type_symbol
 _atom_site_label
 _atom_site_symmetry_multiplicity
 _atom_site_fract_x
 _atom_site_fract_y
 _atom_site_fract_z
 _atom_site_occupancy
  Pd  Pd1  1  0.059930  0.670990  0.936660  1
  Pd  Pd2  1  0.940070  0.329010  0.063340  1
  Pd  Pd3  1  0.734800  0.673040  0.060700  1
  Pd  Pd4  1  0.265200  0.326960  0.939300  1
  Pd  Pd5  1  0.532820  0.425880  0.765090  1
  Pd  Pd6  1  0.467180  0.574120  0.234910  1
  Pd  Pd7  1  0.763910  0.800540  0.544420  1
  Pd  Pd8  1  0.236090  0.199460  0.455580  1
  Pd  Pd9  1  0.175410  0.563320  0.438300  1
  Pd  Pd10  1  0.824590  0.436680  0.561700  1
  Pd  Pd11  1  0.117070  0.896780  0.481520  1
  Pd  Pd12  1  0.882930  0.103220  0.518480  1
  C  C13  1  0.162000  0.796000  0.044000  1
  C  C14  1  0.838000  0.204000  0.956000  1
  C  C15  1  0.232000  0.838000  0.085000  1
  C  C16  1  0.768000  0.162000  0.915000  1
  C  C17  1  0.294000  0.808000  0.072000  1
  C  C18  1  0.706000  0.192000  0.928000  1
  C  C19  1  0.284000  0.741000  0.013000  1
  C  C20  1  0.716000  0.259000  0.987000  1
  C  C21  1  0.219000  0.704900  0.973600  1
  C  C22  1  0.781000  0.295100  0.026400  1
  C  C23  1  0.348000  0.704000  0.997000  1
  C  C24  1  0.652000  0.296000  0.003000  1
  C  C25  1  0.463000  0.704400  0.024100  1
  C  C26  1  0.537000  0.295600  0.975900  1
  C  C27  1  0.534000  0.737800  0.069800  1
  C  C28  1  0.466000  0.262200  0.930200  1
  C  C29  1  0.540000  0.798100  0.125600  1
  C  C30  1  0.460000  0.201900  0.874400  1
  C  C31  1  0.613000  0.827000  0.164000  1
  C  C32  1  0.387000  0.173000  0.836000  1
  C  C33  1  0.670000  0.791000  0.148000  1
  C  C34  1  0.330000  0.209000  0.852000  1
  C  C35  1  0.589000  0.701800  0.051400  1
  C  C36  1  0.411000  0.298200  0.948600  1
  C  C37  1  0.395000  0.621900  0.926800  1
  C  C38  1  0.605000  0.378100  0.073200  1
  C  C39  1  0.389000  0.560800  0.861900  1
  C  C40  1  0.611000  0.439200  0.138100  1
  C  C41  1  0.329000  0.538000  0.818900  1
  C  C42  1  0.671000  0.462000  0.181100  1
  C  C43  1  0.324000  0.478000  0.757000  1
  C  C44  1  0.676000  0.522000  0.243000  1
  C  C45  1  0.386000  0.445900  0.742000  1
  C  C46  1  0.614000  0.554100  0.258000  1
  C  C47  1  0.449000  0.525900  0.844800  1
  C  C48  1  0.551000  0.474100  0.155200  1
  C  C49  1  0.739000  0.537000  0.069000  1
  C  C50  1  0.261000  0.463000  0.931000  1
  C  C51  1  0.813000  0.556000  0.059000  1
  C  C52  1  0.187000  0.444000  0.941000  1
  C  C53  1  0.560000  0.306000  0.795000  1
  C  C54  1  0.440000  0.694000  0.205000  1
  C  C55  1  0.625000  0.328000  0.776000  1
  C  C56  1  0.375000  0.672000  0.224000  1
  C  C57  1  0.525000  0.474700  0.656000  1
  C  C58  1  0.475000  0.525300  0.344000  1
  C  C59  1  0.540000  0.525200  0.624900  1
  C  C60  1  0.460000  0.474800  0.375100  1
  C  C61  1  0.596000  0.590000  0.659000  1
  C  C62  1  0.404000  0.410000  0.341000  1
  C  C63  1  0.626900  0.604800  0.724400  1
  C  C64  1  0.373100  0.395200  0.275600  1
  C  C65  1  0.610700  0.558100  0.756300  1
  C  C66  1  0.389300  0.441900  0.243700  1
  C  C67  1  0.683300  0.671600  0.764100  1
  C  C68  1  0.316700  0.328400  0.235900  1
  C  C69  1  0.757200  0.752100  0.859800  1
  C  C70  1  0.242800  0.247900  0.140200  1
  C  C71  1  0.781000  0.771900  0.928800  1
  C  C72  1  0.219000  0.228100  0.071200  1
  C  C73  1  0.830000  0.841000  0.969400  1
  C  C74  1  0.170000  0.159000  0.030600  1
  C  C75  1  0.855000  0.855000  0.035000  1
  C  C76  1  0.145000  0.145000  0.965000  1
  C  C77  1  0.824000  0.809000  0.062200  1
  C  C78  1  0.176000  0.191000  0.937800  1
  C  C79  1  0.753300  0.725900  0.960200  1
  C  C80  1  0.246700  0.274100  0.039800  1
  C  C81  1  0.762400  0.772900  0.771000  1
  C  C82  1  0.237600  0.227100  0.229000  1
  C  C83  1  0.791500  0.817100  0.737700  1
  C  C84  1  0.208500  0.182900  0.262300  1
  C  C85  1  0.773100  0.796100  0.672400  1
  C  C86  1  0.226900  0.203900  0.327600  1
  C  C87  1  0.855800  0.895500  0.672000  1
  C  C88  1  0.144200  0.104500  0.328000  1
  C  C89  1  0.879000  0.920300  0.742100  1
  C  C90  1  0.121000  0.079700  0.257900  1
  C  C91  1  0.854000  0.877900  0.774500  1
  C  C92  1  0.146000  0.122100  0.225500  1
  C  C93  1  0.806000  0.672000  0.448000  1
  C  C94  1  0.194000  0.328000  0.552000  1
  C  C95  1  0.768000  0.703000  0.410000  1
  C  C96  1  0.232000  0.297000  0.590000  1
  C  C97  1  0.631400  0.855600  0.553300  1
  C  C98  1  0.368600  0.144400  0.446700  1
  C  C99  1  0.585200  0.904800  0.563300  1
  C  C100  1  0.414800  0.095200  0.436700  1
  C  C101  1  0.615000  0.981600  0.590000  1
  C  C102  1  0.385000  0.018400  0.410000  1
  C  C103  1  0.689000  0.003700  0.602900  1
  C  C104  1  0.311000  0.996300  0.397100  1
  C  C105  1  0.733000  0.951400  0.591100  1
  C  C106  1  0.267000  0.048600  0.408900  1
  C  C107  1  0.508800  0.876700  0.548700  1
  C  C108  1  0.491200  0.123300  0.451300  1
  C  C109  1  0.415100  0.777800  0.518300  1
  C  C110  1  0.584900  0.222200  0.481700  1
  C  C111  1  0.387400  0.701100  0.505500  1
  C  C112  1  0.612600  0.298900  0.494500  1
  C  C113  1  0.431500  0.660100  0.514200  1
  C  C114  1  0.568500  0.339900  0.485800  1
  C  C115  1  0.399300  0.580400  0.502300  1
  C  C116  1  0.600700  0.419600  0.497700  1
  C  C117  1  0.326000  0.560400  0.483700  1
  C  C118  1  0.674000  0.439600  0.516300  1
  C  C119  1  0.312900  0.674300  0.484700  1
  C  C120  1  0.687100  0.325700  0.515300  1
  C  C121  1  0.396300  0.892500  0.536700  1
  C  C122  1  0.603700  0.107500  0.463300  1
  C  C123  1  0.342400  0.940500  0.537800  1
  C  C124  1  0.657600  0.059500  0.462200  1
  C  C125  1  0.271500  0.909800  0.515200  1
  C  C126  1  0.728500  0.090200  0.484800  1
  C  C127  1  0.241000  0.028400  0.550300  1
  C  C128  1  0.759000  0.971600  0.449700  1
  C  C129  1  0.313000  0.062500  0.572000  1
  C  C130  1  0.687000  0.937500  0.428000  1
  C  C131  1  0.366700  0.019500  0.564700  1
  C  C132  1  0.633300  0.980500  0.435300  1
  C  C133  1  0.057300  0.499700  0.324400  1
  C  C134  1  0.942700  0.500300  0.675600  1
  C  C135  1  0.113000  0.557800  0.317900  1
  C  C136  1  0.887000  0.442200  0.682100  1
  C  C137  1  0.007000  0.826000  0.369000  1
  C  C138  1  0.993000  0.174000  0.631000  1
  C  C139  1  0.071000  0.797500  0.342000  1
  C  C140  1  0.929000  0.202500  0.658000  1
  C  C141  1  0.076000  0.984500  0.608200  1
  C  C142  1  0.924000  0.015500  0.391800  1
  C  C143  1  0.060000  1.000000  0.668000  1
  C  C144  1  0.940000  1.000000  0.332000  1
  C  C145  1  0.061000  0.948500  0.695000  1
  C  C146  1  0.939000  0.051500  0.305000  1
  C  C147  1  0.075300  0.883400  0.654900  1
  C  C148  1  0.924700  0.116600  0.345100  1
  C  C149  1  0.092400  0.868800  0.596100  1
  C  C150  1  0.907600  0.131200  0.403900  1
  C  C151  1  0.075000  0.823600  0.683000  1
  C  C152  1  0.925000  0.176400  0.317000  1
  C  C153  1  0.101000  0.711800  0.668000  1
  C  C154  1  0.899000  0.288200  0.332000  1
  C  C155  1  0.122800  0.645200  0.629100  1
  C  C156  1  0.877200  0.354800  0.370900  1
  C  C157  1  0.137800  0.634500  0.567500  1
  C  C158  1  0.862200  0.365500  0.432500  1
  C  C159  1  0.167700  0.519300  0.549300  1
  C  C160  1  0.832300  0.480700  0.450700  1
  C  C161  1  0.150000  0.526500  0.613000  1
  C  C162  1  0.850000  0.473500  0.387000  1
  C  C163  1  0.127000  0.589700  0.650900  1
  C  C164  1  0.873000  0.410300  0.349100  1
  C  C165  1  0.063000  0.784100  0.756800  1
  C  C166  1  0.937000  0.215900  0.243200  1
  C  C167  1  0.042500  0.794300  0.823900  1
  C  C168  1  0.957500  0.205700  0.176100  1
  C  C169  1  0.053000  0.738000  0.849100  1
  C  C170  1  0.947000  0.262000  0.150900  1
  C  C171  1  0.015000  0.813000  0.950000  1
  C  C172  1  0.985000  0.187000  0.050000  1
  C  C173  1  0.004000  0.868000  0.924000  1
  C  C174  1  0.996000  0.132000  0.076000  1
  C  C175  1  0.021000  0.859700  0.863500  1
  C  C176  1  0.979000  0.140300  0.136500  1
  C  C177  1  0.962000  0.525000  0.866000  1
  C  C178  1  0.038000  0.475000  0.134000  1
  C  C179  1  0.002000  0.531000  0.934000  1
  C  C180  1  0.998000  0.469000  0.066000  1
  N  N181  1  0.157800  0.730000  0.989600  1
  N  N182  1  0.842200  0.270000  0.010400  1
  N  N183  1  0.338900  0.649300  0.940000  1
  N  N184  1  0.661100  0.350700  0.060000  1
  N  N185  1  0.458600  0.646100  0.967600  1
  N  N186  1  0.541400  0.353900  0.032400  1
  N  N187  1  0.409000  0.736300  0.039700  1
  N  N188  1  0.591000  0.263700  0.960300  1
  N  N189  1  0.447700  0.471300  0.788200  1
  N  N190  1  0.552300  0.528700  0.211800  1
  N  N191  1  0.657400  0.730400  0.091200  1
  N  N192  1  0.342600  0.269600  0.908800  1
  N  N193  1  0.803300  0.606800  0.023500  1
  N  N194  1  0.196700  0.393200  0.976500  1
  N  N195  1  0.700000  0.596000  0.093000  1
  N  N196  1  0.300000  0.404000  0.907000  1
  N  N197  1  0.619500  0.377700  0.744400  1
  N  N198  1  0.380500  0.622300  0.255600  1
  N  N199  1  0.512400  0.359400  0.812500  1
  N  N200  1  0.487600  0.640600  0.187500  1
  N  N201  1  0.773600  0.742700  0.023500  1
  N  N202  1  0.226400  0.257300  0.976500  1
  N  N203  1  0.706000  0.686900  0.827000  1
  N  N204  1  0.294000  0.313100  0.173000  1
  N  N205  1  0.708900  0.711100  0.731700  1
  N  N206  1  0.291100  0.288900  0.268300  1
  N  N207  1  0.785900  0.793000  0.835300  1
  N  N208  1  0.214100  0.207000  0.164700  1
  N  N209  1  0.559400  0.492300  0.720400  1
  N  N210  1  0.440600  0.507700  0.279600  1
  N  N211  1  0.800300  0.834200  0.639900  1
  N  N212  1  0.199700  0.165800  0.360100  1
  N  N213  1  0.727200  0.756300  0.445700  1
  N  N214  1  0.272800  0.243700  0.554300  1
  N  N215  1  0.825000  0.720800  0.519100  1
  N  N216  1  0.175000  0.279200  0.480900  1
  N  N217  1  0.700800  0.875900  0.563900  1
  N  N218  1  0.299200  0.124100  0.436100  1
  N  N219  1  0.485000  0.804600  0.535900  1
  N  N220  1  0.515000  0.195400  0.464100  1
  N  N221  1  0.464800  0.925000  0.551400  1
  N  N222  1  0.535200  0.075000  0.448600  1
  N  N223  1  0.367000  0.822900  0.517200  1
  N  N224  1  0.633000  0.177100  0.482800  1
  N  N225  1  0.281900  0.602400  0.471700  1
  N  N226  1  0.718100  0.397600  0.528300  1
  N  N227  1  0.220300  0.950100  0.518600  1
  N  N228  1  0.779700  0.049900  0.481400  1
  N  N229  1  0.017000  0.841000  0.441000  1
  N  N230  1  0.983000  0.159000  0.559000  1
  N  N231  1  0.133500  0.862000  0.388000  1
  N  N232  1  0.866500  0.138000  0.612000  1
  N  N233  1  0.068400  0.521400  0.398200  1
  N  N234  1  0.931600  0.478600  0.601800  1
  N  N235  1  0.184700  0.560000  0.349200  1
  N  N236  1  0.815300  0.440000  0.650800  1
  N  N237  1  0.157600  0.571300  0.527300  1
  N  N238  1  0.842400  0.428700  0.472700  1
  N  N239  1  0.086000  0.720300  0.725000  1
  N  N240  1  0.914000  0.279700  0.275000  1
  N  N241  1  0.056300  0.835400  0.738200  1
  N  N242  1  0.943700  0.164600  0.261800  1
  N  N243  1  0.098300  0.762500  0.642200  1
  N  N244  1  0.901700  0.237500  0.357800  1
  N  N245  1  0.091700  0.923800  0.573100  1
  N  N246  1  0.908300  0.076200  0.426900  1
  N  N247  1  0.042700  0.754200  0.908900  1
  N  N248  1  0.957300  0.245800  0.091100  1
  N  N249  1  0.963600  0.611400  0.886300  1
  N  N250  1  0.036400  0.388600  0.113700  1
  N  N251  1  0.074800  0.582400  0.953200  1
  N  N252  1  0.925200  0.417600  0.046800  1
  N  N253  1  0.006500  0.686900  0.479000  1
  N  N254  1  0.993500  0.313100  0.521000  1
  N  N255  1  0.136000  0.536400  0.798300  1
  N  N256  1  0.864000  0.463600  0.201700  1
  N  N257  1  0.257000  0.743100  0.372300  1
  N  N258  1  0.743000  0.256900  0.627700  1
  N  N259  1  0.237000  0.466000  0.156000  1
  N  N260  1  0.763000  0.534000  0.844000  1
  N  N261  1  0.097000  0.080000  0.471000  1
  N  N262  1  0.903000  0.920000  0.529000  1
  N  N263  1  0.534000  0.734400  0.390600  1
  N  N264  1  0.466000  0.265600  0.609400  1
  N  N265  1  0.651000  0.747200  0.272000  1
  N  N266  1  0.349000  0.252800  0.728000  1
  N  N267  1  0.614400  0.630800  0.513200  1
  N  N268  1  0.385600  0.369200  0.486800  1
  N  N269  1  0.199400  0.380200  0.362900  1
  N  N270  1  0.800600  0.619800  0.637100  1
  N  N271  1  0.960000  0.718000  0.057000  1
  N  N272  1  0.040000  0.282000  0.943000  1
  N  N273  1  0.013000  0.973000  0.076000  1
  N  N274  1  0.987000  0.027000  0.924000  1
  N  N275  1  0.721000  0.168000  0.294000  1
  N  N276  1  0.279000  0.832000  0.706000  1
  O  O277  1  0.979300  0.623400  0.475300  1
  O  O278  1  0.020700  0.376600  0.524700  1
  O  O279  1  0.974200  0.740300  0.502000  1
  O  O280  1  0.025800  0.259700  0.498000  1
  O  O281  1  0.056400  0.695000  0.456600  1
  O  O282  1  0.943600  0.305000  0.543400  1
  O  O283  1  0.101000  0.583000  0.805000  1
  O  O284  1  0.899000  0.417000  0.195000  1
  O  O285  1  0.160600  0.527200  0.846700  1
  O  O286  1  0.839400  0.472800  0.153300  1
  O  O287  1  0.153000  0.503000  0.745300  1
  O  O288  1  0.847000  0.497000  0.254700  1
  O  O289  1  0.203900  0.735000  0.398500  1
  O  O290  1  0.796100  0.265000  0.601500  1
  O  O291  1  0.272800  0.802200  0.364400  1
  O  O292  1  0.727200  0.197800  0.635600  1
  O  O293  1  0.290700  0.693300  0.348900  1
  O  O294  1  0.709300  0.306700  0.651100  1
  O  O295  1  0.233000  0.488000  0.213000  1
  O  O296  1  0.767000  0.512000  0.787000  1
  O  O297  1  0.284000  0.498000  0.140000  1
  O  O298  1  0.716000  0.502000  0.860000  1
  O  O299  1  0.191500  0.412300  0.111400  1
  O  O300  1  0.808500  0.587700  0.888600  1
  O  O301  1  0.102100  0.014300  0.418000  1
  O  O302  1  0.897900  0.985700  0.582000  1
  O  O303  1  0.080000  0.127300  0.458400  1
  O  O304  1  0.920000  0.872700  0.541600  1
  O  O305  1  0.111000  0.099000  0.532000  1
  O  O306  1  0.889000  0.901000  0.468000  1
  O  O307  1  0.472300  0.716700  0.381900  1
  O  O308  1  0.527700  0.283300  0.618100  1
  O  O309  1  0.572600  0.801100  0.415900  1
  O  O310  1  0.427400  0.198900  0.584100  1
  O  O311  1  0.569500  0.685800  0.377000  1
  O  O312  1  0.430500  0.314200  0.623000  1
  O  O313  1  0.597000  0.781400  0.282000  1
  O  O314  1  0.403000  0.218600  0.718000  1
  O  O315  1  0.645000  0.686900  0.223000  1
  O  O316  1  0.355000  0.313100  0.777000  1
  O  O317  1  0.712000  0.767200  0.314000  1
  O  O318  1  0.288000  0.232800  0.686000  1
  O  O319  1  0.571400  0.577700  0.509800  1
  O  O320  1  0.428600  0.422300  0.490200  1
  O  O321  1  0.654000  0.617000  0.476000  1
  O  O322  1  0.346000  0.383000  0.524000  1
  O  O323  1  0.628200  0.694200  0.555100  1
  O  O324  1  0.371800  0.305800  0.444900  1
  O  O325  1  0.233400  0.423400  0.343000  1
  O  O326  1  0.766600  0.576600  0.657000  1
  O  O327  1  0.145900  0.334600  0.326900  1
  O  O328  1  0.854100  0.665400  0.673100  1
  O  O329  1  0.222900  0.387400  0.421800  1
  O  O330  1  0.777100  0.612600  0.578200  1
  O  O331  1  0.926000  0.690000  0.002000  1
  O  O332  1  0.074000  0.310000  0.998000  1
  O  O333  1  0.024000  0.758000  0.094000  1
  O  O334  1  0.976000  0.242000  0.906000  1
  O  O335  1  0.965000  0.644000  0.078000  1
  O  O336  1  0.035000  0.356000  0.922000  1
  O  O337  1  0.041600  0.380500  0.403400  1
  O  O338  1  0.958400  0.619500  0.596600  1
  O  O339  1  0.118900  0.355700  0.211100  1
  O  O340  1  0.881100  0.644300  0.788900  1
  O  O341  1  0.421300  0.851100  0.380000  1
  O  O342  1  0.578700  0.148900  0.620000  1
  O  O343  1  0.153000  0.918200  0.284000  1
  O  O344  1  0.847000  0.081800  0.716000  1
  O  O345  1  0.182000  0.001000  0.057000  1
  O  O346  1  0.818000  0.999000  0.943000  1
  O  O347  1  0.010000  0.964000  0.126000  1
  O  O348  1  0.990000  0.036000  0.874000  1
  O  O349  1  0.086000  0.934000  0.113000  1
  O  O350  1  0.914000  0.066000  0.887000  1
  O  O351  1  0.755000  0.098000  0.255000  1
  O  O352  1  0.245000  0.902000  0.745000  1
  O  O353  1  0.725000  0.243000  0.256000  1
  O  O354  1  0.275000  0.757000  0.744000  1
  O  O355  1  0.715000  0.193000  0.360000  1
  O  O356  1  0.285000  0.807000  0.640000  1
