# generated using pymatgen
data_P5H46Pd2C58N17F24
_symmetry_space_group_name_H-M   'P 1'
_cell_length_a   13.28000000
_cell_length_b   13.90308689
_cell_length_c   20.86900000
_cell_angle_alpha   90.00000000
_cell_angle_beta   90.00000000
_cell_angle_gamma   118.52823507
_symmetry_Int_Tables_number   1
_chemical_formula_structural   P5H46Pd2C58N17F24
_chemical_formula_sum   'P10 H92 Pd4 C116 N34 F48'
_cell_volume   3385.26900880
_cell_formula_units_Z   2
loop_
 _symmetry_equiv_pos_site_id
 _symmetry_equiv_pos_as_xyz
  1  'x, y, z'
loop_
 _atom_site_type_symbol
 _atom_site_label
 _atom_site_symmetry_multiplicity
 _atom_site_fract_x
 _atom_site_fract_y
 _atom_site_fract_z
 _atom_site_occupancy
  C  C1  1  0.632300  1.000000  0.500000  1
  C  C2  1  0.367700  0.000000  0.000000  1
  C  C3  1  0.752300  0.000000  0.500000  1
  C  C4  1  0.247700  0.000000  0.000000  1
  C  C5  1  0.086000  0.988000  0.807000  1.0
  C  C6  1  0.098000  0.012000  0.193000  1.0
  C  C7  1  0.914000  0.012000  0.307000  1.0
  C  C8  1  0.902000  0.988000  0.693000  1.0
  C  C9  1  0.940000  0.312000  0.421000  1.0
  C  C10  1  0.628000  0.688000  0.579000  1.0
  C  C11  1  0.060000  0.688000  0.921000  1.0
  C  C12  1  0.372000  0.312000  0.079000  1.0
  C  C13  1  0.937000  0.320000  0.638000  1.0
  C  C14  1  0.617000  0.680000  0.362000  1.0
  C  C15  1  0.063000  0.680000  0.138000  1.0
  C  C16  1  0.383000  0.320000  0.862000  1.0
  C  C17  1  0.963000  0.912000  0.888000  1.0
  C  C18  1  0.051000  0.088000  0.112000  1.0
  C  C19  1  0.037000  0.088000  0.388000  1.0
  C  C20  1  0.949000  0.912000  0.612000  1.0
  C  C21  1  0.462000  0.388000  0.367000  1.0
  C  C22  1  0.074000  0.612000  0.633000  1.0
  C  C23  1  0.538000  0.612000  0.867000  1.0
  C  C24  1  0.926000  0.388000  0.133000  1.0
  C  C25  1  0.544000  0.394000  0.583000  1.0
  C  C26  1  0.150000  0.606000  0.417000  1.0
  C  C27  1  0.456000  0.606000  0.083000  1.0
  C  C28  1  0.850000  0.394000  0.917000  1.0
  C  C29  1  0.984000  0.006000  0.910000  1.0
  C  C30  1  0.978000  0.994000  0.090000  1.0
  C  C31  1  0.016000  0.994000  0.410000  1.0
  C  C32  1  0.022000  0.006000  0.590000  1.0
  C  C33  1  0.466000  0.402000  0.638000  1.0
  C  C34  1  0.064000  0.598000  0.362000  1.0
  C  C35  1  0.534000  0.598000  0.138000  1.0
  C  C36  1  0.936000  0.402000  0.862000  1.0
  C  C37  1  0.828000  0.302000  0.670000  1.0
  C  C38  1  0.526000  0.698000  0.330000  1.0
  C  C39  1  0.172000  0.698000  0.170000  1.0
  C  C40  1  0.474000  0.302000  0.830000  1.0
  C  C41  1  0.381400  0.300800  0.341000  1.0
  C  C42  1  0.080600  0.699200  0.659000  1.0
  C  C43  1  0.618600  0.699200  0.841000  1.0
  C  C44  1  0.919400  0.300800  0.159000  1.0
  C  C45  1  0.014000  0.898000  0.829000  1.0
  C  C46  1  0.116000  0.102000  0.171000  1.0
  C  C47  1  0.986000  0.102000  0.329000  1.0
  C  C48  1  0.884000  0.898000  0.671000  1.0
  C  C49  1  0.945000  0.314000  0.572100  1.0
  C  C50  1  0.631000  0.686000  0.427900  1.0
  C  C51  1  0.055000  0.686000  0.072100  1.0
  C  C52  1  0.369000  0.314000  0.927900  1.0
  C  C53  1  0.374000  0.196000  0.356000  1.0
  C  C54  1  0.178000  0.804000  0.644000  1.0
  C  C55  1  0.626000  0.804000  0.856000  1.0
  C  C56  1  0.822000  0.196000  0.144000  1.0
  C  C57  1  0.536000  0.384000  0.411000  1.0
  C  C58  1  0.152000  0.616000  0.589000  1.0
  C  C59  1  0.464000  0.616000  0.911000  1.0
  C  C60  1  0.848000  0.384000  0.089000  1.0
  C  C61  1  0.157000  0.988000  0.744000  1.0
  C  C62  1  0.169000  0.012000  0.256000  1.0
  C  C63  1  0.843000  0.012000  0.244000  1.0
  C  C64  1  0.831000  0.988000  0.756000  1.0
  C  C65  1  0.290000  0.104000  0.670000  1.0
  C  C66  1  0.186000  0.896000  0.330000  1.0
  C  C67  1  0.710000  0.896000  0.170000  1.0
  C  C68  1  0.814000  0.104000  0.830000  1.0
  C  C69  1  0.373300  0.194600  0.635000  1.0
  C  C70  1  0.178700  0.805400  0.365000  1.0
  C  C71  1  0.626700  0.805400  0.135000  1.0
  C  C72  1  0.821300  0.194600  0.865000  1.0
  C  C73  1  0.376000  0.282000  0.662000  1.0
  C  C74  1  0.094000  0.718000  0.338000  1.0
  C  C75  1  0.624000  0.718000  0.162000  1.0
  C  C76  1  0.906000  0.282000  0.838000  1.0
  C  C77  1  0.455000  0.194000  0.590000  1.0
  C  C78  1  0.261000  0.806000  0.410000  1.0
  C  C79  1  0.545000  0.806000  0.090000  1.0
  C  C80  1  0.739000  0.194000  0.910000  1.0
  C  C81  1  0.284000  0.084000  0.335000  1.0
  C  C82  1  0.200000  0.916000  0.665000  1.0
  C  C83  1  0.716000  0.916000  0.835000  1.0
  C  C84  1  0.800000  0.084000  0.165000  1.0
  C  C85  1  0.923000  0.298000  0.351000  1.0
  C  C86  1  0.625000  0.702000  0.649000  1.0
  C  C87  1  0.077000  0.702000  0.851000  1.0
  C  C88  1  0.375000  0.298000  0.149000  1.0
  C  C89  1  0.837000  0.298000  0.336000  1.0
  C  C90  1  0.539000  0.702000  0.664000  1.0
  C  C91  1  0.163000  0.702000  0.836000  1.0
  C  C92  1  0.461000  0.298000  0.164000  1.0
  C  C93  1  0.746000  0.286000  0.371000  1.0
  C  C94  1  0.460000  0.714000  0.629000  1.0
  C  C95  1  0.254000  0.714000  0.871000  1.0
  C  C96  1  0.540000  0.286000  0.129000  1.0
  C  C97  1  0.853000  0.304000  0.458000  1.0
  C  C98  1  0.549000  0.696000  0.542000  1.0
  C  C99  1  0.147000  0.696000  0.958000  1.0
  C  C100  1  0.451000  0.304000  0.042000  1.0
  C  C101  1  0.851200  0.300400  0.533000  1.0
  C  C102  1  0.550800  0.699600  0.467000  1.0
  C  C103  1  0.148800  0.699600  0.033000  1.0
  C  C104  1  0.449200  0.300400  0.967000  1.0
  C  C105  1  0.746000  0.294000  0.627000  1.0
  C  C106  1  0.452000  0.706000  0.373000  1.0
  C  C107  1  0.254000  0.706000  0.127000  1.0
  C  C108  1  0.548000  0.294000  0.873000  1.0
  C  C109  1  0.444200  0.196400  0.406000  1.0
  C  C110  1  0.247800  0.803600  0.594000  1.0
  C  C111  1  0.555800  0.803600  0.906000  1.0
  C  C112  1  0.752200  0.196400  0.094000  1.0
  C  C113  1  0.101000  0.100000  0.838000  1.0
  C  C114  1  0.001000  0.900000  0.162000  1.0
  C  C115  1  0.899000  0.900000  0.338000  1.0
  C  C116  1  0.999000  0.100000  0.662000  1.0
  F  F117  1  0.301000  0.602000  0.250000  1
  F  F118  1  0.699000  0.398000  0.750000  1
  F  F119  1  0.173000  0.346000  0.250000  1
  F  F120  1  0.827000  0.654000  0.750000  1
  F  F121  1  0.302000  0.604000  0.750000  1
  F  F122  1  0.698000  0.396000  0.250000  1
  F  F123  1  0.171500  0.343000  0.750000  1
  F  F124  1  0.828500  0.657000  0.250000  1
  F  F125  1  0.222800  0.451600  0.497000  1
  F  F126  1  0.771200  0.548400  0.503000  1
  F  F127  1  0.777200  0.548400  0.997000  1
  F  F128  1  0.228800  0.451600  0.003000  1
  F  F129  1  0.256000  0.368000  0.426000  1
  F  F130  1  0.888000  0.632000  0.574000  1
  F  F131  1  0.744000  0.632000  0.926000  1
  F  F132  1  0.112000  0.368000  0.074000  1
  F  F133  1  0.221000  0.274000  0.502000  1
  F  F134  1  0.947000  0.726000  0.498000  1
  F  F135  1  0.779000  0.726000  0.002000  1
  F  F136  1  0.053000  0.274000  0.998000  1
  F  F137  1  0.229800  0.475600  0.327000  1.0
  F  F138  1  0.754200  0.524400  0.673000  1.0
  F  F139  1  0.770200  0.524400  0.827000  1.0
  F  F140  1  0.245800  0.475600  0.173000  1.0
  F  F141  1  0.357800  0.469600  0.254000  1.0
  F  F142  1  0.888200  0.530400  0.746000  1.0
  F  F143  1  0.642200  0.530400  0.754000  1.0
  F  F144  1  0.111800  0.469600  0.246000  1.0
  F  F145  1  0.123400  0.478800  0.752000  1.0
  F  F146  1  0.644600  0.521200  0.248000  1.0
  F  F147  1  0.876600  0.521200  0.252000  1.0
  F  F148  1  0.355400  0.478800  0.748000  1.0
  F  F149  1  0.235000  0.474000  0.675100  1.0
  F  F150  1  0.761000  0.526000  0.324900  1.0
  F  F151  1  0.765000  0.526000  0.175100  1.0
  F  F152  1  0.239000  0.474000  0.824900  1.0
  F  F153  1  0.422100  0.906200  0.301000  1.0
  F  F154  1  0.515900  0.093800  0.699000  1.0
  F  F155  1  0.577900  0.093800  0.801000  1.0
  F  F156  1  0.484100  0.906200  0.199000  1.0
  F  F157  1  0.530000  0.086000  0.306000  1.0
  F  F158  1  0.444000  0.914000  0.694000  1.0
  F  F159  1  0.470000  0.914000  0.806000  1.0
  F  F160  1  0.556000  0.086000  0.194000  1.0
  F  F161  1  0.380000  0.992000  0.224500  1.0
  F  F162  1  0.388000  0.008000  0.775500  1.0
  F  F163  1  0.620000  0.008000  0.724500  1.0
  F  F164  1  0.612000  0.992000  0.275500  1.0
  H  H165  1  0.767900  0.983600  0.541800  1
  H  H166  1  0.784300  0.016400  0.458200  1
  H  H167  1  0.232100  0.016400  0.041800  1
  H  H168  1  0.215700  0.983600  0.958200  1
  H  H169  1  0.749300  0.946400  0.470700  1
  H  H170  1  0.802900  0.053600  0.529300  1
  H  H171  1  0.250700  0.053600  0.970700  1
  H  H172  1  0.197100  0.946400  0.029300  1
  H  H173  1  0.811200  0.070200  0.487500  1
  H  H174  1  0.741000  0.929800  0.512500  1
  H  H175  1  0.188800  0.929800  0.987500  1
  H  H176  1  0.259000  0.070200  0.012500  1
  H  H177  1  0.009400  0.324200  0.439200  1.0
  H  H178  1  0.685200  0.675800  0.560800  1.0
  H  H179  1  0.990600  0.675800  0.939200  1.0
  H  H180  1  0.314800  0.324200  0.060800  1.0
  H  H181  1  0.003600  0.343200  0.664200  1.0
  H  H182  1  0.660400  0.656800  0.335800  1.0
  H  H183  1  0.996400  0.656800  0.164200  1.0
  H  H184  1  0.339600  0.343200  0.835800  1.0
  H  H185  1  0.917900  0.855400  0.912400  1.0
  H  H186  1  0.062500  0.144600  0.087600  1.0
  H  H187  1  0.082100  0.144600  0.412400  1.0
  H  H188  1  0.937500  0.855400  0.587600  1.0
  H  H189  1  0.472700  0.457400  0.352500  1.0
  H  H190  1  0.015300  0.542600  0.647500  1.0
  H  H191  1  0.527300  0.542600  0.852500  1.0
  H  H192  1  0.984700  0.457400  0.147500  1.0
  H  H193  1  0.603700  0.456000  0.562300  1.0
  H  H194  1  0.147700  0.544000  0.437700  1.0
  H  H195  1  0.396300  0.544000  0.062300  1.0
  H  H196  1  0.852300  0.456000  0.937700  1.0
  H  H197  1  0.943600  0.007200  0.947500  1.0
  H  H198  1  0.936400  0.992800  0.052500  1.0
  H  H199  1  0.056400  0.992800  0.447500  1.0
  H  H200  1  0.063600  0.007200  0.552500  1.0
  H  H201  1  0.474900  0.479200  0.650800  1.0
  H  H202  1  0.995700  0.520800  0.349200  1.0
  H  H203  1  0.525100  0.520800  0.150800  1.0
  H  H204  1  0.004300  0.479200  0.849200  1.0
  H  H205  1  0.811200  0.283400  0.714800  1.0
  H  H206  1  0.527800  0.716600  0.285200  1.0
  H  H207  1  0.188800  0.716600  0.214800  1.0
  H  H208  1  0.472200  0.283400  0.785200  1.0
  H  H209  1  0.329600  0.305600  0.312300  1.0
  H  H210  1  0.024000  0.694400  0.687700  1.0
  H  H211  1  0.670400  0.694400  0.812300  1.0
  H  H212  1  0.976000  0.305600  0.187700  1.0
  H  H213  1  0.996800  0.828000  0.812900  1.0
  H  H214  1  0.168800  0.172000  0.187100  1.0
  H  H215  1  0.003200  0.172000  0.312900  1.0
  H  H216  1  0.831200  0.828000  0.687100  1.0
  H  H217  1  0.011300  0.315400  0.553200  1.0
  H  H218  1  0.695900  0.684600  0.446800  1.0
  H  H219  1  0.988700  0.684600  0.053200  1.0
  H  H220  1  0.304100  0.315400  0.946800  1.0
  H  H221  1  0.592200  0.452000  0.427100  1.0
  H  H222  1  0.140200  0.548000  0.572900  1.0
  H  H223  1  0.407800  0.548000  0.927100  1.0
  H  H224  1  0.859800  0.452000  0.072900  1.0
  H  H225  1  0.323100  0.271400  0.695600  1.0
  H  H226  1  0.051700  0.728600  0.304400  1.0
  H  H227  1  0.676900  0.728600  0.195600  1.0
  H  H228  1  0.948300  0.271400  0.804400  1.0
  H  H229  1  0.453900  0.127000  0.574900  1.0
  H  H230  1  0.326900  0.873000  0.425100  1.0
  H  H231  1  0.546100  0.873000  0.074900  1.0
  H  H232  1  0.673100  0.127000  0.925100  1.0
  H  H233  1  0.975200  0.285000  0.322100  1.0
  H  H234  1  0.690200  0.715000  0.677900  1.0
  H  H235  1  0.024800  0.715000  0.822100  1.0
  H  H236  1  0.309800  0.285000  0.177900  1.0
  H  H237  1  0.831100  0.316400  0.291400  1.0
  H  H238  1  0.514700  0.683600  0.708600  1.0
  H  H239  1  0.168900  0.683600  0.791400  1.0
  H  H240  1  0.485300  0.316400  0.208600  1.0
  H  H241  1  0.675900  0.271800  0.351200  1.0
  H  H242  1  0.404100  0.728200  0.648800  1.0
  H  H243  1  0.324100  0.728200  0.851200  1.0
  H  H244  1  0.595900  0.271800  0.148800  1.0
  H  H245  1  0.678100  0.291600  0.644500  1.0
  H  H246  1  0.386500  0.708400  0.355500  1.0
  H  H247  1  0.321900  0.708400  0.144500  1.0
  H  H248  1  0.613500  0.291600  0.855500  1.0
  H  H249  1  0.428500  0.127200  0.422000  1.0
  H  H250  1  0.301300  0.872800  0.578000  1.0
  H  H251  1  0.571500  0.872800  0.922000  1.0
  H  H252  1  0.698700  0.127200  0.078000  1.0
  H  H253  1  0.146100  0.162800  0.813000  1.0
  H  H254  1  0.983300  0.837200  0.187000  1.0
  H  H255  1  0.853900  0.837200  0.313000  1.0
  H  H256  1  0.016700  0.162800  0.687000  1.0
  N  N257  1  0.505000  1.000000  0.500000  1
  N  N258  1  0.495000  0.000000  0.000000  1
  N  N259  1  0.270000  0.000000  0.636600  1.0
  N  N260  1  0.270000  0.000000  0.363400  1.0
  N  N261  1  0.730000  0.000000  0.136600  1.0
  N  N262  1  0.730000  0.000000  0.863400  1.0
  N  N263  1  0.747000  0.290000  0.439000  1.0
  N  N264  1  0.457000  0.710000  0.561000  1.0
  N  N265  1  0.253000  0.710000  0.939000  1.0
  N  N266  1  0.543000  0.290000  0.061000  1.0
  N  N267  1  0.760000  0.298000  0.568000  1.0
  N  N268  1  0.462000  0.702000  0.432000  1.0
  N  N269  1  0.240000  0.702000  0.068000  1.0
  N  N270  1  0.538000  0.298000  0.932000  1.0
  N  N271  1  0.534100  0.290200  0.436000  1.0
  N  N272  1  0.243900  0.709800  0.564000  1.0
  N  N273  1  0.465900  0.709800  0.936000  1.0
  N  N274  1  0.756100  0.290200  0.064000  1.0
  N  N275  1  0.143000  0.906000  0.722000  1.0
  N  N276  1  0.237000  0.094000  0.278000  1.0
  N  N277  1  0.857000  0.094000  0.222000  1.0
  N  N278  1  0.763000  0.906000  0.778000  1.0
  N  N279  1  0.233000  0.110000  0.718000  1.0
  N  N280  1  0.123000  0.890000  0.282000  1.0
  N  N281  1  0.767000  0.890000  0.218000  1.0
  N  N282  1  0.877000  0.110000  0.782000  1.0
  N  N283  1  0.527000  0.292000  0.570000  1.0
  N  N284  1  0.235000  0.708000  0.430000  1.0
  N  N285  1  0.473000  0.708000  0.070000  1.0
  N  N286  1  0.765000  0.292000  0.930000  1.0
  N  N287  1  0.057000  0.104000  0.884000  1.0
  N  N288  1  0.953000  0.896000  0.116000  1.0
  N  N289  1  0.943000  0.896000  0.384000  1.0
  N  N290  1  0.047000  0.104000  0.616000  1.0
  P  P291  1  0.236000  0.472000  0.250000  1
  P  P292  1  0.764000  0.528000  0.750000  1
  P  P293  1  0.237900  0.475800  0.750000  1
  P  P294  1  0.762100  0.524200  0.250000  1
  P  P295  1  0.502000  0.004000  0.250000  1
  P  P296  1  0.498000  0.996000  0.750000  1
  P  P297  1  0.258100  0.370600  0.504000  1
  P  P298  1  0.887500  0.629400  0.496000  1
  P  P299  1  0.741900  0.629400  0.004000  1
  P  P300  1  0.112500  0.370600  0.996000  1
  Pd  Pd301  1  0.637660  0.289920  0.500300  1.0
  Pd  Pd302  1  0.347740  0.710080  0.499700  1.0
  Pd  Pd303  1  0.362340  0.710080  0.000300  1.0
  Pd  Pd304  1  0.652260  0.289920  0.999700  1.0
