# generated using pymatgen
data_NiH24C24S2N2O5
_symmetry_space_group_name_H-M   'P 1'
_cell_length_a   11.24390000
_cell_length_b   11.55143760
_cell_length_c   11.74880000
_cell_angle_alpha   93.51117119
_cell_angle_beta   113.94100000
_cell_angle_gamma   118.03300522
_symmetry_Int_Tables_number   1
_chemical_formula_structural   NiH24C24S2N2O5
_chemical_formula_sum   'Ni2 H48 C48 S4 N4 O10'
_cell_volume   1169.47373631
_cell_formula_units_Z   2
loop_
 _symmetry_equiv_pos_site_id
 _symmetry_equiv_pos_as_xyz
  1  'x, y, z'
loop_
 _atom_site_type_symbol
 _atom_site_label
 _atom_site_symmetry_multiplicity
 _atom_site_fract_x
 _atom_site_fract_y
 _atom_site_fract_z
 _atom_site_occupancy
  Ni  Ni1  1  0.347450  0.509260  0.704790  1.0
  Ni  Ni2  1  0.652550  0.490740  0.295210  1.0
  H  H3  1  0.155800  0.725900  0.726300  1
  H  H4  1  0.844200  0.274100  0.273700  1
  H  H5  1  0.098700  0.667800  0.574500  1
  H  H6  1  0.901300  0.332200  0.425500  1
  H  H7  1  0.991900  0.584800  0.635100  1
  H  H8  1  0.008100  0.415200  0.364900  1
  H  H9  1  0.107000  0.000100  0.606300  1
  H  H10  1  0.893000  0.999900  0.393700  1
  H  H11  1  0.179000  0.922200  0.570300  1
  H  H12  1  0.821000  0.077800  0.429700  1
  H  H13  1  0.219100  0.970500  0.718800  1
  H  H14  1  0.780900  0.029500  0.281200  1
  H  H15  1  0.414700  0.827600  0.744400  1
  H  H16  1  0.585300  0.172400  0.255600  1
  H  H17  1  0.535000  0.965700  0.731700  1
  H  H18  1  0.465000  0.034300  0.268300  1
  H  H19  1  0.459300  0.974600  0.818900  1
  H  H20  1  0.540700  0.025400  0.181100  1
  H  H21  1  0.711300  0.157800  0.996500  1
  H  H22  1  0.288700  0.842200  0.003500  1
  H  H23  1  0.810400  0.156300  0.930500  1
  H  H24  1  0.189600  0.843700  0.069500  1
  H  H25  1  0.860400  0.150900  0.077500  1
  H  H26  1  0.139600  0.849100  0.922500  1
  H  H27  1  0.094000  0.075300  0.831300  1.0
  H  H28  1  0.906000  0.924700  0.168700  1.0
  H  H29  1  0.829000  0.972100  0.733300  1.0
  H  H30  1  0.171000  0.027900  0.266700  1.0
  H  H31  1  0.717100  0.091400  0.631400  1.0
  H  H32  1  0.282900  0.908600  0.368600  1.0
  H  H33  1  0.342100  0.256700  0.880100  1.0
  H  H34  1  0.657900  0.743300  0.119900  1.0
  H  H35  1  0.580100  0.350000  0.005000  1.0
  H  H36  1  0.419900  0.650000  0.995000  1.0
  H  H37  1  0.843200  0.439600  0.081100  1.0
  H  H38  1  0.156800  0.560400  0.918900  1.0
  H  H39  1  0.977900  0.602100  0.001600  1.0
  H  H40  1  0.022100  0.397900  0.998400  1.0
  H  H41  1  0.853500  0.678500  0.842200  1.0
  H  H42  1  0.146500  0.321500  0.157800  1.0
  H  H43  1  0.696400  0.678300  0.670900  1.0
  H  H44  1  0.303600  0.321700  0.329100  1.0
  H  H45  1  0.284600  0.744700  0.250800  1.0
  H  H46  1  0.715400  0.255300  0.749200  1.0
  H  H47  1  0.531200  0.793700  0.301900  1.0
  H  H48  1  0.468800  0.206300  0.698100  1.0
  H  H49  1  0.672400  0.757600  0.487400  1.0
  H  H50  1  0.327600  0.242400  0.512600  1.0
  C  C51  1  0.065400  0.676800  0.638100  1
  C  C52  1  0.934600  0.323200  0.361900  1
  C  C53  1  0.138500  0.934600  0.626600  1
  C  C54  1  0.861500  0.065400  0.373400  1
  C  C55  1  0.498200  0.925000  0.790600  1
  C  C56  1  0.501800  0.075000  0.209400  1
  C  C57  1  0.772300  0.121300  0.990500  1
  C  C58  1  0.227700  0.878700  0.009500  1
  C  C59  1  0.915800  0.263600  0.667600  1.0
  C  C60  1  0.084200  0.736400  0.332400  1.0
  C  C61  1  0.077000  0.323600  0.710900  1.0
  C  C62  1  0.923000  0.676400  0.289100  1.0
  C  C63  1  0.141500  0.249800  0.774500  1.0
  C  C64  1  0.858500  0.750200  0.225500  1.0
  C  C65  1  0.047700  0.120800  0.785400  1.0
  C  C66  1  0.952300  0.879200  0.214600  1.0
  C  C67  1  0.892200  0.061400  0.730800  1.0
  C  C68  1  0.107800  0.938600  0.269200  1.0
  C  C69  1  0.826000  0.133400  0.670700  1.0
  C  C70  1  0.174000  0.866600  0.329300  1.0
  C  C71  1  0.302600  0.304000  0.829600  1.0
  C  C72  1  0.697400  0.696000  0.170400  1.0
  C  C73  1  0.559800  0.459700  0.875700  1.0
  C  C74  1  0.440200  0.540300  0.124300  1.0
  C  C75  1  0.634600  0.415500  0.971400  1.0
  C  C76  1  0.365400  0.584500  0.028600  1.0
  C  C77  1  0.790600  0.469400  0.016600  1.0
  C  C78  1  0.209400  0.530600  0.983400  1.0
  C  C79  1  0.870900  0.566200  0.968900  1.0
  C  C80  1  0.129100  0.433800  0.031100  1.0
  C  C81  1  0.797800  0.611600  0.874200  1.0
  C  C82  1  0.202200  0.388400  0.125800  1.0
  C  C83  1  0.640400  0.556700  0.827000  1.0
  C  C84  1  0.359600  0.443300  0.173000  1.0
  C  C85  1  0.594200  0.649000  0.651900  1.0
  C  C86  1  0.405800  0.351000  0.348100  1.0
  C  C87  1  0.506500  0.677900  0.544600  1.0
  C  C88  1  0.493500  0.322100  0.455400  1.0
  C  C89  1  0.358700  0.649900  0.517300  1.0
  C  C90  1  0.641300  0.350100  0.482700  1.0
  C  C91  1  0.283000  0.685800  0.408800  1.0
  C  C92  1  0.717000  0.314200  0.591200  1.0
  C  C93  1  0.343200  0.731500  0.327800  1.0
  C  C94  1  0.656800  0.268500  0.672200  1.0
  C  C95  1  0.489300  0.758900  0.357000  1.0
  C  C96  1  0.510700  0.241100  0.643000  1.0
  C  C97  1  0.571400  0.735400  0.465200  1.0
  C  C98  1  0.428600  0.264600  0.534800  1.0
  S  S99  1  0.974110  0.771490  0.598280  1
  S  S100  1  0.025890  0.228510  0.401720  1
  S  S101  1  0.653900  0.937830  0.930320  1
  S  S102  1  0.346100  0.062170  0.069680  1
  N  N103  1  0.400100  0.413600  0.815900  1.0
  N  N104  1  0.599900  0.586400  0.184100  1.0
  N  N105  1  0.544700  0.585300  0.726000  1.0
  N  N106  1  0.455300  0.414700  0.274000  1.0
  O  O107  1  0.942700  0.794200  0.708100  1
  O  O108  1  0.057300  0.205800  0.291900  1
  O  O109  1  0.595800  0.893500  0.024500  1
  O  O110  1  0.404200  0.106500  0.975500  1
  O  O111  1  0.152960  0.436990  0.688490  1.0
  O  O112  1  0.847040  0.563010  0.311510  1.0
  O  O113  1  0.291040  0.595700  0.584650  1.0
  O  O114  1  0.708960  0.404300  0.415350  1.0
  O  O115  1  0.139600  0.657400  0.386600  1.0
  O  O116  1  0.860400  0.342600  0.613400  1.0
