# generated using pymatgen
data_P3H39Pd3C47N13F18
_symmetry_space_group_name_H-M   'P 1'
_cell_length_a   8.88460000
_cell_length_b   22.21980000
_cell_length_c   27.47610000
_cell_angle_alpha   90.00000000
_cell_angle_beta   90.00000000
_cell_angle_gamma   90.00000000
_symmetry_Int_Tables_number   1
_chemical_formula_structural   P3H39Pd3C47N13F18
_chemical_formula_sum   'P12 H156 Pd12 C188 N52 F72'
_cell_volume   5424.16776926
_cell_formula_units_Z   4
loop_
 _symmetry_equiv_pos_site_id
 _symmetry_equiv_pos_as_xyz
  1  'x, y, z'
loop_
 _atom_site_type_symbol
 _atom_site_label
 _atom_site_symmetry_multiplicity
 _atom_site_fract_x
 _atom_site_fract_y
 _atom_site_fract_z
 _atom_site_occupancy
  P  P1  1  0.304140  0.441760  0.869430  1
  P  P2  1  0.804140  0.558240  0.630570  1
  P  P3  1  0.195860  0.058240  0.369430  1
  P  P4  1  0.695860  0.941760  0.130570  1
  P  P5  1  0.695860  0.558240  0.130570  1
  P  P6  1  0.195860  0.441760  0.369430  1
  P  P7  1  0.804140  0.941760  0.630570  1
  P  P8  1  0.304140  0.058240  0.869430  1
  P  P9  1  0.453200  0.250000  0.536020  1
  P  P10  1  0.953200  0.750000  0.963980  1
  P  P11  1  0.046800  0.250000  0.036020  1
  P  P12  1  0.546800  0.750000  0.463980  1
  H  H13  1  0.175600  0.750000  0.684200  1
  H  H14  1  0.675600  0.250000  0.815800  1
  H  H15  1  0.324400  0.750000  0.184200  1
  H  H16  1  0.824400  0.250000  0.315800  1
  H  H17  1  0.827500  0.725700  0.681900  1
  H  H18  1  0.327500  0.274300  0.818100  1
  H  H19  1  0.672500  0.774300  0.181900  1
  H  H20  1  0.172500  0.225700  0.318100  1
  H  H21  1  0.172500  0.274300  0.318100  1
  H  H22  1  0.672500  0.725700  0.181900  1
  H  H23  1  0.327500  0.225700  0.818100  1
  H  H24  1  0.827500  0.774300  0.681900  1
  H  H25  1  0.959400  0.733800  0.719200  1
  H  H26  1  0.459400  0.266200  0.780800  1
  H  H27  1  0.540600  0.766200  0.219200  1
  H  H28  1  0.040600  0.233800  0.280800  1
  H  H29  1  0.040600  0.266200  0.280800  1
  H  H30  1  0.540600  0.733800  0.219200  1
  H  H31  1  0.459400  0.233800  0.780800  1
  H  H32  1  0.959400  0.766200  0.719200  1
  H  H33  1  0.880400  0.790500  0.696900  1
  H  H34  1  0.380400  0.209500  0.803100  1
  H  H35  1  0.619600  0.709500  0.196900  1
  H  H36  1  0.119600  0.290500  0.303100  1
  H  H37  1  0.119600  0.209500  0.303100  1
  H  H38  1  0.619600  0.790500  0.196900  1
  H  H39  1  0.380400  0.290500  0.803100  1
  H  H40  1  0.880400  0.709500  0.696900  1
  H  H41  1  0.201600  0.515200  0.754900  1.0
  H  H42  1  0.701600  0.484800  0.745100  1.0
  H  H43  1  0.298400  0.984800  0.254900  1.0
  H  H44  1  0.798400  0.015200  0.245100  1.0
  H  H45  1  0.798400  0.484800  0.245100  1.0
  H  H46  1  0.298400  0.515200  0.254900  1.0
  H  H47  1  0.701600  0.015200  0.745100  1.0
  H  H48  1  0.201600  0.984800  0.754900  1.0
  H  H49  1  0.159200  0.412700  0.752200  1.0
  H  H50  1  0.659200  0.587300  0.747800  1.0
  H  H51  1  0.340800  0.087300  0.252200  1.0
  H  H52  1  0.840800  0.912700  0.247800  1.0
  H  H53  1  0.840800  0.587300  0.247800  1.0
  H  H54  1  0.340800  0.412700  0.252200  1.0
  H  H55  1  0.659200  0.912700  0.747800  1.0
  H  H56  1  0.159200  0.087300  0.752200  1.0
  H  H57  1  0.194400  0.360800  0.682300  1.0
  H  H58  1  0.694400  0.639200  0.817700  1.0
  H  H59  1  0.305600  0.139200  0.182300  1.0
  H  H60  1  0.805600  0.860800  0.317700  1.0
  H  H61  1  0.805600  0.639200  0.317700  1.0
  H  H62  1  0.305600  0.360800  0.182300  1.0
  H  H63  1  0.694400  0.860800  0.817700  1.0
  H  H64  1  0.194400  0.139200  0.682300  1.0
  H  H65  1  0.266200  0.362000  0.591600  1.0
  H  H66  1  0.766200  0.638000  0.908400  1.0
  H  H67  1  0.233800  0.138000  0.091600  1.0
  H  H68  1  0.733800  0.862000  0.408400  1.0
  H  H69  1  0.733800  0.638000  0.408400  1.0
  H  H70  1  0.233800  0.362000  0.091600  1.0
  H  H71  1  0.766200  0.862000  0.908400  1.0
  H  H72  1  0.266200  0.138000  0.591600  1.0
  H  H73  1  0.321700  0.416400  0.524300  1.0
  H  H74  1  0.821700  0.583600  0.975700  1.0
  H  H75  1  0.178300  0.083600  0.024300  1.0
  H  H76  1  0.678300  0.916400  0.475700  1.0
  H  H77  1  0.678300  0.583600  0.475700  1.0
  H  H78  1  0.178300  0.416400  0.024300  1.0
  H  H79  1  0.821700  0.916400  0.975700  1.0
  H  H80  1  0.321700  0.083600  0.524300  1.0
  H  H81  1  0.361900  0.520700  0.484900  1.0
  H  H82  1  0.861900  0.479300  0.015100  1.0
  H  H83  1  0.138100  0.979300  0.984900  1.0
  H  H84  1  0.638100  0.020700  0.515100  1.0
  H  H85  1  0.638100  0.479300  0.515100  1.0
  H  H86  1  0.138100  0.520700  0.984900  1.0
  H  H87  1  0.861900  0.020700  0.015100  1.0
  H  H88  1  0.361900  0.979300  0.484900  1.0
  H  H89  1  0.390500  0.621800  0.495900  1.0
  H  H90  1  0.890500  0.378200  0.004100  1.0
  H  H91  1  0.109500  0.878200  0.995900  1.0
  H  H92  1  0.609500  0.121800  0.504100  1.0
  H  H93  1  0.609500  0.378200  0.504100  1.0
  H  H94  1  0.109500  0.621800  0.995900  1.0
  H  H95  1  0.890500  0.121800  0.004100  1.0
  H  H96  1  0.390500  0.878200  0.495900  1.0
  H  H97  1  0.372700  0.662700  0.572600  1.0
  H  H98  1  0.872700  0.337300  0.927400  1.0
  H  H99  1  0.127300  0.837300  0.072600  1.0
  H  H100  1  0.627300  0.162700  0.427400  1.0
  H  H101  1  0.627300  0.337300  0.427400  1.0
  H  H102  1  0.127300  0.662700  0.072600  1.0
  H  H103  1  0.872700  0.162700  0.927400  1.0
  H  H104  1  0.372700  0.837300  0.572600  1.0
  H  H105  1  0.425400  0.684400  0.767400  1.0
  H  H106  1  0.925400  0.315600  0.732600  1.0
  H  H107  1  0.074600  0.815600  0.267400  1.0
  H  H108  1  0.574600  0.184400  0.232600  1.0
  H  H109  1  0.574600  0.315600  0.232600  1.0
  H  H110  1  0.074600  0.684400  0.267400  1.0
  H  H111  1  0.925400  0.184400  0.732600  1.0
  H  H112  1  0.425400  0.815600  0.767400  1.0
  H  H113  1  0.042600  0.664500  0.835600  1.0
  H  H114  1  0.542600  0.335500  0.664400  1.0
  H  H115  1  0.457400  0.835500  0.335600  1.0
  H  H116  1  0.957400  0.164500  0.164400  1.0
  H  H117  1  0.957400  0.335500  0.164400  1.0
  H  H118  1  0.457400  0.664500  0.335600  1.0
  H  H119  1  0.542600  0.164500  0.664400  1.0
  H  H120  1  0.042600  0.835500  0.835600  1.0
  H  H121  1  0.028200  0.609100  0.758600  1.0
  H  H122  1  0.528200  0.390900  0.741400  1.0
  H  H123  1  0.471800  0.890900  0.258600  1.0
  H  H124  1  0.971800  0.109100  0.241400  1.0
  H  H125  1  0.971800  0.390900  0.241400  1.0
  H  H126  1  0.471800  0.609100  0.258600  1.0
  H  H127  1  0.528200  0.109100  0.741400  1.0
  H  H128  1  0.028200  0.890900  0.758600  1.0
  H  H129  1  0.571700  0.694800  0.640300  1.0
  H  H130  1  0.071700  0.305200  0.859700  1.0
  H  H131  1  0.928300  0.805200  0.140300  1.0
  H  H132  1  0.428300  0.194800  0.359700  1.0
  H  H133  1  0.428300  0.305200  0.359700  1.0
  H  H134  1  0.928300  0.694800  0.140300  1.0
  H  H135  1  0.071700  0.194800  0.859700  1.0
  H  H136  1  0.571700  0.805200  0.640300  1.0
  H  H137  1  0.357800  0.888700  0.885100  1.0
  H  H138  1  0.857800  0.111300  0.614900  1.0
  H  H139  1  0.142200  0.611300  0.385100  1.0
  H  H140  1  0.642200  0.388700  0.114900  1.0
  H  H141  1  0.642200  0.111300  0.114900  1.0
  H  H142  1  0.142200  0.888700  0.385100  1.0
  H  H143  1  0.857800  0.388700  0.614900  1.0
  H  H144  1  0.357800  0.611300  0.885100  1.0
  H  H145  1  0.435700  0.945600  0.950900  1.0
  H  H146  1  0.935700  0.054400  0.549100  1.0
  H  H147  1  0.064300  0.554400  0.450900  1.0
  H  H148  1  0.564300  0.445600  0.049100  1.0
  H  H149  1  0.564300  0.054400  0.049100  1.0
  H  H150  1  0.064300  0.945600  0.450900  1.0
  H  H151  1  0.935700  0.445600  0.549100  1.0
  H  H152  1  0.435700  0.554400  0.950900  1.0
  H  H153  1  0.516300  0.899200  0.020400  1.0
  H  H154  1  0.016300  0.100800  0.479600  1.0
  H  H155  1  0.983700  0.600800  0.520400  1.0
  H  H156  1  0.483700  0.399200  0.979600  1.0
  H  H157  1  0.483700  0.100800  0.979600  1.0
  H  H158  1  0.983700  0.899200  0.520400  1.0
  H  H159  1  0.016300  0.399200  0.479600  1.0
  H  H160  1  0.516300  0.600800  0.020400  1.0
  H  H161  1  0.561100  0.800000  0.067100  1.0
  H  H162  1  0.061100  0.200000  0.432900  1.0
  H  H163  1  0.938900  0.700000  0.567100  1.0
  H  H164  1  0.438900  0.300000  0.932900  1.0
  H  H165  1  0.438900  0.200000  0.932900  1.0
  H  H166  1  0.938900  0.800000  0.567100  1.0
  H  H167  1  0.061100  0.300000  0.432900  1.0
  H  H168  1  0.561100  0.700000  0.067100  1.0
  Pd  Pd169  1  0.323190  0.750000  0.863720  1
  Pd  Pd170  1  0.823190  0.250000  0.636280  1
  Pd  Pd171  1  0.176810  0.750000  0.363720  1
  Pd  Pd172  1  0.676810  0.250000  0.136280  1
  Pd  Pd173  1  0.292970  0.614720  0.677180  1.0
  Pd  Pd174  1  0.792970  0.385280  0.822820  1.0
  Pd  Pd175  1  0.207030  0.885280  0.177180  1.0
  Pd  Pd176  1  0.707030  0.114720  0.322820  1.0
  Pd  Pd177  1  0.707030  0.385280  0.322820  1.0
  Pd  Pd178  1  0.207030  0.614720  0.177180  1.0
  Pd  Pd179  1  0.792970  0.114720  0.822820  1.0
  Pd  Pd180  1  0.292970  0.885280  0.677180  1.0
  C  C181  1  0.274800  0.750000  0.673400  1
  C  C182  1  0.774800  0.250000  0.826600  1
  C  C183  1  0.225200  0.750000  0.173400  1
  C  C184  1  0.725200  0.250000  0.326600  1
  C  C185  1  0.758000  0.750000  0.747700  1
  C  C186  1  0.258000  0.250000  0.752300  1
  C  C187  1  0.742000  0.750000  0.247700  1
  C  C188  1  0.242000  0.250000  0.252300  1
  C  C189  1  0.865400  0.750000  0.708100  1
  C  C190  1  0.365400  0.250000  0.791900  1
  C  C191  1  0.634600  0.750000  0.208100  1
  C  C192  1  0.134600  0.250000  0.291900  1
  C  C193  1  0.212700  0.494800  0.725500  1.0
  C  C194  1  0.712700  0.505200  0.774500  1.0
  C  C195  1  0.287300  0.005200  0.225500  1.0
  C  C196  1  0.787300  0.994800  0.274500  1.0
  C  C197  1  0.787300  0.505200  0.274500  1.0
  C  C198  1  0.287300  0.494800  0.225500  1.0
  C  C199  1  0.712700  0.994800  0.774500  1.0
  C  C200  1  0.212700  0.005200  0.725500  1.0
  C  C201  1  0.189200  0.432900  0.724200  1.0
  C  C202  1  0.689200  0.567100  0.775800  1.0
  C  C203  1  0.310800  0.067100  0.224200  1.0
  C  C204  1  0.810800  0.932900  0.275800  1.0
  C  C205  1  0.810800  0.567100  0.275800  1.0
  C  C206  1  0.310800  0.432900  0.224200  1.0
  C  C207  1  0.689200  0.932900  0.775800  1.0
  C  C208  1  0.189200  0.067100  0.724200  1.0
  C  C209  1  0.209500  0.402200  0.682700  1.0
  C  C210  1  0.709500  0.597800  0.817300  1.0
  C  C211  1  0.290500  0.097800  0.182700  1.0
  C  C212  1  0.790500  0.902200  0.317300  1.0
  C  C213  1  0.790500  0.597800  0.317300  1.0
  C  C214  1  0.290500  0.402200  0.182700  1.0
  C  C215  1  0.709500  0.902200  0.817300  1.0
  C  C216  1  0.209500  0.097800  0.682700  1.0
  C  C217  1  0.253000  0.431700  0.640200  1.0
  C  C218  1  0.753000  0.568300  0.859800  1.0
  C  C219  1  0.247000  0.068300  0.140200  1.0
  C  C220  1  0.747000  0.931700  0.359800  1.0
  C  C221  1  0.747000  0.568300  0.359800  1.0
  C  C222  1  0.247000  0.431700  0.140200  1.0
  C  C223  1  0.753000  0.931700  0.859800  1.0
  C  C224  1  0.253000  0.068300  0.640200  1.0
  C  C225  1  0.275100  0.403600  0.594000  1.0
  C  C226  1  0.775100  0.596400  0.906000  1.0
  C  C227  1  0.224900  0.096400  0.094000  1.0
  C  C228  1  0.724900  0.903600  0.406000  1.0
  C  C229  1  0.724900  0.596400  0.406000  1.0
  C  C230  1  0.224900  0.403600  0.094000  1.0
  C  C231  1  0.775100  0.903600  0.906000  1.0
  C  C232  1  0.275100  0.096400  0.594000  1.0
  C  C233  1  0.308600  0.436000  0.553900  1.0
  C  C234  1  0.808600  0.564000  0.946100  1.0
  C  C235  1  0.191400  0.064000  0.053900  1.0
  C  C236  1  0.691400  0.936000  0.446100  1.0
  C  C237  1  0.691400  0.564000  0.446100  1.0
  C  C238  1  0.191400  0.436000  0.053900  1.0
  C  C239  1  0.808600  0.936000  0.946100  1.0
  C  C240  1  0.308600  0.064000  0.553900  1.0
  C  C241  1  0.324000  0.499800  0.556330  1.0
  C  C242  1  0.824000  0.500200  0.943670  1.0
  C  C243  1  0.176000  0.000200  0.056330  1.0
  C  C244  1  0.676000  0.999800  0.443670  1.0
  C  C245  1  0.676000  0.500200  0.443670  1.0
  C  C246  1  0.176000  0.499800  0.056330  1.0
  C  C247  1  0.824000  0.999800  0.943670  1.0
  C  C248  1  0.324000  0.000200  0.556330  1.0
  C  C249  1  0.353900  0.537300  0.515920  1.0
  C  C250  1  0.853900  0.462700  0.984080  1.0
  C  C251  1  0.146100  0.962700  0.015920  1.0
  C  C252  1  0.646100  0.037300  0.484080  1.0
  C  C253  1  0.646100  0.462700  0.484080  1.0
  C  C254  1  0.146100  0.537300  0.015920  1.0
  C  C255  1  0.853900  0.037300  0.984080  1.0
  C  C256  1  0.353900  0.962700  0.515920  1.0
  C  C257  1  0.370700  0.597000  0.522380  1.0
  C  C258  1  0.870700  0.403000  0.977620  1.0
  C  C259  1  0.129300  0.903000  0.022380  1.0
  C  C260  1  0.629300  0.097000  0.477620  1.0
  C  C261  1  0.629300  0.403000  0.477620  1.0
  C  C262  1  0.129300  0.597000  0.022380  1.0
  C  C263  1  0.870700  0.097000  0.977620  1.0
  C  C264  1  0.370700  0.903000  0.522380  1.0
  C  C265  1  0.358200  0.621500  0.568760  1.0
  C  C266  1  0.858200  0.378500  0.931240  1.0
  C  C267  1  0.141800  0.878500  0.068760  1.0
  C  C268  1  0.641800  0.121500  0.431240  1.0
  C  C269  1  0.641800  0.378500  0.431240  1.0
  C  C270  1  0.141800  0.621500  0.068760  1.0
  C  C271  1  0.858200  0.121500  0.931240  1.0
  C  C272  1  0.358200  0.878500  0.568760  1.0
  C  C273  1  0.308600  0.528400  0.601550  1.0
  C  C274  1  0.808600  0.471600  0.898450  1.0
  C  C275  1  0.191400  0.971600  0.101550  1.0
  C  C276  1  0.691400  0.028400  0.398450  1.0
  C  C277  1  0.691400  0.471600  0.398450  1.0
  C  C278  1  0.191400  0.528400  0.101550  1.0
  C  C279  1  0.808600  0.028400  0.898450  1.0
  C  C280  1  0.308600  0.971600  0.601550  1.0
  C  C281  1  0.270300  0.494500  0.643210  1.0
  C  C282  1  0.770300  0.505500  0.856790  1.0
  C  C283  1  0.229700  0.005500  0.143210  1.0
  C  C284  1  0.729700  0.994500  0.356790  1.0
  C  C285  1  0.729700  0.505500  0.356790  1.0
  C  C286  1  0.229700  0.494500  0.143210  1.0
  C  C287  1  0.770300  0.994500  0.856790  1.0
  C  C288  1  0.270300  0.005500  0.643210  1.0
  C  C289  1  0.327800  0.672500  0.774880  1.0
  C  C290  1  0.827800  0.327500  0.725120  1.0
  C  C291  1  0.172200  0.827500  0.274880  1.0
  C  C292  1  0.672200  0.172500  0.225120  1.0
  C  C293  1  0.672200  0.327500  0.225120  1.0
  C  C294  1  0.172200  0.672500  0.274880  1.0
  C  C295  1  0.827800  0.172500  0.725120  1.0
  C  C296  1  0.327800  0.827500  0.774880  1.0
  C  C297  1  0.118600  0.661700  0.812450  1.0
  C  C298  1  0.618600  0.338300  0.687550  1.0
  C  C299  1  0.381400  0.838300  0.312450  1.0
  C  C300  1  0.881400  0.161700  0.187550  1.0
  C  C301  1  0.881400  0.338300  0.187550  1.0
  C  C302  1  0.381400  0.661700  0.312450  1.0
  C  C303  1  0.618600  0.161700  0.687550  1.0
  C  C304  1  0.118600  0.838300  0.812450  1.0
  C  C305  1  0.110300  0.631100  0.769740  1.0
  C  C306  1  0.610300  0.368900  0.730260  1.0
  C  C307  1  0.389700  0.868900  0.269740  1.0
  C  C308  1  0.889700  0.131100  0.230260  1.0
  C  C309  1  0.889700  0.368900  0.230260  1.0
  C  C310  1  0.389700  0.631100  0.269740  1.0
  C  C311  1  0.610300  0.131100  0.730260  1.0
  C  C312  1  0.110300  0.868900  0.769740  1.0
  C  C313  1  0.491700  0.719400  0.649250  1.0
  C  C314  1  0.991700  0.280600  0.850750  1.0
  C  C315  1  0.008300  0.780600  0.149250  1.0
  C  C316  1  0.508300  0.219400  0.350750  1.0
  C  C317  1  0.508300  0.280600  0.350750  1.0
  C  C318  1  0.008300  0.719400  0.149250  1.0
  C  C319  1  0.991700  0.219400  0.850750  1.0
  C  C320  1  0.491700  0.780600  0.649250  1.0
  C  C321  1  0.390000  0.869400  0.913210  1.0
  C  C322  1  0.890000  0.130600  0.586790  1.0
  C  C323  1  0.110000  0.630600  0.413210  1.0
  C  C324  1  0.610000  0.369400  0.086790  1.0
  C  C325  1  0.610000  0.130600  0.086790  1.0
  C  C326  1  0.110000  0.869400  0.413210  1.0
  C  C327  1  0.890000  0.369400  0.586790  1.0
  C  C328  1  0.390000  0.630600  0.913210  1.0
  C  C329  1  0.436900  0.903800  0.952800  1.0
  C  C330  1  0.936900  0.096200  0.547200  1.0
  C  C331  1  0.063100  0.596200  0.452800  1.0
  C  C332  1  0.563100  0.403800  0.047200  1.0
  C  C333  1  0.563100  0.096200  0.047200  1.0
  C  C334  1  0.063100  0.903800  0.452800  1.0
  C  C335  1  0.936900  0.403800  0.547200  1.0
  C  C336  1  0.436900  0.596200  0.952800  1.0
  C  C337  1  0.484100  0.876200  0.994100  1.0
  C  C338  1  0.984100  0.123800  0.505900  1.0
  C  C339  1  0.015900  0.623800  0.494100  1.0
  C  C340  1  0.515900  0.376200  0.005900  1.0
  C  C341  1  0.515900  0.123800  0.005900  1.0
  C  C342  1  0.015900  0.876200  0.494100  1.0
  C  C343  1  0.984100  0.376200  0.505900  1.0
  C  C344  1  0.484100  0.623800  0.994100  1.0
  C  C345  1  0.484900  0.814100  0.997430  1.0
  C  C346  1  0.984900  0.185900  0.502570  1.0
  C  C347  1  0.015100  0.685900  0.497430  1.0
  C  C348  1  0.515100  0.314100  0.002570  1.0
  C  C349  1  0.515100  0.185900  0.002570  1.0
  C  C350  1  0.015100  0.814100  0.497430  1.0
  C  C351  1  0.984900  0.314100  0.502570  1.0
  C  C352  1  0.484900  0.685900  0.997430  1.0
  C  C353  1  0.438100  0.782200  0.956230  1.0
  C  C354  1  0.938100  0.217800  0.543770  1.0
  C  C355  1  0.061900  0.717800  0.456230  1.0
  C  C356  1  0.561900  0.282200  0.043770  1.0
  C  C357  1  0.561900  0.217800  0.043770  1.0
  C  C358  1  0.061900  0.782200  0.456230  1.0
  C  C359  1  0.938100  0.282200  0.543770  1.0
  C  C360  1  0.438100  0.717800  0.956230  1.0
  C  C361  1  0.530600  0.779800  0.039210  1.0
  C  C362  1  0.030600  0.220200  0.460790  1.0
  C  C363  1  0.969400  0.720200  0.539210  1.0
  C  C364  1  0.469400  0.279800  0.960790  1.0
  C  C365  1  0.469400  0.220200  0.960790  1.0
  C  C366  1  0.969400  0.779800  0.539210  1.0
  C  C367  1  0.030600  0.279800  0.460790  1.0
  C  C368  1  0.530600  0.720200  0.039210  1.0
  N  N369  1  0.671800  0.750000  0.777500  1
  N  N370  1  0.171800  0.250000  0.722500  1
  N  N371  1  0.828200  0.750000  0.277500  1
  N  N372  1  0.328200  0.250000  0.222500  1
  N  N373  1  0.250600  0.525410  0.685850  1.0
  N  N374  1  0.750600  0.474590  0.814150  1.0
  N  N375  1  0.249400  0.974590  0.185850  1.0
  N  N376  1  0.749400  0.025410  0.314150  1.0
  N  N377  1  0.749400  0.474590  0.314150  1.0
  N  N378  1  0.249400  0.525410  0.185850  1.0
  N  N379  1  0.750600  0.025410  0.814150  1.0
  N  N380  1  0.250600  0.974590  0.685850  1.0
  N  N381  1  0.326900  0.589100  0.607400  1.0
  N  N382  1  0.826900  0.410900  0.892600  1.0
  N  N383  1  0.173100  0.910900  0.107400  1.0
  N  N384  1  0.673100  0.089100  0.392600  1.0
  N  N385  1  0.673100  0.410900  0.392600  1.0
  N  N386  1  0.173100  0.589100  0.107400  1.0
  N  N387  1  0.826900  0.089100  0.892600  1.0
  N  N388  1  0.326900  0.910900  0.607400  1.0
  N  N389  1  0.353500  0.700350  0.664780  1.0
  N  N390  1  0.853500  0.299650  0.835220  1.0
  N  N391  1  0.146500  0.799650  0.164780  1.0
  N  N392  1  0.646500  0.200350  0.335220  1.0
  N  N393  1  0.646500  0.299650  0.335220  1.0
  N  N394  1  0.146500  0.700350  0.164780  1.0
  N  N395  1  0.853500  0.200350  0.835220  1.0
  N  N396  1  0.353500  0.799650  0.664780  1.0
  N  N397  1  0.244200  0.638340  0.746090  1.0
  N  N398  1  0.744200  0.361660  0.753910  1.0
  N  N399  1  0.255800  0.861660  0.246090  1.0
  N  N400  1  0.755800  0.138340  0.253910  1.0
  N  N401  1  0.755800  0.361660  0.253910  1.0
  N  N402  1  0.255800  0.638340  0.246090  1.0
  N  N403  1  0.744200  0.138340  0.753910  1.0
  N  N404  1  0.244200  0.861660  0.746090  1.0
  N  N405  1  0.256800  0.687730  0.815540  1.0
  N  N406  1  0.756800  0.312270  0.684460  1.0
  N  N407  1  0.243200  0.812270  0.315540  1.0
  N  N408  1  0.743200  0.187730  0.184460  1.0
  N  N409  1  0.743200  0.312270  0.184460  1.0
  N  N410  1  0.243200  0.687730  0.315540  1.0
  N  N411  1  0.756800  0.187730  0.684460  1.0
  N  N412  1  0.256800  0.812270  0.815540  1.0
  N  N413  1  0.390300  0.809460  0.914600  1.0
  N  N414  1  0.890300  0.190540  0.585400  1.0
  N  N415  1  0.109700  0.690540  0.414600  1.0
  N  N416  1  0.609700  0.309460  0.085400  1.0
  N  N417  1  0.609700  0.190540  0.085400  1.0
  N  N418  1  0.109700  0.809460  0.414600  1.0
  N  N419  1  0.890300  0.309460  0.585400  1.0
  N  N420  1  0.390300  0.690540  0.914600  1.0
  F  F421  1  0.380400  0.405400  0.832200  1
  F  F422  1  0.880400  0.594600  0.667800  1
  F  F423  1  0.119600  0.094600  0.332200  1
  F  F424  1  0.619600  0.905400  0.167800  1
  F  F425  1  0.619600  0.594600  0.167800  1
  F  F426  1  0.119600  0.405400  0.332200  1
  F  F427  1  0.880400  0.905400  0.667800  1
  F  F428  1  0.380400  0.094600  0.832200  1
  F  F429  1  0.152700  0.434600  0.840740  1
  F  F430  1  0.652700  0.565400  0.659260  1
  F  F431  1  0.347300  0.065400  0.340740  1
  F  F432  1  0.847300  0.934600  0.159260  1
  F  F433  1  0.847300  0.565400  0.159260  1
  F  F434  1  0.347300  0.434600  0.340740  1
  F  F435  1  0.652700  0.934600  0.659260  1
  F  F436  1  0.152700  0.065400  0.840740  1
  F  F437  1  0.254300  0.390900  0.899900  1
  F  F438  1  0.754300  0.609100  0.600100  1
  F  F439  1  0.245700  0.109100  0.399900  1
  F  F440  1  0.745700  0.890900  0.100100  1
  F  F441  1  0.745700  0.609100  0.100100  1
  F  F442  1  0.245700  0.390900  0.399900  1
  F  F443  1  0.754300  0.890900  0.600100  1
  F  F444  1  0.254300  0.109100  0.899900  1
  F  F445  1  0.225600  0.481300  0.904300  1
  F  F446  1  0.725600  0.518700  0.595700  1
  F  F447  1  0.274400  0.018700  0.404300  1
  F  F448  1  0.774400  0.981300  0.095700  1
  F  F449  1  0.774400  0.518700  0.095700  1
  F  F450  1  0.274400  0.481300  0.404300  1
  F  F451  1  0.725600  0.981300  0.595700  1
  F  F452  1  0.225600  0.018700  0.904300  1
  F  F453  1  0.451600  0.449300  0.898610  1
  F  F454  1  0.951600  0.550700  0.601390  1
  F  F455  1  0.048400  0.050700  0.398610  1
  F  F456  1  0.548400  0.949300  0.101390  1
  F  F457  1  0.548400  0.550700  0.101390  1
  F  F458  1  0.048400  0.449300  0.398610  1
  F  F459  1  0.951600  0.949300  0.601390  1
  F  F460  1  0.451600  0.050700  0.898610  1
  F  F461  1  0.353000  0.491000  0.837200  1
  F  F462  1  0.853000  0.509000  0.662800  1
  F  F463  1  0.147000  0.009000  0.337200  1
  F  F464  1  0.647000  0.991000  0.162800  1
  F  F465  1  0.647000  0.509000  0.162800  1
  F  F466  1  0.147000  0.491000  0.337200  1
  F  F467  1  0.853000  0.991000  0.662800  1
  F  F468  1  0.353000  0.009000  0.837200  1
  F  F469  1  0.593800  0.250000  0.499800  1
  F  F470  1  0.093800  0.750000  0.000200  1
  F  F471  1  0.906200  0.250000  0.999800  1
  F  F472  1  0.406200  0.750000  0.500200  1
  F  F473  1  0.314100  0.250000  0.571600  1
  F  F474  1  0.814100  0.750000  0.928400  1
  F  F475  1  0.185900  0.250000  0.071600  1
  F  F476  1  0.685900  0.750000  0.428400  1
  F  F477  1  0.375400  0.199060  0.504500  1.0
  F  F478  1  0.875400  0.800940  0.995500  1.0
  F  F479  1  0.124600  0.300940  0.004500  1.0
  F  F480  1  0.624600  0.699060  0.495500  1.0
  F  F481  1  0.624600  0.800940  0.495500  1.0
  F  F482  1  0.124600  0.199060  0.004500  1.0
  F  F483  1  0.875400  0.699060  0.995500  1.0
  F  F484  1  0.375400  0.300940  0.504500  1.0
  F  F485  1  0.533900  0.199130  0.567470  1.0
  F  F486  1  0.033900  0.800870  0.932530  1.0
  F  F487  1  0.966100  0.300870  0.067470  1.0
  F  F488  1  0.466100  0.699130  0.432530  1.0
  F  F489  1  0.466100  0.800870  0.432530  1.0
  F  F490  1  0.966100  0.199130  0.067470  1.0
  F  F491  1  0.033900  0.699130  0.932530  1.0
  F  F492  1  0.533900  0.300870  0.567470  1.0
