# generated using pymatgen
data_Zn2H54C62S2N15(O2F3)2
_symmetry_space_group_name_H-M   'P 1'
_cell_length_a   22.66146299
_cell_length_b   22.66146299
_cell_length_c   23.61240000
_cell_angle_alpha   70.84177285
_cell_angle_beta   70.84177285
_cell_angle_gamma   88.49927516
_symmetry_Int_Tables_number   1
_chemical_formula_structural   Zn2H54C62S2N15(O2F3)2
_chemical_formula_sum   'Zn8 H216 C248 S8 N60 O16 F24'
_cell_volume   10774.74164700
_cell_formula_units_Z   4
loop_
 _symmetry_equiv_pos_site_id
 _symmetry_equiv_pos_as_xyz
  1  'x, y, z'
loop_
 _atom_site_type_symbol
 _atom_site_label
 _atom_site_symmetry_multiplicity
 _atom_site_fract_x
 _atom_site_fract_y
 _atom_site_fract_z
 _atom_site_occupancy
  C  C1  1  0.808200  0.014800  0.716500  1
  C  C2  1  0.985200  0.191800  0.783500  1
  C  C3  1  0.191800  0.985200  0.283500  1
  C  C4  1  0.014800  0.808200  0.216500  1
  C  C5  1  0.919900  0.889500  0.564300  1
  C  C6  1  0.110500  0.080100  0.935700  1
  C  C7  1  0.080100  0.110500  0.435700  1
  C  C8  1  0.889500  0.919900  0.064300  1
  C  C9  1  0.737100  0.713300  0.587800  1.0
  C  C10  1  0.286700  0.262900  0.912200  1.0
  C  C11  1  0.262900  0.286700  0.412200  1.0
  C  C12  1  0.713300  0.737100  0.087800  1.0
  C  C13  1  0.779000  0.767600  0.583600  1.0
  C  C14  1  0.232400  0.221000  0.916400  1.0
  C  C15  1  0.221000  0.232400  0.416400  1.0
  C  C16  1  0.767600  0.779000  0.083600  1.0
  C  C17  1  0.742500  0.864300  0.564700  1.0
  C  C18  1  0.135700  0.257500  0.935300  1.0
  C  C19  1  0.257500  0.135700  0.435300  1.0
  C  C20  1  0.864300  0.742500  0.064700  1.0
  C  C21  1  0.720700  0.923300  0.526400  1.0
  C  C22  1  0.076700  0.279300  0.973600  1.0
  C  C23  1  0.279300  0.076700  0.473600  1.0
  C  C24  1  0.923300  0.720700  0.026400  1.0
  C  C25  1  0.700600  0.972200  0.548500  1.0
  C  C26  1  0.027800  0.299400  0.951500  1.0
  C  C27  1  0.299400  0.027800  0.451500  1.0
  C  C28  1  0.972200  0.700600  0.048500  1.0
  C  C29  1  0.682400  0.023400  0.509500  1.0
  C  C30  1  0.976600  0.317600  0.990500  1.0
  C  C31  1  0.317600  0.976600  0.490500  1.0
  C  C32  1  0.023400  0.682400  0.009500  1.0
  C  C33  1  0.687000  0.025600  0.449000  1.0
  C  C34  1  0.974400  0.313000  0.051000  1.0
  C  C35  1  0.313000  0.974400  0.551000  1.0
  C  C36  1  0.025600  0.687000  0.949000  1.0
  C  C37  1  0.707900  0.974700  0.430000  1.0
  C  C38  1  0.025300  0.292100  0.070000  1.0
  C  C39  1  0.292100  0.025300  0.570000  1.0
  C  C40  1  0.974700  0.707900  0.930000  1.0
  C  C41  1  0.668700  0.081700  0.403000  1.0
  C  C42  1  0.918300  0.331300  0.097000  1.0
  C  C43  1  0.331300  0.918300  0.597000  1.0
  C  C44  1  0.081700  0.668700  0.903000  1.0
  C  C45  1  0.666900  0.139700  0.411400  1.0
  C  C46  1  0.860300  0.333100  0.088600  1.0
  C  C47  1  0.333100  0.860300  0.588600  1.0
  C  C48  1  0.139700  0.666900  0.911400  1.0
  C  C49  1  0.649900  0.190700  0.369600  1.0
  C  C50  1  0.809300  0.350100  0.130400  1.0
  C  C51  1  0.350100  0.809300  0.630400  1.0
  C  C52  1  0.190700  0.649900  0.869600  1.0
  C  C53  1  0.634910  0.183690  0.319500  1.0
  C  C54  1  0.816310  0.365090  0.180500  1.0
  C  C55  1  0.365090  0.816310  0.680500  1.0
  C  C56  1  0.183690  0.634910  0.819500  1.0
  C  C57  1  0.636800  0.125600  0.311200  1.0
  C  C58  1  0.874400  0.363200  0.188800  1.0
  C  C59  1  0.363200  0.874400  0.688800  1.0
  C  C60  1  0.125600  0.636800  0.811200  1.0
  C  C61  1  0.653600  0.074600  0.353000  1.0
  C  C62  1  0.925400  0.346400  0.147000  1.0
  C  C63  1  0.346400  0.925400  0.647000  1.0
  C  C64  1  0.074600  0.653600  0.853000  1.0
  C  C65  1  0.691200  0.267600  0.405200  1.0
  C  C66  1  0.732400  0.308800  0.094800  1.0
  C  C67  1  0.308800  0.732400  0.594800  1.0
  C  C68  1  0.267600  0.691200  0.905200  1.0
  C  C69  1  0.651400  0.252600  0.377600  1.0
  C  C70  1  0.747400  0.348600  0.122400  1.0
  C  C71  1  0.348600  0.747400  0.622400  1.0
  C  C72  1  0.252600  0.651400  0.877600  1.0
  C  C73  1  0.613100  0.297100  0.358000  1.0
  C  C74  1  0.702900  0.386900  0.142000  1.0
  C  C75  1  0.386900  0.702900  0.642000  1.0
  C  C76  1  0.297100  0.613100  0.858000  1.0
  C  C77  1  0.615500  0.354100  0.366800  1.0
  C  C78  1  0.645900  0.384500  0.133200  1.0
  C  C79  1  0.384500  0.645900  0.633200  1.0
  C  C80  1  0.354100  0.615500  0.866800  1.0
  C  C81  1  0.658400  0.366600  0.393000  1.0
  C  C82  1  0.633400  0.341600  0.107000  1.0
  C  C83  1  0.341600  0.633400  0.607000  1.0
  C  C84  1  0.366600  0.658400  0.893000  1.0
  C  C85  1  0.666900  0.426500  0.403000  1.0
  C  C86  1  0.573500  0.333100  0.097000  1.0
  C  C87  1  0.333100  0.573500  0.597000  1.0
  C  C88  1  0.426500  0.666900  0.903000  1.0
  C  C89  1  0.714600  0.497400  0.429300  1.0
  C  C90  1  0.502600  0.285400  0.070700  1.0
  C  C91  1  0.285400  0.502600  0.570700  1.0
  C  C92  1  0.497400  0.714600  0.929300  1.0
  C  C93  1  0.696500  0.487100  0.499900  1.0
  C  C94  1  0.512900  0.303500  0.000100  1.0
  C  C95  1  0.303500  0.512900  0.500100  1.0
  C  C96  1  0.487100  0.696500  0.999900  1.0
  C  C97  1  0.630300  0.169100  0.201900  1.0
  C  C98  1  0.830900  0.369700  0.298100  1.0
  C  C99  1  0.369700  0.830900  0.798100  1.0
  C  C100  1  0.169100  0.630300  0.701900  1.0
  C  C101  1  0.621200  0.118000  0.256600  1.0
  C  C102  1  0.882000  0.378800  0.243400  1.0
  C  C103  1  0.378800  0.882000  0.743400  1.0
  C  C104  1  0.118000  0.621200  0.756600  1.0
  C  C105  1  0.599200  0.061200  0.258400  1.0
  C  C106  1  0.938800  0.400800  0.241600  1.0
  C  C107  1  0.400800  0.938800  0.741600  1.0
  C  C108  1  0.061200  0.599200  0.758400  1.0
  C  C109  1  0.587900  0.056500  0.206000  1.0
  C  C110  1  0.943500  0.412100  0.294000  1.0
  C  C111  1  0.412100  0.943500  0.794000  1.0
  C  C112  1  0.056500  0.587900  0.706000  1.0
  C  C113  1  0.598900  0.109900  0.152200  1.0
  C  C114  1  0.890100  0.401100  0.347800  1.0
  C  C115  1  0.401100  0.890100  0.847800  1.0
  C  C116  1  0.109900  0.598900  0.652200  1.0
  C  C117  1  0.537000  0.201600  0.981900  1.0
  C  C118  1  0.798400  0.463000  0.518100  1.0
  C  C119  1  0.463000  0.798400  0.018100  1.0
  C  C120  1  0.201600  0.537000  0.481900  1.0
  C  C121  1  0.587900  0.158500  0.987600  1.0
  C  C122  1  0.841500  0.412100  0.512400  1.0
  C  C123  1  0.412100  0.841500  0.012400  1.0
  C  C124  1  0.158500  0.587900  0.487600  1.0
  C  C125  1  0.590500  0.111100  0.093800  1.0
  C  C126  1  0.888900  0.409500  0.406200  1.0
  C  C127  1  0.409500  0.888900  0.906200  1.0
  C  C128  1  0.111100  0.590500  0.593800  1.0
  C  C129  1  0.800000  0.683800  0.497500  1.0
  C  C130  1  0.316200  0.200000  0.002500  1.0
  C  C131  1  0.200000  0.316200  0.502500  1.0
  C  C132  1  0.683800  0.800000  0.997500  1.0
  C  C133  1  0.829400  0.720000  0.422700  1.0
  C  C134  1  0.280000  0.170600  0.077300  1.0
  C  C135  1  0.170600  0.280000  0.577300  1.0
  C  C136  1  0.720000  0.829400  0.922700  1.0
  C  C137  1  0.895200  0.810200  0.392500  1.0
  C  C138  1  0.189800  0.104800  0.107500  1.0
  C  C139  1  0.104800  0.189800  0.607500  1.0
  C  C140  1  0.810200  0.895200  0.892500  1.0
  C  C141  1  0.911900  0.875500  0.384300  1.0
  C  C142  1  0.124500  0.088100  0.115700  1.0
  C  C143  1  0.088100  0.124500  0.615700  1.0
  C  C144  1  0.875500  0.911900  0.884300  1.0
  C  C145  1  0.972100  0.904900  0.354700  1.0
  C  C146  1  0.095100  0.027900  0.145300  1.0
  C  C147  1  0.027900  0.095100  0.645300  1.0
  C  C148  1  0.904900  0.972100  0.854700  1.0
  C  C149  1  0.981300  0.965900  0.350700  1.0
  C  C150  1  0.034100  0.018700  0.149300  1.0
  C  C151  1  0.018700  0.034100  0.649300  1.0
  C  C152  1  0.965900  0.981300  0.850700  1.0
  C  C153  1  0.930300  0.997100  0.373100  1.0
  C  C154  1  0.002900  0.069700  0.126900  1.0
  C  C155  1  0.069700  0.002900  0.626900  1.0
  C  C156  1  0.997100  0.930300  0.873100  1.0
  C  C157  1  0.871300  0.964500  0.401800  1.0
  C  C158  1  0.035500  0.128700  0.098200  1.0
  C  C159  1  0.128700  0.035500  0.598200  1.0
  C  C160  1  0.964500  0.871300  0.901800  1.0
  C  C161  1  0.936800  0.065200  0.368400  1.0
  C  C162  1  0.934800  0.063200  0.131600  1.0
  C  C163  1  0.063200  0.934800  0.631600  1.0
  C  C164  1  0.065200  0.936800  0.868400  1.0
  C  C165  1  0.985720  0.105680  0.319100  1.0
  C  C166  1  0.894320  0.014280  0.180900  1.0
  C  C167  1  0.014280  0.894320  0.680900  1.0
  C  C168  1  0.105680  0.985720  0.819100  1.0
  C  C169  1  0.990600  0.168800  0.312400  1.0
  C  C170  1  0.831200  0.009400  0.187600  1.0
  C  C171  1  0.009400  0.831200  0.687600  1.0
  C  C172  1  0.168800  0.990600  0.812400  1.0
  C  C173  1  0.946400  0.191400  0.355200  1.0
  C  C174  1  0.808600  0.053600  0.144800  1.0
  C  C175  1  0.053600  0.808600  0.644800  1.0
  C  C176  1  0.191400  0.946400  0.855200  1.0
  C  C177  1  0.897470  0.150930  0.404600  1.0
  C  C178  1  0.849070  0.102530  0.095400  1.0
  C  C179  1  0.102530  0.849070  0.595400  1.0
  C  C180  1  0.150930  0.897470  0.904600  1.0
  C  C181  1  0.892700  0.087900  0.411200  1.0
  C  C182  1  0.912100  0.107300  0.088800  1.0
  C  C183  1  0.107300  0.912100  0.588800  1.0
  C  C184  1  0.087900  0.892700  0.911200  1.0
  C  C185  1  0.835700  0.235300  0.432700  1.0
  C  C186  1  0.764700  0.164300  0.067300  1.0
  C  C187  1  0.164300  0.764700  0.567300  1.0
  C  C188  1  0.235300  0.835700  0.932700  1.0
  C  C189  1  0.848100  0.173300  0.452500  1.0
  C  C190  1  0.826700  0.151900  0.047500  1.0
  C  C191  1  0.151900  0.826700  0.547500  1.0
  C  C192  1  0.173300  0.848100  0.952500  1.0
  C  C193  1  0.816400  0.136600  0.514400  1.0
  C  C194  1  0.863400  0.183600  0.985600  1.0
  C  C195  1  0.183600  0.863400  0.485600  1.0
  C  C196  1  0.136600  0.816400  0.014400  1.0
  C  C197  1  0.771400  0.161800  0.553700  1.0
  C  C198  1  0.838200  0.228600  0.946300  1.0
  C  C199  1  0.228600  0.838200  0.446300  1.0
  C  C200  1  0.161800  0.771400  0.053700  1.0
  C  C201  1  0.764400  0.225400  0.531200  1.0
  C  C202  1  0.774600  0.235600  0.968800  1.0
  C  C203  1  0.235600  0.774600  0.468800  1.0
  C  C204  1  0.225400  0.764400  0.031200  1.0
  C  C205  1  0.716400  0.253800  0.569000  1.0
  C  C206  1  0.746200  0.283600  0.931000  1.0
  C  C207  1  0.283600  0.746200  0.431000  1.0
  C  C208  1  0.253800  0.716400  0.069000  1.0
  C  C209  1  0.665900  0.344100  0.584700  1.0
  C  C210  1  0.655900  0.334100  0.915300  1.0
  C  C211  1  0.334100  0.655900  0.415300  1.0
  C  C212  1  0.344100  0.665900  0.084700  1.0
  C  C213  1  0.694800  0.394400  0.591900  1.0
  C  C214  1  0.605600  0.305200  0.908100  1.0
  C  C215  1  0.305200  0.605600  0.408100  1.0
  C  C216  1  0.394400  0.694800  0.091900  1.0
  C  C217  1  0.069300  0.200900  0.201800  1.0
  C  C218  1  0.799100  0.930700  0.298200  1.0
  C  C219  1  0.930700  0.799100  0.798200  1.0
  C  C220  1  0.200900  0.069300  0.701800  1.0
  C  C221  1  0.042100  0.213300  0.257600  1.0
  C  C222  1  0.786700  0.957900  0.242400  1.0
  C  C223  1  0.957900  0.786700  0.742400  1.0
  C  C224  1  0.213300  0.042100  0.757600  1.0
  C  C225  1  0.062400  0.268400  0.261100  1.0
  C  C226  1  0.731600  0.937600  0.238900  1.0
  C  C227  1  0.937600  0.731600  0.738900  1.0
  C  C228  1  0.268400  0.062400  0.761100  1.0
  C  C229  1  0.110600  0.307600  0.210200  1.0
  C  C230  1  0.692400  0.889400  0.289800  1.0
  C  C231  1  0.889400  0.692400  0.789800  1.0
  C  C232  1  0.307600  0.110600  0.710200  1.0
  C  C233  1  0.135400  0.291800  0.155500  1.0
  C  C234  1  0.708200  0.864600  0.344500  1.0
  C  C235  1  0.864600  0.708200  0.844500  1.0
  C  C236  1  0.291800  0.135400  0.655500  1.0
  C  C237  1  0.307700  0.313500  0.979800  1.0
  C  C238  1  0.686500  0.692300  0.520200  1.0
  C  C239  1  0.692300  0.686500  0.020200  1.0
  C  C240  1  0.313500  0.307700  0.479800  1.0
  C  C241  1  0.251000  0.350800  0.991600  1.0
  C  C242  1  0.649200  0.749000  0.508400  1.0
  C  C243  1  0.749000  0.649200  0.008400  1.0
  C  C244  1  0.350800  0.251000  0.491600  1.0
  C  C245  1  0.183100  0.330100  0.099100  1.0
  C  C246  1  0.669900  0.816900  0.400900  1.0
  C  C247  1  0.816900  0.669900  0.900900  1.0
  C  C248  1  0.330100  0.183100  0.599100  1.0
  F  F249  1  0.855900  0.056500  0.703800  1
  F  F250  1  0.943500  0.144100  0.796200  1
  F  F251  1  0.144100  0.943500  0.296200  1
  F  F252  1  0.056500  0.855900  0.203800  1
  F  F253  1  0.780000  0.038600  0.673900  1
  F  F254  1  0.961400  0.220000  0.826100  1
  F  F255  1  0.220000  0.961400  0.326100  1
  F  F256  1  0.038600  0.780000  0.173900  1
  F  F257  1  0.766100  0.013500  0.771000  1
  F  F258  1  0.986500  0.233900  0.729000  1
  F  F259  1  0.233900  0.986500  0.229000  1
  F  F260  1  0.013500  0.766100  0.271000  1
  F  F261  1  0.891500  0.842700  0.619600  1
  F  F262  1  0.157300  0.108500  0.880400  1
  F  F263  1  0.108500  0.157300  0.380400  1
  F  F264  1  0.842700  0.891500  0.119600  1
  F  F265  1  0.978300  0.894300  0.553300  1
  F  F266  1  0.105700  0.021700  0.946700  1
  F  F267  1  0.021700  0.105700  0.446700  1
  F  F268  1  0.894300  0.978300  0.053300  1
  F  F269  1  0.909000  0.878000  0.518900  1
  F  F270  1  0.122000  0.091000  0.981100  1
  F  F271  1  0.091000  0.122000  0.481100  1
  F  F272  1  0.878000  0.909000  0.018900  1
  H  H273  1  0.748000  0.673000  0.613300  1.0
  H  H274  1  0.327000  0.252000  0.886700  1.0
  H  H275  1  0.252000  0.327000  0.386700  1.0
  H  H276  1  0.673000  0.748000  0.113300  1.0
  H  H277  1  0.692600  0.718000  0.609500  1.0
  H  H278  1  0.282000  0.307400  0.890500  1.0
  H  H279  1  0.307400  0.282000  0.390500  1.0
  H  H280  1  0.718000  0.692600  0.109500  1.0
  H  H281  1  0.770900  0.770300  0.626400  1.0
  H  H282  1  0.229700  0.229100  0.873600  1.0
  H  H283  1  0.229100  0.229700  0.373600  1.0
  H  H284  1  0.770300  0.770900  0.126400  1.0
  H  H285  1  0.823800  0.761000  0.565900  1.0
  H  H286  1  0.239000  0.176200  0.934100  1.0
  H  H287  1  0.176200  0.239000  0.434100  1.0
  H  H288  1  0.761000  0.823800  0.065900  1.0
  H  H289  1  0.738900  0.858700  0.607400  1.0
  H  H290  1  0.141300  0.261100  0.892600  1.0
  H  H291  1  0.261100  0.141300  0.392600  1.0
  H  H292  1  0.858700  0.738900  0.107400  1.0
  H  H293  1  0.699300  0.970500  0.589600  1.0
  H  H294  1  0.029500  0.300700  0.910400  1.0
  H  H295  1  0.300700  0.029500  0.410400  1.0
  H  H296  1  0.970500  0.699300  0.089600  1.0
  H  H297  1  0.666800  0.057000  0.524100  1.0
  H  H298  1  0.943000  0.333200  0.975900  1.0
  H  H299  1  0.333200  0.943000  0.475900  1.0
  H  H300  1  0.057000  0.666800  0.024100  1.0
  H  H301  1  0.711400  0.976400  0.388300  1.0
  H  H302  1  0.023600  0.288600  0.111700  1.0
  H  H303  1  0.288600  0.023600  0.611700  1.0
  H  H304  1  0.976400  0.711400  0.888300  1.0
  H  H305  1  0.677100  0.144500  0.445600  1.0
  H  H306  1  0.855500  0.322900  0.054400  1.0
  H  H307  1  0.322900  0.855500  0.554400  1.0
  H  H308  1  0.144500  0.677100  0.945600  1.0
  H  H309  1  0.623300  0.218500  0.291000  1.0
  H  H310  1  0.781500  0.376700  0.209000  1.0
  H  H311  1  0.376700  0.781500  0.709000  1.0
  H  H312  1  0.218500  0.623300  0.791000  1.0
  H  H313  1  0.654900  0.034900  0.347300  1.0
  H  H314  1  0.965100  0.345100  0.152700  1.0
  H  H315  1  0.345100  0.965100  0.652700  1.0
  H  H316  1  0.034900  0.654900  0.847300  1.0
  H  H317  1  0.717300  0.236700  0.419400  1.0
  H  H318  1  0.763300  0.282700  0.080600  1.0
  H  H319  1  0.282700  0.763300  0.580600  1.0
  H  H320  1  0.236700  0.717300  0.919400  1.0
  H  H321  1  0.585200  0.288600  0.338500  1.0
  H  H322  1  0.711400  0.414800  0.161500  1.0
  H  H323  1  0.414800  0.711400  0.661500  1.0
  H  H324  1  0.288600  0.585200  0.838500  1.0
  H  H325  1  0.588000  0.384600  0.355100  1.0
  H  H326  1  0.615400  0.412000  0.144900  1.0
  H  H327  1  0.412000  0.615400  0.644900  1.0
  H  H328  1  0.384600  0.588000  0.855100  1.0
  H  H329  1  0.639100  0.457900  0.395300  1.0
  H  H330  1  0.542100  0.360900  0.104700  1.0
  H  H331  1  0.360900  0.542100  0.604700  1.0
  H  H332  1  0.457900  0.639100  0.895300  1.0
  H  H333  1  0.686400  0.525600  0.411100  1.0
  H  H334  1  0.474400  0.313600  0.088900  1.0
  H  H335  1  0.313600  0.474400  0.588900  1.0
  H  H336  1  0.525600  0.686400  0.911100  1.0
  H  H337  1  0.758200  0.517200  0.406600  1.0
  H  H338  1  0.482800  0.241800  0.093400  1.0
  H  H339  1  0.241800  0.482800  0.593400  1.0
  H  H340  1  0.517200  0.758200  0.906600  1.0
  H  H341  1  0.650700  0.476500  0.520600  1.0
  H  H342  1  0.523500  0.349300  0.979400  1.0
  H  H343  1  0.349300  0.523500  0.479400  1.0
  H  H344  1  0.476500  0.650700  0.020600  1.0
  H  H345  1  0.707200  0.526400  0.505700  1.0
  H  H346  1  0.473600  0.292800  0.994300  1.0
  H  H347  1  0.292800  0.473600  0.494300  1.0
  H  H348  1  0.526400  0.707200  0.005700  1.0
  H  H349  1  0.645200  0.208400  0.200600  1.0
  H  H350  1  0.791600  0.354800  0.299400  1.0
  H  H351  1  0.354800  0.791600  0.799400  1.0
  H  H352  1  0.208400  0.645200  0.700600  1.0
  H  H353  1  0.591900  0.025300  0.295600  1.0
  H  H354  1  0.974700  0.408100  0.204400  1.0
  H  H355  1  0.408100  0.974700  0.704400  1.0
  H  H356  1  0.025300  0.591900  0.795600  1.0
  H  H357  1  0.572700  0.017500  0.206600  1.0
  H  H358  1  0.982500  0.427300  0.293400  1.0
  H  H359  1  0.427300  0.982500  0.793400  1.0
  H  H360  1  0.017500  0.572700  0.706600  1.0
  H  H361  1  0.500700  0.188700  0.022100  1.0
  H  H362  1  0.811300  0.499300  0.477900  1.0
  H  H363  1  0.499300  0.811300  0.977900  1.0
  H  H364  1  0.188700  0.500700  0.522100  1.0
  H  H365  1  0.522700  0.200500  0.946800  1.0
  H  H366  1  0.799500  0.477300  0.553200  1.0
  H  H367  1  0.477300  0.799500  0.053200  1.0
  H  H368  1  0.200500  0.522700  0.446800  1.0
  H  H369  1  0.625900  0.173900  0.949200  1.0
  H  H370  1  0.826100  0.374100  0.550800  1.0
  H  H371  1  0.374100  0.826100  0.050800  1.0
  H  H372  1  0.173900  0.625900  0.449200  1.0
  H  H373  1  0.573800  0.115600  0.992700  1.0
  H  H374  1  0.884400  0.426200  0.507300  1.0
  H  H375  1  0.426200  0.884400  0.007300  1.0
  H  H376  1  0.115600  0.573800  0.492700  1.0
  H  H377  1  0.575900  0.073100  0.091900  1.0
  H  H378  1  0.926900  0.424100  0.408100  1.0
  H  H379  1  0.424100  0.926900  0.908100  1.0
  H  H380  1  0.073100  0.575900  0.591900  1.0
  H  H381  1  0.787800  0.639400  0.505200  1.0
  H  H382  1  0.360600  0.212200  0.994800  1.0
  H  H383  1  0.212200  0.360600  0.494800  1.0
  H  H384  1  0.639400  0.787800  0.005200  1.0
  H  H385  1  0.831900  0.684500  0.517600  1.0
  H  H386  1  0.315500  0.168100  0.982400  1.0
  H  H387  1  0.168100  0.315500  0.482400  1.0
  H  H388  1  0.684500  0.831900  0.017600  1.0
  H  H389  1  0.869300  0.703500  0.404000  1.0
  H  H390  1  0.296500  0.130700  0.096000  1.0
  H  H391  1  0.130700  0.296500  0.596000  1.0
  H  H392  1  0.703500  0.869300  0.904000  1.0
  H  H393  1  0.800000  0.716200  0.400700  1.0
  H  H394  1  0.283800  0.200000  0.099300  1.0
  H  H395  1  0.200000  0.283800  0.599300  1.0
  H  H396  1  0.716200  0.800000  0.900700  1.0
  H  H397  1  0.928000  0.786000  0.378100  1.0
  H  H398  1  0.214000  0.072000  0.121900  1.0
  H  H399  1  0.072000  0.214000  0.621900  1.0
  H  H400  1  0.786000  0.928000  0.878100  1.0
  H  H401  1  0.006200  0.883400  0.337600  1.0
  H  H402  1  0.116600  0.993800  0.162400  1.0
  H  H403  1  0.993800  0.116600  0.662400  1.0
  H  H404  1  0.883400  0.006200  0.837600  1.0
  H  H405  1  0.022500  0.986700  0.332700  1.0
  H  H406  1  0.013300  0.977500  0.167300  1.0
  H  H407  1  0.977500  0.013300  0.667300  1.0
  H  H408  1  0.986700  0.022500  0.832700  1.0
  H  H409  1  0.836500  0.985300  0.418600  1.0
  H  H410  1  0.014700  0.163500  0.081400  1.0
  H  H411  1  0.163500  0.014700  0.581400  1.0
  H  H412  1  0.985300  0.836500  0.918600  1.0
  H  H413  1  0.015800  0.090200  0.289800  1.0
  H  H414  1  0.909800  0.984200  0.210200  1.0
  H  H415  1  0.984200  0.909800  0.710200  1.0
  H  H416  1  0.090200  0.015800  0.789800  1.0
  H  H417  1  0.949700  0.234500  0.350700  1.0
  H  H418  1  0.765500  0.050300  0.149300  1.0
  H  H419  1  0.050300  0.765500  0.649300  1.0
  H  H420  1  0.234500  0.949700  0.850700  1.0
  H  H421  1  0.859200  0.060200  0.444900  1.0
  H  H422  1  0.939800  0.140800  0.055100  1.0
  H  H423  1  0.140800  0.939800  0.555100  1.0
  H  H424  1  0.060200  0.859200  0.944900  1.0
  H  H425  1  0.856800  0.260400  0.389600  1.0
  H  H426  1  0.739600  0.143200  0.110400  1.0
  H  H427  1  0.143200  0.739600  0.610400  1.0
  H  H428  1  0.260400  0.856800  0.889600  1.0
  H  H429  1  0.825100  0.094300  0.530200  1.0
  H  H430  1  0.905700  0.174900  0.969800  1.0
  H  H431  1  0.174900  0.905700  0.469800  1.0
  H  H432  1  0.094300  0.825100  0.030200  1.0
  H  H433  1  0.745900  0.136100  0.595100  1.0
  H  H434  1  0.863900  0.254100  0.904900  1.0
  H  H435  1  0.254100  0.863900  0.404900  1.0
  H  H436  1  0.136100  0.745900  0.095100  1.0
  H  H437  1  0.691300  0.229700  0.611200  1.0
  H  H438  1  0.770300  0.308700  0.888800  1.0
  H  H439  1  0.308700  0.770300  0.388800  1.0
  H  H440  1  0.229700  0.691300  0.111200  1.0
  H  H441  1  0.633400  0.360400  0.565400  1.0
  H  H442  1  0.639600  0.366600  0.934600  1.0
  H  H443  1  0.366600  0.639600  0.434600  1.0
  H  H444  1  0.360400  0.633400  0.065400  1.0
  H  H445  1  0.644200  0.313400  0.627600  1.0
  H  H446  1  0.686600  0.355800  0.872400  1.0
  H  H447  1  0.355800  0.686600  0.372400  1.0
  H  H448  1  0.313400  0.644200  0.127600  1.0
  H  H449  1  0.662400  0.418000  0.612800  1.0
  H  H450  1  0.582000  0.337600  0.887200  1.0
  H  H451  1  0.337600  0.582000  0.387200  1.0
  H  H452  1  0.418000  0.662400  0.112800  1.0
  H  H453  1  0.721200  0.378200  0.618800  1.0
  H  H454  1  0.621800  0.278800  0.881200  1.0
  H  H455  1  0.278800  0.621800  0.381200  1.0
  H  H456  1  0.378200  0.721200  0.118800  1.0
  H  H457  1  0.055300  0.163100  0.199200  1.0
  H  H458  1  0.836900  0.944700  0.300800  1.0
  H  H459  1  0.944700  0.836900  0.800800  1.0
  H  H460  1  0.163100  0.055300  0.699200  1.0
  H  H461  1  0.043500  0.279300  0.298200  1.0
  H  H462  1  0.720700  0.956500  0.201800  1.0
  H  H463  1  0.956500  0.720700  0.701800  1.0
  H  H464  1  0.279300  0.043500  0.798200  1.0
  H  H465  1  0.126600  0.344800  0.212700  1.0
  H  H466  1  0.655200  0.873400  0.287300  1.0
  H  H467  1  0.873400  0.655200  0.787300  1.0
  H  H468  1  0.344800  0.126600  0.712700  1.0
  H  H469  1  0.341600  0.338200  0.940400  1.0
  H  H470  1  0.661800  0.658400  0.559600  1.0
  H  H471  1  0.658400  0.661800  0.059600  1.0
  H  H472  1  0.338200  0.341600  0.440400  1.0
  H  H473  1  0.323700  0.303300  0.015800  1.0
  H  H474  1  0.696700  0.676300  0.484200  1.0
  H  H475  1  0.676300  0.696700  0.984200  1.0
  H  H476  1  0.303300  0.323700  0.515800  1.0
  H  H477  1  0.263300  0.390700  0.994900  1.0
  H  H478  1  0.609300  0.736700  0.505100  1.0
  H  H479  1  0.736700  0.609300  0.005100  1.0
  H  H480  1  0.390700  0.263300  0.494900  1.0
  H  H481  1  0.235400  0.360800  0.955200  1.0
  H  H482  1  0.639200  0.764600  0.544800  1.0
  H  H483  1  0.764600  0.639200  0.044800  1.0
  H  H484  1  0.360800  0.235400  0.455200  1.0
  H  H485  1  0.201100  0.367300  0.099600  1.0
  H  H486  1  0.632700  0.798900  0.400400  1.0
  H  H487  1  0.798900  0.632700  0.900400  1.0
  H  H488  1  0.367300  0.201100  0.599600  1.0
  N  N489  1  0.893200  0.959200  0.643600  1
  N  N490  1  0.040800  0.106800  0.856400  1
  N  N491  1  0.106800  0.040800  0.356400  1
  N  N492  1  0.959200  0.893200  0.143600  1
  N  N493  1  0.764200  0.824600  0.542200  1.0
  N  N494  1  0.175400  0.235800  0.957800  1.0
  N  N495  1  0.235800  0.175400  0.457800  1.0
  N  N496  1  0.824600  0.764200  0.042200  1.0
  N  N497  1  0.723500  0.923100  0.468600  1.0
  N  N498  1  0.076900  0.276500  0.031400  1.0
  N  N499  1  0.276500  0.076900  0.531400  1.0
  N  N500  1  0.923100  0.723500  0.968600  1.0
  N  N501  1  0.695500  0.323100  0.413200  1.0
  N  N502  1  0.676900  0.304500  0.086800  1.0
  N  N503  1  0.304500  0.676900  0.586800  1.0
  N  N504  1  0.323100  0.695500  0.913200  1.0
  N  N505  1  0.709400  0.435800  0.421200  1.0
  N  N506  1  0.564200  0.290600  0.078800  1.0
  N  N507  1  0.290600  0.564200  0.578800  1.0
  N  N508  1  0.435800  0.709400  0.921200  1.0
  N  N509  1  0.619200  0.165800  0.150200  1.0
  N  N510  1  0.834200  0.380800  0.349800  1.0
  N  N511  1  0.380800  0.834200  0.849800  1.0
  N  N512  1  0.165800  0.619200  0.650200  1.0
  N  N513  1  0.601400  0.159000  0.045700  1.0
  N  N514  1  0.841000  0.398600  0.454300  1.0
  N  N515  1  0.398600  0.841000  0.954300  1.0
  N  N516  1  0.159000  0.601400  0.545700  1.0
  N  N517  1  0.839900  0.784700  0.417700  1.0
  N  N518  1  0.215300  0.160100  0.082300  1.0
  N  N519  1  0.160100  0.215300  0.582300  1.0
  N  N520  1  0.784700  0.839900  0.917700  1.0
  N  N521  1  0.861500  0.904300  0.406800  1.0
  N  N522  1  0.095700  0.138500  0.093200  1.0
  N  N523  1  0.138500  0.095700  0.593200  1.0
  N  N524  1  0.904300  0.861500  0.906800  1.0
  N  N525  1  0.795600  0.262200  0.471000  1.0
  N  N526  1  0.737800  0.204400  0.029000  1.0
  N  N527  1  0.204400  0.737800  0.529000  1.0
  N  N528  1  0.262200  0.795600  0.971000  1.0
  N  N529  1  0.708300  0.310700  0.545600  1.0
  N  N530  1  0.689300  0.291700  0.954400  1.0
  N  N531  1  0.291700  0.689300  0.454400  1.0
  N  N532  1  0.310700  0.708300  0.045600  1.0
  N  N533  1  0.114600  0.239200  0.150700  1.0
  N  N534  1  0.760800  0.885400  0.349300  1.0
  N  N535  1  0.885400  0.760800  0.849300  1.0
  N  N536  1  0.239200  0.114600  0.650700  1.0
  N  N537  1  0.202500  0.316500  0.048300  1.0
  N  N538  1  0.683500  0.797500  0.451700  1.0
  N  N539  1  0.797500  0.683500  0.951700  1.0
  N  N540  1  0.316500  0.202500  0.548300  1.0
  N  N541  1  0.744800  0.712400  0.526700  1.0
  N  N542  1  0.287600  0.255200  0.973300  1.0
  N  N543  1  0.255200  0.287600  0.473300  1.0
  N  N544  1  0.712400  0.744800  0.026700  1.0
  N  N545  1  0.731300  0.433300  0.532300  1.0
  N  N546  1  0.566700  0.268700  0.967700  1.0
  N  N547  1  0.268700  0.566700  0.467700  1.0
  N  N548  1  0.433300  0.731300  0.032300  1.0
  O  O549  1  0.860000  0.916800  0.757800  1
  O  O550  1  0.083200  0.140000  0.742200  1
  O  O551  1  0.140000  0.083200  0.242200  1
  O  O552  1  0.916800  0.860000  0.257800  1
  O  O553  1  0.780300  0.912900  0.701500  1
  O  O554  1  0.087100  0.219700  0.798500  1
  O  O555  1  0.219700  0.087100  0.298500  1
  O  O556  1  0.912900  0.780300  0.201500  1
  O  O557  1  0.951600  0.005800  0.531600  1
  O  O558  1  0.994200  0.048400  0.968400  1
  O  O559  1  0.048400  0.994200  0.468400  1
  O  O560  1  0.005800  0.951600  0.031600  1
  O  O561  1  0.845800  0.972800  0.549700  1
  O  O562  1  0.027200  0.154200  0.950300  1
  O  O563  1  0.154200  0.027200  0.450300  1
  O  O564  1  0.972800  0.845800  0.049700  1
  S  S565  1  0.832300  0.938500  0.710400  1
  S  S566  1  0.061500  0.167700  0.789600  1
  S  S567  1  0.167700  0.061500  0.289600  1
  S  S568  1  0.938500  0.832300  0.210400  1
  S  S569  1  0.895800  0.964200  0.573600  1
  S  S570  1  0.035800  0.104200  0.926400  1
  S  S571  1  0.104200  0.035800  0.426400  1
  S  S572  1  0.964200  0.895800  0.073600  1
  Zn  Zn573  1  0.769840  0.841420  0.446600  1.0
  Zn  Zn574  1  0.158580  0.230160  0.053400  1.0
  Zn  Zn575  1  0.230160  0.158580  0.553400  1.0
  Zn  Zn576  1  0.841420  0.769840  0.946600  1.0
  Zn  Zn577  1  0.761200  0.360320  0.449170  1.0
  Zn  Zn578  1  0.639680  0.238800  0.050830  1.0
  Zn  Zn579  1  0.238800  0.639680  0.550830  1.0
  Zn  Zn580  1  0.360320  0.761200  0.949170  1.0
