# generated using pymatgen
data_Zr2P2H78C52O11
_symmetry_space_group_name_H-M   'P 1'
_cell_length_a   9.94400000
_cell_length_b   22.09600000
_cell_length_c   25.87800000
_cell_angle_alpha   90.00000000
_cell_angle_beta   96.47200000
_cell_angle_gamma   90.00000000
_symmetry_Int_Tables_number   1
_chemical_formula_structural   Zr2P2H78C52O11
_chemical_formula_sum   'Zr8 P8 H312 C208 O44'
_cell_volume   5649.74563314
_cell_formula_units_Z   4
loop_
 _symmetry_equiv_pos_site_id
 _symmetry_equiv_pos_as_xyz
  1  'x, y, z'
loop_
 _atom_site_type_symbol
 _atom_site_label
 _atom_site_symmetry_multiplicity
 _atom_site_fract_x
 _atom_site_fract_y
 _atom_site_fract_z
 _atom_site_occupancy
  Zr  Zr1  1  0.868050  0.819794  0.234639  1
  Zr  Zr2  1  0.631950  0.319794  0.265361  1
  Zr  Zr3  1  0.131950  0.180206  0.765361  1
  Zr  Zr4  1  0.368050  0.680206  0.734639  1
  Zr  Zr5  1  0.949400  0.829664  0.371201  1
  Zr  Zr6  1  0.550600  0.329664  0.128799  1
  Zr  Zr7  1  0.050600  0.170336  0.628799  1
  Zr  Zr8  1  0.449400  0.670336  0.871201  1
  P  P9  1  0.861940  0.697120  0.309920  1
  P  P10  1  0.638060  0.197120  0.190080  1
  P  P11  1  0.138060  0.302880  0.690080  1
  P  P12  1  0.361940  0.802880  0.809920  1
  P  P13  1  0.031490  0.981070  0.351610  1
  P  P14  1  0.468510  0.481070  0.148390  1
  P  P15  1  0.968510  0.018930  0.648390  1
  P  P16  1  0.531490  0.518930  0.851610  1
  H  H17  1  0.932600  0.982200  0.282300  1
  H  H18  1  0.567400  0.482200  0.217700  1
  H  H19  1  0.067400  0.017800  0.717700  1
  H  H20  1  0.432600  0.517800  0.782300  1
  H  H21  1  0.551300  0.731100  0.162700  1
  H  H22  1  0.948700  0.231100  0.337300  1
  H  H23  1  0.448700  0.268900  0.837300  1
  H  H24  1  0.051300  0.768900  0.662700  1
  H  H25  1  0.561200  0.767300  0.109700  1
  H  H26  1  0.938800  0.267300  0.390300  1
  H  H27  1  0.438800  0.232700  0.890300  1
  H  H28  1  0.061200  0.732700  0.609700  1
  H  H29  1  0.421900  0.766400  0.135100  1
  H  H30  1  0.078100  0.266400  0.364900  1
  H  H31  1  0.578100  0.233600  0.864900  1
  H  H32  1  0.921900  0.733600  0.635100  1
  H  H33  1  0.508700  0.811200  0.200900  1
  H  H34  1  0.991300  0.311200  0.299100  1
  H  H35  1  0.491300  0.188800  0.799100  1
  H  H36  1  0.008700  0.688800  0.700900  1
  H  H37  1  0.524300  0.904400  0.180200  1
  H  H38  1  0.975700  0.404400  0.319800  1
  H  H39  1  0.475700  0.095600  0.819800  1
  H  H40  1  0.024300  0.595600  0.680200  1
  H  H41  1  0.408000  0.871000  0.143000  1
  H  H42  1  0.092000  0.371000  0.357000  1
  H  H43  1  0.592000  0.129000  0.857000  1
  H  H44  1  0.908000  0.629000  0.643000  1
  H  H45  1  0.549000  0.887300  0.122000  1
  H  H46  1  0.951000  0.387300  0.378000  1
  H  H47  1  0.451000  0.112700  0.878000  1
  H  H48  1  0.049000  0.612700  0.622000  1
  H  H49  1  0.927700  0.847300  0.087700  1
  H  H50  1  0.572300  0.347300  0.412300  1
  H  H51  1  0.072300  0.152700  0.912300  1
  H  H52  1  0.427700  0.652700  0.587700  1
  H  H53  1  0.864200  0.780700  0.085200  1
  H  H54  1  0.635800  0.280700  0.414800  1
  H  H55  1  0.135800  0.219300  0.914800  1
  H  H56  1  0.364200  0.719300  0.585200  1
  H  H57  1  0.994400  0.795100  0.056200  1
  H  H58  1  0.505600  0.295100  0.443800  1
  H  H59  1  0.005600  0.204900  0.943800  1
  H  H60  1  0.494400  0.704900  0.556200  1
  H  H61  1  0.123000  0.811100  0.135100  1
  H  H62  1  0.377000  0.311100  0.364900  1
  H  H63  1  0.877000  0.188900  0.864900  1
  H  H64  1  0.623000  0.688900  0.635100  1
  H  H65  1  0.139300  0.713900  0.165600  1
  H  H66  1  0.360700  0.213900  0.334400  1
  H  H67  1  0.860700  0.286100  0.834400  1
  H  H68  1  0.639300  0.786100  0.665600  1
  H  H69  1  0.113200  0.711900  0.103500  1
  H  H70  1  0.386800  0.211900  0.396500  1
  H  H71  1  0.886800  0.288100  0.896500  1
  H  H72  1  0.613200  0.788100  0.603500  1
  H  H73  1  0.992000  0.697900  0.137500  1
  H  H74  1  0.508000  0.197900  0.362500  1
  H  H75  1  0.008000  0.302100  0.862500  1
  H  H76  1  0.492000  0.802100  0.637500  1
  H  H77  1  0.691500  0.989400  0.200800  1
  H  H78  1  0.808500  0.489400  0.299200  1
  H  H79  1  0.308500  0.010600  0.799200  1
  H  H80  1  0.191500  0.510600  0.700800  1
  H  H81  1  0.749100  0.026100  0.154800  1
  H  H82  1  0.750900  0.526100  0.345200  1
  H  H83  1  0.250900  0.973900  0.845200  1
  H  H84  1  0.249100  0.473900  0.654800  1
  H  H85  1  0.822600  0.031200  0.212900  1
  H  H86  1  0.677400  0.531200  0.287100  1
  H  H87  1  0.177400  0.968800  0.787100  1
  H  H88  1  0.322600  0.468800  0.712900  1
  H  H89  1  0.811800  0.924400  0.150900  1
  H  H90  1  0.688200  0.424400  0.349100  1
  H  H91  1  0.188200  0.075600  0.849100  1
  H  H92  1  0.311800  0.575600  0.650900  1
  H  H93  1  0.046600  0.934200  0.151800  1
  H  H94  1  0.453400  0.434200  0.348200  1
  H  H95  1  0.953400  0.065800  0.848200  1
  H  H96  1  0.546600  0.565800  0.651800  1
  H  H97  1  0.044100  0.996200  0.183600  1
  H  H98  1  0.455900  0.496200  0.316400  1
  H  H99  1  0.955900  0.003800  0.816400  1
  H  H100  1  0.544100  0.503800  0.683600  1
  H  H101  1  0.972900  0.992600  0.125100  1
  H  H102  1  0.527100  0.492600  0.374900  1
  H  H103  1  0.027100  0.007400  0.874900  1
  H  H104  1  0.472900  0.507400  0.625100  1
  H  H105  1  0.739600  0.923800  0.466100  1
  H  H106  1  0.760400  0.423800  0.033900  1
  H  H107  1  0.260400  0.076200  0.533900  1
  H  H108  1  0.239600  0.576200  0.966100  1
  H  H109  1  0.855900  0.902000  0.510000  1
  H  H110  1  0.644100  0.402000  0.990000  1
  H  H111  1  0.144100  0.098000  0.490000  1
  H  H112  1  0.355900  0.598000  0.010000  1
  H  H113  1  0.700200  0.893500  0.518500  1
  H  H114  1  0.799800  0.393500  0.981500  1
  H  H115  1  0.299800  0.106500  0.481500  1
  H  H116  1  0.200200  0.606500  0.018500  1
  H  H117  1  0.671100  0.837600  0.451400  1
  H  H118  1  0.828900  0.337600  0.048600  1
  H  H119  1  0.328900  0.162400  0.548600  1
  H  H120  1  0.171100  0.662400  0.951400  1
  H  H121  1  0.718900  0.749800  0.472300  1
  H  H122  1  0.781100  0.249800  0.027700  1
  H  H123  1  0.281100  0.250200  0.527700  1
  H  H124  1  0.218900  0.750200  0.972300  1
  H  H125  1  0.700500  0.785600  0.524700  1
  H  H126  1  0.799500  0.285600  0.975300  1
  H  H127  1  0.299500  0.214400  0.475300  1
  H  H128  1  0.200500  0.714400  0.024700  1
  H  H129  1  0.848900  0.768400  0.511200  1
  H  H130  1  0.651100  0.268400  0.988800  1
  H  H131  1  0.151100  0.231600  0.488800  1
  H  H132  1  0.348900  0.731600  0.011200  1
  H  H133  1  0.377200  0.801000  0.417000  1
  H  H134  1  0.122800  0.301000  0.083000  1
  H  H135  1  0.622800  0.199000  0.583000  1
  H  H136  1  0.877200  0.699000  0.917000  1
  H  H137  1  0.402700  0.748400  0.459500  1
  H  H138  1  0.097300  0.248400  0.040500  1
  H  H139  1  0.597300  0.251600  0.540500  1
  H  H140  1  0.902700  0.751600  0.959500  1
  H  H141  1  0.344000  0.812500  0.475300  1
  H  H142  1  0.156000  0.312500  0.024700  1
  H  H143  1  0.656000  0.187500  0.524700  1
  H  H144  1  0.844000  0.687500  0.975300  1
  H  H145  1  0.208900  0.727600  0.406500  1
  H  H146  1  0.291100  0.227600  0.093500  1
  H  H147  1  0.791100  0.272400  0.593500  1
  H  H148  1  0.708900  0.772400  0.906500  1
  H  H149  1  0.048100  0.720400  0.465800  1
  H  H150  1  0.451900  0.220400  0.034200  1
  H  H151  1  0.951900  0.279600  0.534200  1
  H  H152  1  0.548100  0.779600  0.965800  1
  H  H153  1  0.141500  0.762100  0.505800  1
  H  H154  1  0.358500  0.262100  0.994200  1
  H  H155  1  0.858500  0.237900  0.494200  1
  H  H156  1  0.641500  0.737900  0.005800  1
  H  H157  1  0.193600  0.696700  0.490300  1
  H  H158  1  0.306400  0.196700  0.009700  1
  H  H159  1  0.806400  0.303300  0.509700  1
  H  H160  1  0.693600  0.803300  0.990300  1
  H  H161  1  0.502700  0.638700  0.408400  1
  H  H162  1  0.997300  0.138700  0.091600  1
  H  H163  1  0.497300  0.361300  0.591600  1
  H  H164  1  0.002700  0.861300  0.908400  1
  H  H165  1  0.723300  0.669900  0.397200  1
  H  H166  1  0.776700  0.169900  0.102800  1
  H  H167  1  0.276700  0.330100  0.602800  1
  H  H168  1  0.223300  0.830100  0.897200  1
  H  H169  1  0.347900  0.621800  0.336700  1
  H  H170  1  0.152100  0.121800  0.163300  1
  H  H171  1  0.652100  0.378200  0.663300  1
  H  H172  1  0.847900  0.878200  0.836700  1
  H  H173  1  0.404300  0.636200  0.253800  1
  H  H174  1  0.095700  0.136200  0.246200  1
  H  H175  1  0.595700  0.363800  0.746200  1
  H  H176  1  0.904300  0.863800  0.753800  1
  H  H177  1  0.622900  0.667900  0.241500  1
  H  H178  1  0.877100  0.167900  0.258500  1
  H  H179  1  0.377100  0.332100  0.758500  1
  H  H180  1  0.122900  0.832100  0.741500  1
  H  H181  1  0.004900  0.623200  0.387700  1
  H  H182  1  0.495100  0.123200  0.112300  1
  H  H183  1  0.995100  0.376800  0.612300  1
  H  H184  1  0.504900  0.876800  0.887700  1
  H  H185  1  0.135200  0.535800  0.387200  1
  H  H186  1  0.364800  0.035800  0.112800  1
  H  H187  1  0.864800  0.464200  0.612800  1
  H  H188  1  0.635200  0.964200  0.887200  1
  H  H189  1  0.175300  0.491800  0.309800  1
  H  H190  1  0.324700  0.991800  0.190200  1
  H  H191  1  0.824700  0.508200  0.690200  1
  H  H192  1  0.675300  0.008200  0.809800  1
  H  H193  1  0.088200  0.534600  0.231300  1
  H  H194  1  0.411800  0.034600  0.268700  1
  H  H195  1  0.911800  0.465400  0.768700  1
  H  H196  1  0.588200  0.965400  0.731300  1
  H  H197  1  0.956100  0.622300  0.230600  1
  H  H198  1  0.543900  0.122300  0.269400  1
  H  H199  1  0.043900  0.377700  0.769400  1
  H  H200  1  0.456100  0.877700  0.730600  1
  H  H201  1  0.230800  0.917700  0.419900  1
  H  H202  1  0.269200  0.417700  0.080100  1
  H  H203  1  0.769200  0.082300  0.580100  1
  H  H204  1  0.730800  0.582300  0.919900  1
  H  H205  1  0.455000  0.935700  0.453600  1
  H  H206  1  0.045000  0.435700  0.046400  1
  H  H207  1  0.545000  0.064300  0.546400  1
  H  H208  1  0.955000  0.564300  0.953600  1
  H  H209  1  0.562700  0.022200  0.431500  1
  H  H210  1  0.937300  0.522200  0.068500  1
  H  H211  1  0.437300  0.977800  0.568500  1
  H  H212  1  0.062700  0.477800  0.931500  1
  H  H213  1  0.450700  0.091800  0.375800  1
  H  H214  1  0.049300  0.591800  0.124200  1
  H  H215  1  0.549300  0.908200  0.624200  1
  H  H216  1  0.950700  0.408200  0.875800  1
  H  H217  1  0.226300  0.075000  0.341900  1
  H  H218  1  0.273700  0.575000  0.158100  1
  H  H219  1  0.773700  0.925000  0.658100  1
  H  H220  1  0.726300  0.425000  0.841900  1
  H  H221  1  0.973200  0.013000  0.454000  1
  H  H222  1  0.526800  0.513000  0.046000  1
  H  H223  1  0.026800  0.987000  0.546000  1
  H  H224  1  0.473200  0.487000  0.954000  1
  H  H225  1  0.844300  0.088300  0.488800  1
  H  H226  1  0.655700  0.588300  0.011200  1
  H  H227  1  0.155700  0.911700  0.511200  1
  H  H228  1  0.344300  0.411700  0.988800  1
  H  H229  1  0.722700  0.155500  0.433700  1
  H  H230  1  0.777300  0.655500  0.066300  1
  H  H231  1  0.277300  0.844500  0.566300  1
  H  H232  1  0.222700  0.344500  0.933700  1
  H  H233  1  0.728500  0.149700  0.344800  1
  H  H234  1  0.771500  0.649700  0.155200  1
  H  H235  1  0.271500  0.850300  0.655200  1
  H  H236  1  0.228500  0.350300  0.844800  1
  H  H237  1  0.861100  0.077300  0.310500  1
  H  H238  1  0.638900  0.577300  0.189500  1
  H  H239  1  0.138900  0.922700  0.689500  1
  H  H240  1  0.361100  0.422700  0.810500  1
  H  H241  1  0.561100  0.786300  0.315200  1
  H  H242  1  0.938900  0.286300  0.184800  1
  H  H243  1  0.438900  0.213700  0.684800  1
  H  H244  1  0.061100  0.713700  0.815200  1
  H  H245  1  0.475800  0.842100  0.333800  1
  H  H246  1  0.024200  0.342100  0.166200  1
  H  H247  1  0.524200  0.157900  0.666200  1
  H  H248  1  0.975800  0.657900  0.833800  1
  H  H249  1  0.605000  0.817700  0.370300  1
  H  H250  1  0.895000  0.317700  0.129700  1
  H  H251  1  0.395000  0.182300  0.629700  1
  H  H252  1  0.105000  0.682300  0.870300  1
  H  H253  1  0.613900  0.870400  0.272000  1
  H  H254  1  0.886100  0.370400  0.228000  1
  H  H255  1  0.386100  0.129600  0.728000  1
  H  H256  1  0.113900  0.629600  0.772000  1
  H  H257  1  0.718000  0.953400  0.308800  1
  H  H258  1  0.782000  0.453400  0.191200  1
  H  H259  1  0.282000  0.046600  0.691200  1
  H  H260  1  0.218000  0.546600  0.808800  1
  H  H261  1  0.694500  0.929000  0.365400  1
  H  H262  1  0.805500  0.429000  0.134600  1
  H  H263  1  0.305500  0.071000  0.634600  1
  H  H264  1  0.194500  0.571000  0.865400  1
  H  H265  1  0.567500  0.946100  0.324300  1
  H  H266  1  0.932500  0.446100  0.175700  1
  H  H267  1  0.432500  0.053900  0.675700  1
  H  H268  1  0.067500  0.553900  0.824300  1
  H  H269  1  0.188800  0.735300  0.309700  1
  H  H270  1  0.311200  0.235300  0.190300  1
  H  H271  1  0.811200  0.264700  0.690300  1
  H  H272  1  0.688800  0.764700  0.809700  1
  H  H273  1  0.316000  0.759500  0.282900  1
  H  H274  1  0.184000  0.259500  0.217100  1
  H  H275  1  0.684000  0.240500  0.717100  1
  H  H276  1  0.816000  0.740500  0.782900  1
  H  H277  1  0.173300  0.749700  0.248700  1
  H  H278  1  0.326700  0.249700  0.251300  1
  H  H279  1  0.826700  0.250300  0.751300  1
  H  H280  1  0.673300  0.750300  0.748700  1
  H  H281  1  0.224100  0.836800  0.328900  1
  H  H282  1  0.275900  0.336800  0.171100  1
  H  H283  1  0.775900  0.163200  0.671100  1
  H  H284  1  0.724100  0.663200  0.828900  1
  H  H285  1  0.193100  0.911300  0.264500  1
  H  H286  1  0.306900  0.411300  0.235500  1
  H  H287  1  0.806900  0.088700  0.735500  1
  H  H288  1  0.693100  0.588700  0.764500  1
  H  H289  1  0.182900  0.860100  0.220500  1
  H  H290  1  0.317100  0.360100  0.279500  1
  H  H291  1  0.817100  0.139900  0.779500  1
  H  H292  1  0.682900  0.639900  0.720500  1
  H  H293  1  0.321900  0.870100  0.257100  1
  H  H294  1  0.178100  0.370100  0.242900  1
  H  H295  1  0.678100  0.129900  0.742900  1
  H  H296  1  0.821900  0.629900  0.757100  1
  H  H297  1  0.893200  0.010000  0.945600  1
  H  H298  1  0.606800  0.510000  0.554400  1
  H  H299  1  0.106800  0.990000  0.054400  1
  H  H300  1  0.393200  0.490000  0.445600  1
  H  H301  1  0.852200  0.915000  0.980800  1
  H  H302  1  0.647800  0.415000  0.519200  1
  H  H303  1  0.147800  0.085000  0.019200  1
  H  H304  1  0.352200  0.585000  0.480800  1
  H  H305  1  0.695600  0.905400  0.041300  1
  H  H306  1  0.804400  0.405400  0.458700  1
  H  H307  1  0.304400  0.094600  0.958700  1
  H  H308  1  0.195600  0.594600  0.541300  1
  H  H309  1  0.579900  0.990700  0.066700  1
  H  H310  1  0.920100  0.490700  0.433300  1
  H  H311  1  0.420100  0.009300  0.933300  1
  H  H312  1  0.079900  0.509300  0.566700  1
  H  H313  1  0.620900  0.085600  0.031600  1
  H  H314  1  0.879100  0.585600  0.468400  1
  H  H315  1  0.379100  0.914400  0.968400  1
  H  H316  1  0.120900  0.414400  0.531600  1
  H  H317  1  0.871200  0.119500  0.984000  1
  H  H318  1  0.628800  0.619500  0.516000  1
  H  H319  1  0.128800  0.880500  0.016000  1
  H  H320  1  0.371200  0.380500  0.484000  1
  H  H321  1  0.714500  0.134000  0.986800  1
  H  H322  1  0.785500  0.634000  0.513200  1
  H  H323  1  0.285500  0.866000  0.013200  1
  H  H324  1  0.214500  0.366000  0.486800  1
  H  H325  1  0.763700  0.109400  0.933900  1
  H  H326  1  0.736300  0.609400  0.566100  1
  H  H327  1  0.236300  0.890600  0.066100  1
  H  H328  1  0.263700  0.390600  0.433900  1
  C  C329  1  0.520700  0.767100  0.142500  1
  C  C330  1  0.979300  0.267100  0.357500  1
  C  C331  1  0.479300  0.232900  0.857500  1
  C  C332  1  0.020700  0.732900  0.642500  1
  C  C333  1  0.559100  0.817300  0.170000  1
  C  C334  1  0.940900  0.317300  0.330000  1
  C  C335  1  0.440900  0.182700  0.830000  1
  C  C336  1  0.059100  0.682700  0.670000  1
  C  C337  1  0.506000  0.874400  0.152400  1
  C  C338  1  0.994000  0.374400  0.347600  1
  C  C339  1  0.494000  0.125600  0.847600  1
  C  C340  1  0.006000  0.625600  0.652400  1
  C  C341  1  0.948400  0.804000  0.086900  1
  C  C342  1  0.551600  0.304000  0.413100  1
  C  C343  1  0.051600  0.196000  0.913100  1
  C  C344  1  0.448400  0.696000  0.586900  1
  C  C345  1  0.037400  0.787200  0.134510  1
  C  C346  1  0.462600  0.287200  0.365490  1
  C  C347  1  0.962600  0.212800  0.865490  1
  C  C348  1  0.537400  0.712800  0.634510  1
  C  C349  1  0.073500  0.722200  0.135300  1
  C  C350  1  0.426500  0.222200  0.364700  1
  C  C351  1  0.926500  0.277800  0.864700  1
  C  C352  1  0.573500  0.777800  0.635300  1
  C  C353  1  0.773700  0.004100  0.187350  1
  C  C354  1  0.726300  0.504100  0.312650  1
  C  C355  1  0.226300  0.995900  0.812650  1
  C  C356  1  0.273700  0.495900  0.687350  1
  C  C357  1  0.862400  0.951270  0.177460  1
  C  C358  1  0.637600  0.451270  0.322540  1
  C  C359  1  0.137600  0.048730  0.822540  1
  C  C360  1  0.362400  0.548730  0.677460  1
  C  C361  1  0.992900  0.970200  0.157760  1
  C  C362  1  0.507100  0.470200  0.342240  1
  C  C363  1  0.007100  0.029800  0.842240  1
  C  C364  1  0.492900  0.529800  0.657760  1
  C  C365  1  0.765200  0.893100  0.492700  1
  C  C366  1  0.734800  0.393100  0.007300  1
  C  C367  1  0.234800  0.106900  0.507300  1
  C  C368  1  0.265200  0.606900  0.992700  1
  C  C369  1  0.765200  0.836900  0.469700  1
  C  C370  1  0.734800  0.336900  0.030300  1
  C  C371  1  0.234800  0.163100  0.530300  1
  C  C372  1  0.265200  0.663100  0.969700  1
  C  C373  1  0.757800  0.780800  0.496600  1
  C  C374  1  0.742200  0.280800  0.003400  1
  C  C375  1  0.242200  0.219200  0.503400  1
  C  C376  1  0.257800  0.719200  0.996600  1
  C  C377  1  0.343800  0.782400  0.447500  1
  C  C378  1  0.156200  0.282400  0.052500  1
  C  C379  1  0.656200  0.217600  0.552500  1
  C  C380  1  0.843800  0.717600  0.947500  1
  C  C381  1  0.204300  0.760000  0.433300  1
  C  C382  1  0.295700  0.260000  0.066700  1
  C  C383  1  0.795700  0.240000  0.566700  1
  C  C384  1  0.704300  0.740000  0.933300  1
  C  C385  1  0.141400  0.732400  0.477600  1
  C  C386  1  0.358600  0.232400  0.022400  1
  C  C387  1  0.858600  0.267600  0.522400  1
  C  C388  1  0.641400  0.767600  0.977600  1
  C  C389  1  0.694700  0.672020  0.318160  1
  C  C390  1  0.805300  0.172020  0.181840  1
  C  C391  1  0.305300  0.327980  0.681840  1
  C  C392  1  0.194700  0.827980  0.818160  1
  C  C393  1  0.528000  0.644600  0.374500  1
  C  C394  1  0.972000  0.144600  0.125500  1
  C  C395  1  0.472000  0.355400  0.625500  1
  C  C396  1  0.028000  0.855400  0.874500  1
  C  C397  1  0.658800  0.663200  0.367800  1
  C  C398  1  0.841200  0.163200  0.132200  1
  C  C399  1  0.341200  0.336800  0.632200  1
  C  C400  1  0.158800  0.836800  0.867800  1
  C  C401  1  0.436700  0.634800  0.331900  1
  C  C402  1  0.063300  0.134800  0.168100  1
  C  C403  1  0.563300  0.365200  0.668100  1
  C  C404  1  0.936700  0.865200  0.831900  1
  C  C405  1  0.469600  0.643200  0.282900  1
  C  C406  1  0.030400  0.143200  0.217100  1
  C  C407  1  0.530400  0.356800  0.717100  1
  C  C408  1  0.969600  0.856800  0.782900  1
  C  C409  1  0.599300  0.661940  0.275700  1
  C  C410  1  0.900700  0.161940  0.224300  1
  C  C411  1  0.400700  0.338060  0.724300  1
  C  C412  1  0.099300  0.838060  0.775700  1
  C  C413  1  0.966400  0.631510  0.309250  1
  C  C414  1  0.533600  0.131510  0.190750  1
  C  C415  1  0.033600  0.368490  0.690750  1
  C  C416  1  0.466400  0.868490  0.809250  1
  C  C417  1  0.020900  0.605400  0.355520  1
  C  C418  1  0.479100  0.105400  0.144480  1
  C  C419  1  0.979100  0.394600  0.644480  1
  C  C420  1  0.520900  0.894600  0.855520  1
  C  C421  1  0.098400  0.553400  0.355200  1
  C  C422  1  0.401600  0.053400  0.144800  1
  C  C423  1  0.901600  0.446600  0.644800  1
  C  C424  1  0.598400  0.946600  0.855200  1
  C  C425  1  0.122300  0.527600  0.309600  1
  C  C426  1  0.377700  0.027600  0.190400  1
  C  C427  1  0.877700  0.472400  0.690400  1
  C  C428  1  0.622300  0.972400  0.809600  1
  C  C429  1  0.070600  0.552700  0.263100  1
  C  C430  1  0.429400  0.052700  0.236900  1
  C  C431  1  0.929400  0.447300  0.736900  1
  C  C432  1  0.570600  0.947300  0.763100  1
  C  C433  1  0.992200  0.604800  0.262710  1
  C  C434  1  0.507800  0.104800  0.237290  1
  C  C435  1  0.007800  0.395200  0.737290  1
  C  C436  1  0.492200  0.895200  0.762710  1
  C  C437  1  0.204700  0.994850  0.377490  1
  C  C438  1  0.295300  0.494850  0.122510  1
  C  C439  1  0.795300  0.005150  0.622510  1
  C  C440  1  0.704700  0.505150  0.877490  1
  C  C441  1  0.274700  0.953700  0.410680  1
  C  C442  1  0.225300  0.453700  0.089320  1
  C  C443  1  0.725300  0.046300  0.589320  1
  C  C444  1  0.774700  0.546300  0.910680  1
  C  C445  1  0.408300  0.964200  0.430800  1
  C  C446  1  0.091700  0.464200  0.069200  1
  C  C447  1  0.591700  0.035800  0.569200  1
  C  C448  1  0.908300  0.535800  0.930800  1
  C  C449  1  0.471400  0.015000  0.417700  1
  C  C450  1  0.028600  0.515000  0.082300  1
  C  C451  1  0.528600  0.985000  0.582300  1
  C  C452  1  0.971400  0.485000  0.917700  1
  C  C453  1  0.405400  0.056200  0.384900  1
  C  C454  1  0.094600  0.556200  0.115100  1
  C  C455  1  0.594600  0.943800  0.615100  1
  C  C456  1  0.905400  0.443800  0.884900  1
  C  C457  1  0.271800  0.046100  0.364780  1
  C  C458  1  0.228200  0.546100  0.135220  1
  C  C459  1  0.728200  0.953900  0.635220  1
  C  C460  1  0.771800  0.453900  0.864780  1
  C  C461  1  0.931700  0.038140  0.378990  1
  C  C462  1  0.568300  0.538140  0.121010  1
  C  C463  1  0.068300  0.961860  0.621010  1
  C  C464  1  0.431700  0.461860  0.878990  1
  C  C465  1  0.924600  0.041400  0.431530  1
  C  C466  1  0.575400  0.541400  0.068470  1
  C  C467  1  0.075400  0.958600  0.568470  1
  C  C468  1  0.424600  0.458600  0.931530  1
  C  C469  1  0.847200  0.085700  0.452300  1
  C  C470  1  0.652800  0.585700  0.047700  1
  C  C471  1  0.152800  0.914300  0.547700  1
  C  C472  1  0.347200  0.414300  0.952300  1
  C  C473  1  0.776100  0.125200  0.419700  1
  C  C474  1  0.723900  0.625200  0.080300  1
  C  C475  1  0.223900  0.874800  0.580300  1
  C  C476  1  0.276100  0.374800  0.919700  1
  C  C477  1  0.779800  0.122100  0.367200  1
  C  C478  1  0.720200  0.622100  0.132800  1
  C  C479  1  0.220200  0.877900  0.632800  1
  C  C480  1  0.279800  0.377900  0.867200  1
  C  C481  1  0.857800  0.079000  0.347040  1
  C  C482  1  0.642200  0.579000  0.152960  1
  C  C483  1  0.142200  0.921000  0.652960  1
  C  C484  1  0.357800  0.421000  0.847040  1
  C  C485  1  0.566600  0.824800  0.334210  1
  C  C486  1  0.933400  0.324800  0.165790  1
  C  C487  1  0.433400  0.175200  0.665790  1
  C  C488  1  0.066600  0.675200  0.834210  1
  C  C489  1  0.654600  0.867500  0.309020  1
  C  C490  1  0.845400  0.367500  0.190980  1
  C  C491  1  0.345400  0.132500  0.690980  1
  C  C492  1  0.154600  0.632500  0.809020  1
  C  C493  1  0.659000  0.928900  0.328500  1
  C  C494  1  0.841000  0.428900  0.171500  1
  C  C495  1  0.341000  0.071100  0.671500  1
  C  C496  1  0.159000  0.571100  0.828500  1
  C  C497  1  0.217600  0.762090  0.282810  1
  C  C498  1  0.282400  0.262090  0.217190  1
  C  C499  1  0.782400  0.237910  0.717190  1
  C  C500  1  0.717600  0.737910  0.782810  1
  C  C501  1  0.178800  0.825810  0.293720  1
  C  C502  1  0.321200  0.325810  0.206280  1
  C  C503  1  0.821200  0.174190  0.706280  1
  C  C504  1  0.678800  0.674190  0.793720  1
  C  C505  1  0.223000  0.870750  0.255640  1
  C  C506  1  0.277000  0.370750  0.244360  1
  C  C507  1  0.777000  0.129250  0.744360  1
  C  C508  1  0.723000  0.629250  0.755640  1
  C  C509  1  0.760900  0.056700  0.985300  1
  C  C510  1  0.739100  0.556700  0.514700  1
  C  C511  1  0.239100  0.943300  0.014700  1
  C  C512  1  0.260900  0.443300  0.485300  1
  C  C513  1  0.829600  0.006100  0.970200  1
  C  C514  1  0.670400  0.506100  0.529800  1
  C  C515  1  0.170400  0.993900  0.029800  1
  C  C516  1  0.329600  0.493900  0.470200  1
  C  C517  1  0.805200  0.949700  0.991100  1
  C  C518  1  0.694800  0.449700  0.508900  1
  C  C519  1  0.194800  0.050300  0.008900  1
  C  C520  1  0.305200  0.550300  0.491100  1
  C  C521  1  0.712200  0.943900  0.027000  1
  C  C522  1  0.787800  0.443900  0.473000  1
  C  C523  1  0.287800  0.056100  0.973000  1
  C  C524  1  0.212200  0.556100  0.527000  1
  C  C525  1  0.643500  0.994600  0.042100  1
  C  C526  1  0.856500  0.494600  0.457900  1
  C  C527  1  0.356500  0.005400  0.957900  1
  C  C528  1  0.143500  0.505400  0.542100  1
  C  C529  1  0.667900  0.051000  0.021300  1
  C  C530  1  0.832100  0.551000  0.478700  1
  C  C531  1  0.332100  0.949000  0.978700  1
  C  C532  1  0.167900  0.449000  0.521300  1
  C  C533  1  0.778300  0.107100  0.971900  1
  C  C534  1  0.721700  0.607100  0.528100  1
  C  C535  1  0.221700  0.892900  0.028100  1
  C  C536  1  0.278300  0.392900  0.471900  1
  O  O537  1  0.788200  0.842250  0.307110  1
  O  O538  1  0.711800  0.342250  0.192890  1
  O  O539  1  0.211800  0.157750  0.692890  1
  O  O540  1  0.288200  0.657750  0.807110  1
  O  O541  1  0.033900  0.829140  0.295690  1
  O  O542  1  0.466100  0.329140  0.204310  1
  O  O543  1  0.966100  0.170860  0.704310  1
  O  O544  1  0.533900  0.670860  0.795690  1
  O  O545  1  0.856800  0.727400  0.256930  1
  O  O546  1  0.643200  0.227400  0.243070  1
  O  O547  1  0.143200  0.272600  0.743070  1
  O  O548  1  0.356800  0.772600  0.756930  1
  O  O549  1  0.913800  0.734480  0.356620  1
  O  O550  1  0.586200  0.234480  0.143380  1
  O  O551  1  0.086200  0.265520  0.643380  1
  O  O552  1  0.413800  0.765520  0.856620  1
  O  O553  1  0.994300  0.921470  0.374990  1
  O  O554  1  0.505700  0.421470  0.125010  1
  O  O555  1  0.005700  0.078530  0.625010  1
  O  O556  1  0.494300  0.578530  0.874990  1
  O  O557  1  0.014500  0.986820  0.293590  1
  O  O558  1  0.485500  0.486820  0.206410  1
  O  O559  1  0.985500  0.013180  0.706410  1
  O  O560  1  0.514500  0.513180  0.793590  1
  O  O561  1  0.691400  0.820530  0.194510  1
  O  O562  1  0.808600  0.320530  0.305490  1
  O  O563  1  0.308600  0.179470  0.805490  1
  O  O564  1  0.191400  0.679470  0.694510  1
  O  O565  1  0.976300  0.802480  0.178870  1
  O  O566  1  0.523700  0.302480  0.321130  1
  O  O567  1  0.023700  0.197520  0.821130  1
  O  O568  1  0.476300  0.697520  0.678870  1
  O  O569  1  0.891900  0.917240  0.225380  1
  O  O570  1  0.608100  0.417240  0.274620  1
  O  O571  1  0.108100  0.082760  0.774620  1
  O  O572  1  0.391900  0.582760  0.725380  1
  O  O573  1  0.835300  0.832790  0.426390  1
  O  O574  1  0.664700  0.332790  0.073610  1
  O  O575  1  0.164700  0.167210  0.573610  1
  O  O576  1  0.335300  0.667210  0.926390  1
  O  O577  1  0.121200  0.806000  0.410290  1
  O  O578  1  0.378800  0.306000  0.089710  1
  O  O579  1  0.878800  0.194000  0.589710  1
  O  O580  1  0.621200  0.694000  0.910290  1
