# generated using pymatgen
data_Ga4H48C344N13O48
_symmetry_space_group_name_H-M   'P 1'
_cell_length_a   19.54801202
_cell_length_b   19.54801202
_cell_length_c   19.54801202
_cell_angle_alpha   109.47122063
_cell_angle_beta   109.47122063
_cell_angle_gamma   109.47122063
_symmetry_Int_Tables_number   1
_chemical_formula_structural   Ga4H48C344N13O48
_chemical_formula_sum   'Ga4 H48 C344 N13 O48'
_cell_volume   5750.23907124
_cell_formula_units_Z   1
loop_
 _symmetry_equiv_pos_site_id
 _symmetry_equiv_pos_as_xyz
  1  'x, y, z'
loop_
 _atom_site_type_symbol
 _atom_site_label
 _atom_site_symmetry_multiplicity
 _atom_site_fract_x
 _atom_site_fract_y
 _atom_site_fract_z
 _atom_site_occupancy
  C  C1  1  0.359000  0.011000  0.199000  1
  C  C2  1  0.641000  0.840000  0.652000  1
  C  C3  1  0.188000  0.989000  0.348000  1
  C  C4  1  0.812000  0.160000  0.801000  1
  C  C5  1  0.011000  0.199000  0.359000  1
  C  C6  1  0.840000  0.652000  0.641000  1
  C  C7  1  0.989000  0.348000  0.188000  1
  C  C8  1  0.160000  0.801000  0.812000  1
  C  C9  1  0.199000  0.359000  0.011000  1
  C  C10  1  0.652000  0.641000  0.840000  1
  C  C11  1  0.348000  0.188000  0.989000  1
  C  C12  1  0.801000  0.812000  0.160000  1
  C  C13  1  0.293100  0.913500  0.169400  1
  C  C14  1  0.706900  0.876300  0.620400  1
  C  C15  1  0.255900  0.086500  0.379600  1
  C  C16  1  0.744100  0.123700  0.830600  1
  C  C17  1  0.913500  0.169400  0.293100  1
  C  C18  1  0.876300  0.620400  0.706900  1
  C  C19  1  0.086500  0.379600  0.255900  1
  C  C20  1  0.123700  0.830600  0.744100  1
  C  C21  1  0.169400  0.293100  0.913500  1
  C  C22  1  0.620400  0.706900  0.876300  1
  C  C23  1  0.379600  0.255900  0.086500  1
  C  C24  1  0.830600  0.744100  0.123700  1
  C  C25  1  0.277500  0.103700  0.323000  1
  C  C26  1  0.722500  0.045500  0.826200  1
  C  C27  1  0.219300  0.896300  0.173800  1
  C  C28  1  0.780700  0.954500  0.677000  1
  C  C29  1  0.103700  0.323000  0.277500  1
  C  C30  1  0.045500  0.826200  0.722500  1
  C  C31  1  0.896300  0.173800  0.219300  1
  C  C32  1  0.954500  0.677000  0.780700  1
  C  C33  1  0.323000  0.277500  0.103700  1
  C  C34  1  0.826200  0.722500  0.045500  1
  C  C35  1  0.173800  0.219300  0.896300  1
  C  C36  1  0.677000  0.780700  0.954500  1
  C  C37  1  0.419100  0.921100  0.047400  1
  C  C38  1  0.580900  0.628300  0.502000  1
  C  C39  1  0.126300  0.078900  0.498000  1
  C  C40  1  0.873700  0.371700  0.952600  1
  C  C41  1  0.921100  0.047400  0.419100  1
  C  C42  1  0.628300  0.502000  0.580900  1
  C  C43  1  0.078900  0.498000  0.126300  1
  C  C44  1  0.371700  0.952600  0.873700  1
  C  C45  1  0.047400  0.419100  0.921100  1
  C  C46  1  0.502000  0.580900  0.628300  1
  C  C47  1  0.498000  0.126300  0.078900  1
  C  C48  1  0.952600  0.873700  0.371700  1
  C  C49  1  0.446700  0.919800  0.217700  1
  C  C50  1  0.553300  0.771000  0.473100  1
  C  C51  1  0.297900  0.080200  0.526900  1
  C  C52  1  0.702100  0.229000  0.782300  1
  C  C53  1  0.919800  0.217700  0.446700  1
  C  C54  1  0.771000  0.473100  0.553300  1
  C  C55  1  0.080200  0.526900  0.297900  1
  C  C56  1  0.229000  0.782300  0.702100  1
  C  C57  1  0.217700  0.446700  0.919800  1
  C  C58  1  0.473100  0.553300  0.771000  1
  C  C59  1  0.526900  0.297900  0.080200  1
  C  C60  1  0.782300  0.702100  0.229000  1
  C  C61  1  0.389400  0.909500  0.967300  1
  C  C62  1  0.610600  0.577900  0.520100  1
  C  C63  1  0.057800  0.090500  0.479900  1
  C  C64  1  0.942200  0.422100  0.032700  1
  C  C65  1  0.909500  0.967300  0.389400  1
  C  C66  1  0.577900  0.520100  0.610600  1
  C  C67  1  0.090500  0.479900  0.057800  1
  C  C68  1  0.422100  0.032700  0.942200  1
  C  C69  1  0.967300  0.389400  0.909500  1
  C  C70  1  0.520100  0.610600  0.577900  1
  C  C71  1  0.479900  0.057800  0.090500  1
  C  C72  1  0.032700  0.942200  0.422100  1
  C  C73  1  0.553600  0.745500  0.118100  1
  C  C74  1  0.446400  0.564500  0.191900  1
  C  C75  1  0.372600  0.254500  0.808100  1
  C  C76  1  0.627400  0.435500  0.881900  1
  C  C77  1  0.745500  0.118100  0.553600  1
  C  C78  1  0.564500  0.191900  0.446400  1
  C  C79  1  0.254500  0.808100  0.372600  1
  C  C80  1  0.435500  0.881900  0.627400  1
  C  C81  1  0.118100  0.553600  0.745500  1
  C  C82  1  0.191900  0.446400  0.564500  1
  C  C83  1  0.808100  0.372600  0.254500  1
  C  C84  1  0.881900  0.627400  0.435500  1
  C  C85  1  0.519200  0.770700  0.053100  1
  C  C86  1  0.480800  0.533900  0.251500  1
  C  C87  1  0.282400  0.229300  0.748500  1
  C  C88  1  0.717600  0.466100  0.946900  1
  C  C89  1  0.770700  0.053100  0.519200  1
  C  C90  1  0.533900  0.251500  0.480800  1
  C  C91  1  0.229300  0.748500  0.282400  1
  C  C92  1  0.466100  0.946900  0.717600  1
  C  C93  1  0.053100  0.519200  0.770700  1
  C  C94  1  0.251500  0.480800  0.533900  1
  C  C95  1  0.748500  0.282400  0.229300  1
  C  C96  1  0.946900  0.717600  0.466100  1
  C  C97  1  0.546400  0.785100  0.184900  1
  C  C98  1  0.453600  0.638500  0.238700  1
  C  C99  1  0.399800  0.214900  0.761300  1
  C  C100  1  0.600200  0.361500  0.815100  1
  C  C101  1  0.785100  0.184900  0.546400  1
  C  C102  1  0.638500  0.238700  0.453600  1
  C  C103  1  0.214900  0.761300  0.399800  1
  C  C104  1  0.361500  0.815100  0.600200  1
  C  C105  1  0.184900  0.546400  0.785100  1
  C  C106  1  0.238700  0.453600  0.638500  1
  C  C107  1  0.761300  0.399800  0.214900  1
  C  C108  1  0.815100  0.600200  0.361500  1
  C  C109  1  0.521900  0.840900  0.179200  1
  C  C110  1  0.478100  0.657300  0.319000  1
  C  C111  1  0.338300  0.159100  0.681000  1
  C  C112  1  0.661700  0.342700  0.820800  1
  C  C113  1  0.840900  0.179200  0.521900  1
  C  C114  1  0.657300  0.319000  0.478100  1
  C  C115  1  0.159100  0.681000  0.338300  1
  C  C116  1  0.342700  0.820800  0.661700  1
  C  C117  1  0.179200  0.521900  0.840900  1
  C  C118  1  0.319000  0.478100  0.657300  1
  C  C119  1  0.681000  0.338300  0.159100  1
  C  C120  1  0.820800  0.661700  0.342700  1
  C  C121  1  0.515600  0.830900  0.099900  1
  C  C122  1  0.484400  0.584300  0.315300  1
  C  C123  1  0.269000  0.169100  0.684700  1
  C  C124  1  0.731000  0.415700  0.900100  1
  C  C125  1  0.830900  0.099900  0.515600  1
  C  C126  1  0.584300  0.315300  0.484400  1
  C  C127  1  0.169100  0.684700  0.269000  1
  C  C128  1  0.415700  0.900100  0.731000  1
  C  C129  1  0.099900  0.515600  0.830900  1
  C  C130  1  0.315300  0.484400  0.584300  1
  C  C131  1  0.684700  0.269000  0.169100  1
  C  C132  1  0.900100  0.731000  0.415700  1
  C  C133  1  0.539000  0.674000  0.965000  1
  C  C134  1  0.461000  0.426000  0.135000  1
  C  C135  1  0.291000  0.326000  0.865000  1
  C  C136  1  0.709000  0.574000  0.035000  1
  C  C137  1  0.674000  0.965000  0.539000  1
  C  C138  1  0.426000  0.135000  0.461000  1
  C  C139  1  0.326000  0.865000  0.291000  1
  C  C140  1  0.574000  0.035000  0.709000  1
  C  C141  1  0.965000  0.539000  0.674000  1
  C  C142  1  0.135000  0.461000  0.426000  1
  C  C143  1  0.865000  0.291000  0.326000  1
  C  C144  1  0.035000  0.709000  0.574000  1
  C  C145  1  0.383200  0.919500  0.228900  1
  C  C146  1  0.616800  0.845700  0.536300  1
  C  C147  1  0.309400  0.080500  0.463700  1
  C  C148  1  0.690600  0.154300  0.771100  1
  C  C149  1  0.919500  0.228900  0.383200  1
  C  C150  1  0.845700  0.536300  0.616800  1
  C  C151  1  0.080500  0.463700  0.309400  1
  C  C152  1  0.154300  0.771100  0.690600  1
  C  C153  1  0.228900  0.383200  0.919500  1
  C  C154  1  0.536300  0.616800  0.845700  1
  C  C155  1  0.463700  0.309400  0.080500  1
  C  C156  1  0.771100  0.690600  0.154300  1
  C  C157  1  0.496900  0.881900  0.235000  1
  C  C158  1  0.503100  0.738100  0.385000  1
  C  C159  1  0.353100  0.118100  0.615000  1
  C  C160  1  0.646900  0.261900  0.765000  1
  C  C161  1  0.881900  0.235000  0.496900  1
  C  C162  1  0.738100  0.385000  0.503100  1
  C  C163  1  0.118100  0.615000  0.353100  1
  C  C164  1  0.261900  0.765000  0.646900  1
  C  C165  1  0.235000  0.496900  0.881900  1
  C  C166  1  0.385000  0.503100  0.738100  1
  C  C167  1  0.615000  0.353100  0.118100  1
  C  C168  1  0.765000  0.646900  0.261900  1
  C  C169  1  0.490900  0.892000  0.148900  1
  C  C170  1  0.509100  0.658000  0.401100  1
  C  C171  1  0.256900  0.108000  0.598900  1
  C  C172  1  0.743100  0.342000  0.851100  1
  C  C173  1  0.892000  0.148900  0.490900  1
  C  C174  1  0.658000  0.401100  0.509100  1
  C  C175  1  0.108000  0.598900  0.256900  1
  C  C176  1  0.342000  0.851100  0.743100  1
  C  C177  1  0.148900  0.490900  0.892000  1
  C  C178  1  0.401100  0.509100  0.658000  1
  C  C179  1  0.598900  0.256900  0.108000  1
  C  C180  1  0.851100  0.743100  0.342000  1
  C  C181  1  0.090400  0.000000  1.000000  1.0
  C  C182  1  0.909600  0.909600  0.909600  1.0
  C  C183  1  0.000000  0.000000  0.090400  1.0
  C  C184  1  0.000000  0.090400  1.000000  1.0
  C  C185  1  0.090200  0.090200  0.090200  1.0
  C  C186  1  0.909800  0.000000  0.000000  1.0
  C  C187  1  0.000000  0.909800  1.000000  1.0
  C  C188  1  0.000000  0.000000  0.909800  1.0
  C  C189  1  0.156900  0.085900  0.071200  1.0
  C  C190  1  0.843100  0.914300  0.929000  1.0
  C  C191  1  0.985300  0.914100  0.071000  1.0
  C  C192  1  0.014700  0.085700  0.928800  1.0
  C  C193  1  0.085900  0.071200  0.156900  1.0
  C  C194  1  0.914300  0.929000  0.843100  1.0
  C  C195  1  0.914100  0.071000  0.985300  1.0
  C  C196  1  0.085700  0.928800  0.014700  1.0
  C  C197  1  0.071200  0.156900  0.085900  1.0
  C  C198  1  0.929000  0.843100  0.914300  1.0
  C  C199  1  0.071000  0.985300  0.914100  1.0
  C  C200  1  0.928800  0.014700  0.085700  1.0
  C  C201  1  0.468700  0.323600  0.319500  1.0
  C  C202  1  0.531300  0.850800  0.854900  1.0
  C  C203  1  0.995900  0.676400  0.145100  1.0
  C  C204  1  0.004100  0.149200  0.680500  1.0
  C  C205  1  0.323600  0.319500  0.468700  1.0
  C  C206  1  0.850800  0.854900  0.531300  1.0
  C  C207  1  0.676400  0.145100  0.995900  1.0
  C  C208  1  0.149200  0.680500  0.004100  1.0
  C  C209  1  0.319500  0.468700  0.323600  1.0
  C  C210  1  0.854900  0.531300  0.850800  1.0
  C  C211  1  0.145100  0.995900  0.676400  1.0
  C  C212  1  0.680500  0.004100  0.149200  1.0
  C  C213  1  0.593300  0.437600  0.354500  1.0
  C  C214  1  0.406700  0.761200  0.844300  1.0
  C  C215  1  0.916900  0.562400  0.155700  1.0
  C  C216  1  0.083100  0.238800  0.645500  1.0
  C  C217  1  0.437600  0.354500  0.593300  1.0
  C  C218  1  0.761200  0.844300  0.406700  1.0
  C  C219  1  0.562400  0.155700  0.916900  1.0
  C  C220  1  0.238800  0.645500  0.083100  1.0
  C  C221  1  0.354500  0.593300  0.437600  1.0
  C  C222  1  0.844300  0.406700  0.761200  1.0
  C  C223  1  0.155700  0.916900  0.562400  1.0
  C  C224  1  0.645500  0.083100  0.238800  1.0
  C  C225  1  0.618000  0.384200  0.317800  1.0
  C  C226  1  0.382000  0.699800  0.766200  1.0
  C  C227  1  0.933600  0.615800  0.233800  1.0
  C  C228  1  0.066400  0.300200  0.682200  1.0
  C  C229  1  0.384200  0.317800  0.618000  1.0
  C  C230  1  0.699800  0.766200  0.382000  1.0
  C  C231  1  0.615800  0.233800  0.933600  1.0
  C  C232  1  0.300200  0.682200  0.066400  1.0
  C  C233  1  0.317800  0.618000  0.384200  1.0
  C  C234  1  0.766200  0.382000  0.699800  1.0
  C  C235  1  0.233800  0.933600  0.615800  1.0
  C  C236  1  0.682200  0.066400  0.300200  1.0
  C  C237  1  0.560900  0.298000  0.272900  1.0
  C  C238  1  0.439100  0.712000  0.737100  1.0
  C  C239  1  0.974900  0.702000  0.262900  1.0
  C  C240  1  0.025100  0.288000  0.727100  1.0
  C  C241  1  0.298000  0.272900  0.560900  1.0
  C  C242  1  0.712000  0.737100  0.439100  1.0
  C  C243  1  0.702000  0.262900  0.974900  1.0
  C  C244  1  0.288000  0.727100  0.025100  1.0
  C  C245  1  0.272900  0.560900  0.298000  1.0
  C  C246  1  0.737100  0.439100  0.712000  1.0
  C  C247  1  0.262900  0.974900  0.702000  1.0
  C  C248  1  0.727100  0.025100  0.288000  1.0
  C  C249  1  0.487200  0.270100  0.279100  1.0
  C  C250  1  0.512800  0.791900  0.782900  1.0
  C  C251  1  0.009000  0.729900  0.217100  1.0
  C  C252  1  0.991000  0.208100  0.720900  1.0
  C  C253  1  0.270100  0.279100  0.487200  1.0
  C  C254  1  0.791900  0.782900  0.512800  1.0
  C  C255  1  0.729900  0.217100  0.009000  1.0
  C  C256  1  0.208100  0.720900  0.991000  1.0
  C  C257  1  0.279100  0.487200  0.270100  1.0
  C  C258  1  0.782900  0.512800  0.791900  1.0
  C  C259  1  0.217100  0.009000  0.729900  1.0
  C  C260  1  0.720900  0.991000  0.208100  1.0
  C  C261  1  0.523900  0.409600  0.361500  1.0
  C  C262  1  0.476100  0.837600  0.885700  1.0
  C  C263  1  0.951900  0.590400  0.114300  1.0
  C  C264  1  0.048100  0.162400  0.638500  1.0
  C  C265  1  0.409600  0.361500  0.523900  1.0
  C  C266  1  0.837600  0.885700  0.476100  1.0
  C  C267  1  0.590400  0.114300  0.951900  1.0
  C  C268  1  0.162400  0.638500  0.048100  1.0
  C  C269  1  0.361500  0.523900  0.409600  1.0
  C  C270  1  0.885700  0.476100  0.837600  1.0
  C  C271  1  0.114300  0.951900  0.590400  1.0
  C  C272  1  0.638500  0.048100  0.162400  1.0
  C  C273  1  0.433700  0.174700  0.239600  1.0
  C  C274  1  0.566300  0.805900  0.741000  1.0
  C  C275  1  0.064900  0.825300  0.259000  1.0
  C  C276  1  0.935100  0.194100  0.760400  1.0
  C  C277  1  0.174700  0.239600  0.433700  1.0
  C  C278  1  0.805900  0.741000  0.566300  1.0
  C  C279  1  0.825300  0.259000  0.064900  1.0
  C  C280  1  0.194100  0.760400  0.935100  1.0
  C  C281  1  0.239600  0.433700  0.174700  1.0
  C  C282  1  0.741000  0.566300  0.805900  1.0
  C  C283  1  0.259000  0.064900  0.825300  1.0
  C  C284  1  0.760400  0.935100  0.194100  1.0
  C  C285  1  0.311300  0.067200  0.213900  1.0
  C  C286  1  0.688700  0.902600  0.755900  1.0
  C  C287  1  0.146700  0.932800  0.244100  1.0
  C  C288  1  0.853300  0.097400  0.786100  1.0
  C  C289  1  0.067200  0.213900  0.311300  1.0
  C  C290  1  0.902600  0.755900  0.688700  1.0
  C  C291  1  0.932800  0.244100  0.146700  1.0
  C  C292  1  0.097400  0.786100  0.853300  1.0
  C  C293  1  0.213900  0.311300  0.067200  1.0
  C  C294  1  0.755900  0.688700  0.902600  1.0
  C  C295  1  0.244100  0.146700  0.932800  1.0
  C  C296  1  0.786100  0.853300  0.097400  1.0
  C  C297  1  0.267600  0.000200  0.122600  1.0
  C  C298  1  0.732400  0.855000  0.732600  1.0
  C  C299  1  0.122400  0.999800  0.267400  1.0
  C  C300  1  0.877600  0.145000  0.877400  1.0
  C  C301  1  0.000200  0.122600  0.267600  1.0
  C  C302  1  0.855000  0.732600  0.732400  1.0
  C  C303  1  0.999800  0.267400  0.122400  1.0
  C  C304  1  0.145000  0.877400  0.877600  1.0
  C  C305  1  0.122600  0.267600  0.000200  1.0
  C  C306  1  0.732600  0.732400  0.855000  1.0
  C  C307  1  0.267400  0.122400  0.999800  1.0
  C  C308  1  0.877400  0.877600  0.145000  1.0
  C  C309  1  0.203900  0.920400  0.095900  1.0
  C  C310  1  0.796100  0.892000  0.716500  1.0
  C  C311  1  0.175500  0.079600  0.283500  1.0
  C  C312  1  0.824500  0.108000  0.904100  1.0
  C  C313  1  0.920400  0.095900  0.203900  1.0
  C  C314  1  0.892000  0.716500  0.796100  1.0
  C  C315  1  0.079600  0.283500  0.175500  1.0
  C  C316  1  0.108000  0.904100  0.824500  1.0
  C  C317  1  0.095900  0.203900  0.920400  1.0
  C  C318  1  0.716500  0.796100  0.892000  1.0
  C  C319  1  0.283500  0.175500  0.079600  1.0
  C  C320  1  0.904100  0.824500  0.108000  1.0
  C  C321  1  0.159700  0.890600  0.133900  1.0
  C  C322  1  0.840300  0.974200  0.730900  1.0
  C  C323  1  0.243300  0.109400  0.269100  1.0
  C  C324  1  0.756700  0.025800  0.866100  1.0
  C  C325  1  0.890600  0.133900  0.159700  1.0
  C  C326  1  0.974200  0.730900  0.840300  1.0
  C  C327  1  0.109400  0.269100  0.243300  1.0
  C  C328  1  0.025800  0.866100  0.756700  1.0
  C  C329  1  0.133900  0.159700  0.890600  1.0
  C  C330  1  0.730900  0.840300  0.974200  1.0
  C  C331  1  0.269100  0.243300  0.109400  1.0
  C  C332  1  0.866100  0.756700  0.025800  1.0
  C  C333  1  0.258700  0.041300  0.243400  1.0
  C  C334  1  0.741300  0.984700  0.782600  1.0
  C  C335  1  0.202100  0.958700  0.217400  1.0
  C  C336  1  0.797900  0.015300  0.756600  1.0
  C  C337  1  0.041300  0.243400  0.258700  1.0
  C  C338  1  0.984700  0.782600  0.741300  1.0
  C  C339  1  0.958700  0.217400  0.202100  1.0
  C  C340  1  0.015300  0.756600  0.797900  1.0
  C  C341  1  0.243400  0.258700  0.041300  1.0
  C  C342  1  0.782600  0.741300  0.984700  1.0
  C  C343  1  0.217400  0.202100  0.958700  1.0
  C  C344  1  0.756600  0.797900  0.015300  1.0
  Ga  Ga345  1  0.396700  0.396700  0.396700  1.0
  Ga  Ga346  1  0.603300  0.000000  0.000000  1.0
  Ga  Ga347  1  0.000000  0.603300  1.000000  1.0
  Ga  Ga348  1  0.000000  0.000000  0.603300  1.0
  H  H349  1  0.358500  0.185300  0.267600  1.0
  H  H350  1  0.641500  0.909100  0.826800  1.0
  H  H351  1  0.082300  0.814700  0.173200  1.0
  H  H352  1  0.917700  0.090900  0.732400  1.0
  H  H353  1  0.185300  0.267600  0.358500  1.0
  H  H354  1  0.909100  0.826800  0.641500  1.0
  H  H355  1  0.814700  0.173200  0.082300  1.0
  H  H356  1  0.090900  0.732400  0.917700  1.0
  H  H357  1  0.267600  0.358500  0.185300  1.0
  H  H358  1  0.826800  0.641500  0.909100  1.0
  H  H359  1  0.173200  0.082300  0.814700  1.0
  H  H360  1  0.732400  0.917700  0.090900  1.0
  H  H361  1  0.625300  0.494600  0.374900  1.0
  H  H362  1  0.374700  0.749600  0.869300  1.0
  H  H363  1  0.880300  0.505400  0.130700  1.0
  H  H364  1  0.119700  0.250400  0.625100  1.0
  H  H365  1  0.494600  0.374900  0.625300  1.0
  H  H366  1  0.749600  0.869300  0.374700  1.0
  H  H367  1  0.505400  0.130700  0.880300  1.0
  H  H368  1  0.250400  0.625100  0.119700  1.0
  H  H369  1  0.374900  0.625300  0.494600  1.0
  H  H370  1  0.869300  0.374700  0.749600  1.0
  H  H371  1  0.130700  0.880300  0.505400  1.0
  H  H372  1  0.625100  0.119700  0.250400  1.0
  H  H373  1  0.670700  0.404800  0.322700  1.0
  H  H374  1  0.329300  0.652000  0.734100  1.0
  H  H375  1  0.917900  0.595200  0.265900  1.0
  H  H376  1  0.082100  0.348000  0.677300  1.0
  H  H377  1  0.404800  0.322700  0.670700  1.0
  H  H378  1  0.652000  0.734100  0.329300  1.0
  H  H379  1  0.595200  0.265900  0.917900  1.0
  H  H380  1  0.348000  0.677300  0.082100  1.0
  H  H381  1  0.322700  0.670700  0.404800  1.0
  H  H382  1  0.734100  0.329300  0.652000  1.0
  H  H383  1  0.265900  0.917900  0.595200  1.0
  H  H384  1  0.677300  0.082100  0.348000  1.0
  H  H385  1  0.570800  0.260000  0.240000  1.0
  H  H386  1  0.429200  0.669200  0.689200  1.0
  H  H387  1  0.980000  0.740000  0.310800  1.0
  H  H388  1  0.020000  0.330800  0.760000  1.0
  H  H389  1  0.260000  0.240000  0.570800  1.0
  H  H390  1  0.669200  0.689200  0.429200  1.0
  H  H391  1  0.740000  0.310800  0.980000  1.0
  H  H392  1  0.330800  0.760000  0.020000  1.0
  H  H393  1  0.240000  0.570800  0.260000  1.0
  H  H394  1  0.689200  0.429200  0.669200  1.0
  H  H395  1  0.310800  0.980000  0.740000  1.0
  H  H396  1  0.760000  0.020000  0.330800  1.0
  N  N397  1  0.000000  0.000000  0.000000  1
  N  N398  1  0.368900  0.147700  0.243000  1.0
  N  N399  1  0.631100  0.874100  0.778800  1.0
  N  N400  1  0.095300  0.852300  0.221200  1.0
  N  N401  1  0.904700  0.125900  0.757000  1.0
  N  N402  1  0.147700  0.243000  0.368900  1.0
  N  N403  1  0.874100  0.778800  0.631100  1.0
  N  N404  1  0.852300  0.221200  0.095300  1.0
  N  N405  1  0.125900  0.757000  0.904700  1.0
  N  N406  1  0.243000  0.368900  0.147700  1.0
  N  N407  1  0.778800  0.631100  0.874100  1.0
  N  N408  1  0.221200  0.095300  0.852300  1.0
  N  N409  1  0.757000  0.904700  0.125900  1.0
  O  O410  1  0.460900  0.126200  0.210500  1
  O  O411  1  0.539100  0.749600  0.665300  1
  O  O412  1  0.084300  0.873800  0.334700  1
  O  O413  1  0.915700  0.250400  0.789500  1
  O  O414  1  0.126200  0.210500  0.460900  1
  O  O415  1  0.749600  0.665300  0.539100  1
  O  O416  1  0.873800  0.334700  0.084300  1
  O  O417  1  0.250400  0.789500  0.915700  1
  O  O418  1  0.210500  0.460900  0.126200  1
  O  O419  1  0.665300  0.539100  0.749600  1
  O  O420  1  0.334700  0.084300  0.873800  1
  O  O421  1  0.789500  0.915700  0.250400  1
  O  O422  1  0.398300  0.300900  0.324000  1.0
  O  O423  1  0.601700  0.925700  0.902600  1.0
  O  O424  1  0.023100  0.699100  0.097400  1.0
  O  O425  1  0.976900  0.074300  0.676000  1.0
  O  O426  1  0.300900  0.324000  0.398300  1.0
  O  O427  1  0.925700  0.902600  0.601700  1.0
  O  O428  1  0.699100  0.097400  0.023100  1.0
  O  O429  1  0.074300  0.676000  0.976900  1.0
  O  O430  1  0.324000  0.398300  0.300900  1.0
  O  O431  1  0.902600  0.601700  0.925700  1.0
  O  O432  1  0.097400  0.023100  0.699100  1.0
  O  O433  1  0.676000  0.976900  0.074300  1.0
  O  O434  1  0.500300  0.460800  0.399700  1.0
  O  O435  1  0.499700  0.899400  0.960500  1.0
  O  O436  1  0.938900  0.539200  0.039500  1.0
  O  O437  1  0.061100  0.100600  0.600300  1.0
  O  O438  1  0.460800  0.399700  0.500300  1.0
  O  O439  1  0.899400  0.960500  0.499700  1.0
  O  O440  1  0.539200  0.039500  0.938900  1.0
  O  O441  1  0.100600  0.600300  0.061100  1.0
  O  O442  1  0.399700  0.500300  0.460800  1.0
  O  O443  1  0.960500  0.499700  0.899400  1.0
  O  O444  1  0.039500  0.938900  0.539200  1.0
  O  O445  1  0.600300  0.061100  0.100600  1.0
  O  O446  1  0.446400  0.132300  0.183500  1.0
  O  O447  1  0.553600  0.737100  0.685900  1.0
  O  O448  1  0.051200  0.867700  0.314100  1.0
  O  O449  1  0.948800  0.262900  0.816500  1.0
  O  O450  1  0.132300  0.183500  0.446400  1.0
  O  O451  1  0.737100  0.685900  0.553600  1.0
  O  O452  1  0.867700  0.314100  0.051200  1.0
  O  O453  1  0.262900  0.816500  0.948800  1.0
  O  O454  1  0.183500  0.446400  0.132300  1.0
  O  O455  1  0.685900  0.553600  0.737100  1.0
  O  O456  1  0.314100  0.051200  0.867700  1.0
  O  O457  1  0.816500  0.948800  0.262900  1.0
