# generated using pymatgen
data_Co2H31C39(NO3)3
_symmetry_space_group_name_H-M   'P 1'
_cell_length_a   21.09490000
_cell_length_b   21.09490000
_cell_length_c   26.05594201
_cell_angle_alpha   66.12139404
_cell_angle_beta   66.12139404
_cell_angle_gamma   60.00000000
_symmetry_Int_Tables_number   1
_chemical_formula_structural   Co2H31C39(NO3)3
_chemical_formula_sum   'Co12 H186 C234 N18 O54'
_cell_volume   8876.89782116
_cell_formula_units_Z   6
loop_
 _symmetry_equiv_pos_site_id
 _symmetry_equiv_pos_as_xyz
  1  'x, y, z'
loop_
 _atom_site_type_symbol
 _atom_site_label
 _atom_site_symmetry_multiplicity
 _atom_site_fract_x
 _atom_site_fract_y
 _atom_site_fract_z
 _atom_site_occupancy
  C  C1  1  0.519070  0.176370  0.148090  1.0
  C  C2  1  0.156470  0.519070  0.148090  1.0
  C  C3  1  0.176370  0.156470  0.148090  1.0
  C  C4  1  0.480930  0.823630  0.851910  1.0
  C  C5  1  0.843530  0.480930  0.851910  1.0
  C  C6  1  0.823630  0.843530  0.851910  1.0
  C  C7  1  0.498420  0.355720  0.027940  1.0
  C  C8  1  0.117920  0.498420  0.027940  1.0
  C  C9  1  0.355720  0.117920  0.027940  1.0
  C  C10  1  0.501580  0.644280  0.972060  1.0
  C  C11  1  0.882080  0.501580  0.972060  1.0
  C  C12  1  0.644280  0.882080  0.972060  1.0
  C  C13  1  0.531460  0.284260  0.063520  1.0
  C  C14  1  0.120760  0.531460  0.063520  1.0
  C  C15  1  0.284260  0.120760  0.063520  1.0
  C  C16  1  0.468540  0.715740  0.936480  1.0
  C  C17  1  0.879240  0.468540  0.936480  1.0
  C  C18  1  0.715740  0.879240  0.936480  1.0
  C  C19  1  0.485170  0.253870  0.111790  1.0
  C  C20  1  0.149170  0.485170  0.111790  1.0
  C  C21  1  0.253870  0.149170  0.111790  1.0
  C  C22  1  0.514830  0.746130  0.888210  1.0
  C  C23  1  0.850830  0.514830  0.888210  1.0
  C  C24  1  0.746130  0.850830  0.888210  1.0
  C  C25  1  0.407500  0.294300  0.124300  1.0
  C  C26  1  0.173900  0.407500  0.124300  1.0
  C  C27  1  0.294300  0.173900  0.124300  1.0
  C  C28  1  0.592500  0.705700  0.875700  1.0
  C  C29  1  0.826100  0.592500  0.875700  1.0
  C  C30  1  0.705700  0.826100  0.875700  1.0
  C  C31  1  0.373320  0.363820  0.090340  1.0
  C  C32  1  0.172520  0.373320  0.090340  1.0
  C  C33  1  0.363820  0.172520  0.090340  1.0
  C  C34  1  0.626680  0.636180  0.909660  1.0
  C  C35  1  0.827480  0.626680  0.909660  1.0
  C  C36  1  0.636180  0.827480  0.909660  1.0
  C  C37  1  0.419870  0.393770  0.040690  1.0
  C  C38  1  0.145670  0.419870  0.040690  1.0
  C  C39  1  0.393770  0.145670  0.040690  1.0
  C  C40  1  0.580130  0.606230  0.959310  1.0
  C  C41  1  0.854330  0.580130  0.959310  1.0
  C  C42  1  0.606230  0.854330  0.959310  1.0
  C  C43  1  0.528490  0.402790  0.974930  1.0
  C  C44  1  0.093790  0.528490  0.974930  1.0
  C  C45  1  0.402790  0.093790  0.974930  1.0
  C  C46  1  0.471510  0.597210  0.025070  1.0
  C  C47  1  0.906210  0.471510  0.025070  1.0
  C  C48  1  0.597210  0.906210  0.025070  1.0
  C  C49  1  0.600460  0.394760  0.941120  1.0
  C  C50  1  0.063660  0.600460  0.941120  1.0
  C  C51  1  0.394760  0.063660  0.941120  1.0
  C  C52  1  0.399540  0.605240  0.058880  1.0
  C  C53  1  0.936340  0.399540  0.058880  1.0
  C  C54  1  0.605240  0.936340  0.058880  1.0
  C  C55  1  0.611080  0.452180  0.891260  1.0
  C  C56  1  0.045480  0.611080  0.891260  1.0
  C  C57  1  0.452180  0.045480  0.891260  1.0
  C  C58  1  0.388920  0.547820  0.108740  1.0
  C  C59  1  0.954520  0.388920  0.108740  1.0
  C  C60  1  0.547820  0.954520  0.108740  1.0
  C  C61  1  0.547660  0.516960  0.878120  1.0
  C  C62  1  0.057260  0.547660  0.878120  1.0
  C  C63  1  0.516960  0.057260  0.878120  1.0
  C  C64  1  0.452340  0.483040  0.121880  1.0
  C  C65  1  0.942740  0.452340  0.121880  1.0
  C  C66  1  0.483040  0.942740  0.121880  1.0
  C  C67  1  0.475060  0.525760  0.909920  1.0
  C  C68  1  0.089260  0.475060  0.909920  1.0
  C  C69  1  0.525760  0.089260  0.909920  1.0
  C  C70  1  0.524940  0.474240  0.090080  1.0
  C  C71  1  0.910740  0.524940  0.090080  1.0
  C  C72  1  0.474240  0.910740  0.090080  1.0
  C  C73  1  0.465930  0.467430  0.958910  1.0
  C  C74  1  0.107730  0.465930  0.958910  1.0
  C  C75  1  0.467430  0.107730  0.958910  1.0
  C  C76  1  0.534070  0.532570  0.041090  1.0
  C  C77  1  0.892270  0.534070  0.041090  1.0
  C  C78  1  0.532570  0.892270  0.041090  1.0
  C  C79  1  0.689670  0.443770  0.853790  1.0
  C  C80  1  0.012770  0.689670  0.853790  1.0
  C  C81  1  0.443770  0.012770  0.853790  1.0
  C  C82  1  0.310330  0.556230  0.146210  1.0
  C  C83  1  0.987230  0.310330  0.146210  1.0
  C  C84  1  0.556230  0.987230  0.146210  1.0
  C  C85  1  0.321710  0.507410  0.990770  1.0
  C  C86  1  0.180110  0.321710  0.990770  1.0
  C  C87  1  0.507410  0.180110  0.990770  1.0
  C  C88  1  0.678290  0.492590  0.009230  1.0
  C  C89  1  0.819890  0.678290  0.009230  1.0
  C  C90  1  0.492590  0.819890  0.009230  1.0
  C  C91  1  0.289750  0.586550  0.992450  1.0
  C  C92  1  0.131250  0.289750  0.992450  1.0
  C  C93  1  0.586550  0.131250  0.992450  1.0
  C  C94  1  0.710250  0.413450  0.007550  1.0
  C  C95  1  0.868750  0.710250  0.007550  1.0
  C  C96  1  0.413450  0.868750  0.007550  1.0
  C  C97  1  0.314780  0.494180  0.940760  1.0
  C  C98  1  0.250280  0.314780  0.940760  1.0
  C  C99  1  0.494180  0.250280  0.940760  1.0
  C  C100  1  0.685220  0.505820  0.059240  1.0
  C  C101  1  0.749720  0.685220  0.059240  1.0
  C  C102  1  0.505820  0.749720  0.059240  1.0
  C  C103  1  0.576440  0.094240  0.284080  1.0
  C  C104  1  0.045240  0.576440  0.284080  1.0
  C  C105  1  0.094240  0.045240  0.284080  1.0
  C  C106  1  0.423560  0.905760  0.715920  1.0
  C  C107  1  0.954760  0.423560  0.715920  1.0
  C  C108  1  0.905760  0.954760  0.715920  1.0
  C  C109  1  0.654760  0.168460  0.344020  1.0
  C  C110  1  0.832760  0.654760  0.344020  1.0
  C  C111  1  0.168460  0.832760  0.344020  1.0
  C  C112  1  0.345240  0.831540  0.655980  1.0
  C  C113  1  0.167240  0.345240  0.655980  1.0
  C  C114  1  0.831540  0.167240  0.655980  1.0
  C  C115  1  0.649320  0.137320  0.307840  1.0
  C  C116  1  0.905520  0.649320  0.307840  1.0
  C  C117  1  0.137320  0.905520  0.307840  1.0
  C  C118  1  0.350680  0.862680  0.692160  1.0
  C  C119  1  0.094480  0.350680  0.692160  1.0
  C  C120  1  0.862680  0.094480  0.692160  1.0
  C  C121  1  0.582920  0.127520  0.321340  1.0
  C  C122  1  0.968220  0.582920  0.321340  1.0
  C  C123  1  0.127520  0.968220  0.321340  1.0
  C  C124  1  0.417080  0.872480  0.678660  1.0
  C  C125  1  0.031780  0.417080  0.678660  1.0
  C  C126  1  0.872480  0.031780  0.678660  1.0
  C  C127  1  0.524140  0.150240  0.368380  1.0
  C  C128  1  0.957240  0.524140  0.368380  1.0
  C  C129  1  0.150240  0.957240  0.368380  1.0
  C  C130  1  0.475860  0.849760  0.631620  1.0
  C  C131  1  0.042760  0.475860  0.631620  1.0
  C  C132  1  0.849760  0.042760  0.631620  1.0
  C  C133  1  0.527010  0.181310  0.403570  1.0
  C  C134  1  0.888110  0.527010  0.403570  1.0
  C  C135  1  0.181310  0.888110  0.403570  1.0
  C  C136  1  0.472990  0.818690  0.596430  1.0
  C  C137  1  0.111890  0.472990  0.596430  1.0
  C  C138  1  0.818690  0.111890  0.596430  1.0
  C  C139  1  0.593600  0.189100  0.392500  1.0
  C  C140  1  0.824800  0.593600  0.392500  1.0
  C  C141  1  0.189100  0.824800  0.392500  1.0
  C  C142  1  0.406400  0.810900  0.607500  1.0
  C  C143  1  0.175200  0.406400  0.607500  1.0
  C  C144  1  0.810900  0.175200  0.607500  1.0
  C  C145  1  0.712550  0.185350  0.343450  1.0
  C  C146  1  0.758650  0.712550  0.343450  1.0
  C  C147  1  0.185350  0.758650  0.343450  1.0
  C  C148  1  0.287450  0.814650  0.656550  1.0
  C  C149  1  0.241350  0.287450  0.656550  1.0
  C  C150  1  0.814650  0.241350  0.656550  1.0
  C  C151  1  0.784150  0.177850  0.307150  1.0
  C  C152  1  0.730850  0.784150  0.307150  1.0
  C  C153  1  0.177850  0.730850  0.307150  1.0
  C  C154  1  0.215850  0.822150  0.692850  1.0
  C  C155  1  0.269150  0.215850  0.692850  1.0
  C  C156  1  0.822150  0.269150  0.692850  1.0
  C  C157  1  0.827760  0.200960  0.318520  1.0
  C  C158  1  0.652760  0.827760  0.318520  1.0
  C  C159  1  0.200960  0.652760  0.318520  1.0
  C  C160  1  0.172240  0.799040  0.681480  1.0
  C  C161  1  0.347240  0.172240  0.681480  1.0
  C  C162  1  0.799040  0.347240  0.681480  1.0
  C  C163  1  0.798800  0.230800  0.365800  1.0
  C  C164  1  0.604600  0.798800  0.365800  1.0
  C  C165  1  0.230800  0.604600  0.365800  1.0
  C  C166  1  0.201200  0.769200  0.634200  1.0
  C  C167  1  0.395400  0.201200  0.634200  1.0
  C  C168  1  0.769200  0.395400  0.634200  1.0
  C  C169  1  0.727640  0.239540  0.402580  1.0
  C  C170  1  0.630240  0.727640  0.402580  1.0
  C  C171  1  0.239540  0.630240  0.402580  1.0
  C  C172  1  0.272360  0.760460  0.597420  1.0
  C  C173  1  0.369760  0.272360  0.597420  1.0
  C  C174  1  0.760460  0.369760  0.597420  1.0
  C  C175  1  0.684620  0.215820  0.391240  1.0
  C  C176  1  0.708320  0.684620  0.391240  1.0
  C  C177  1  0.215820  0.708320  0.391240  1.0
  C  C178  1  0.315380  0.784180  0.608760  1.0
  C  C179  1  0.291680  0.315380  0.608760  1.0
  C  C180  1  0.784180  0.291680  0.608760  1.0
  C  C181  1  0.904990  0.193190  0.280330  1.0
  C  C182  1  0.621490  0.904990  0.280330  1.0
  C  C183  1  0.193190  0.621490  0.280330  1.0
  C  C184  1  0.095010  0.806810  0.719670  1.0
  C  C185  1  0.378510  0.095010  0.719670  1.0
  C  C186  1  0.806810  0.378510  0.719670  1.0
  C  C187  1  0.564830  0.242530  0.474610  1.0
  C  C188  1  0.718030  0.564830  0.474610  1.0
  C  C189  1  0.242530  0.718030  0.474610  1.0
  C  C190  1  0.435170  0.757470  0.525390  1.0
  C  C191  1  0.281970  0.435170  0.525390  1.0
  C  C192  1  0.757470  0.281970  0.525390  1.0
  C  C193  1  0.540850  0.322550  0.468550  1.0
  C  C194  1  0.668050  0.540850  0.468550  1.0
  C  C195  1  0.322550  0.668050  0.468550  1.0
  C  C196  1  0.459150  0.677450  0.531450  1.0
  C  C197  1  0.331950  0.459150  0.531450  1.0
  C  C198  1  0.677450  0.331950  0.531450  1.0
  C  C199  1  0.596980  0.190280  0.523660  1.0
  C  C200  1  0.689080  0.596980  0.523660  1.0
  C  C201  1  0.190280  0.689080  0.523660  1.0
  C  C202  1  0.403020  0.809720  0.476340  1.0
  C  C203  1  0.310920  0.403020  0.476340  1.0
  C  C204  1  0.809720  0.310920  0.476340  1.0
  C  C205  1  0.336040  0.081440  0.266380  1.0
  C  C206  1  0.316140  0.336040  0.266380  1.0
  C  C207  1  0.081440  0.316140  0.266380  1.0
  C  C208  1  0.663960  0.918560  0.733620  1.0
  C  C209  1  0.683860  0.663960  0.733620  1.0
  C  C210  1  0.918560  0.683860  0.733620  1.0
  C  C211  1  0.262380  0.093880  0.294460  1.0
  C  C212  1  0.349280  0.262380  0.294460  1.0
  C  C213  1  0.093880  0.349280  0.294460  1.0
  C  C214  1  0.737620  0.906120  0.705540  1.0
  C  C215  1  0.650720  0.737620  0.705540  1.0
  C  C216  1  0.906120  0.650720  0.705540  1.0
  C  C217  1  0.240390  0.085690  0.353230  1.0
  C  C218  1  0.320690  0.240390  0.353230  1.0
  C  C219  1  0.085690  0.320690  0.353230  1.0
  C  C220  1  0.759610  0.914310  0.646770  1.0
  C  C221  1  0.679310  0.759610  0.646770  1.0
  C  C222  1  0.914310  0.679310  0.646770  1.0
  C  C223  1  0.293200  0.063200  0.380800  1.0
  C  C224  1  0.262800  0.293200  0.380800  1.0
  C  C225  1  0.063200  0.262800  0.380800  1.0
  C  C226  1  0.706800  0.936800  0.619200  1.0
  C  C227  1  0.737200  0.706800  0.619200  1.0
  C  C228  1  0.936800  0.737200  0.619200  1.0
  C  C229  1  0.365880  0.052580  0.349960  1.0
  C  C230  1  0.231580  0.365880  0.349960  1.0
  C  C231  1  0.052580  0.231580  0.349960  1.0
  C  C232  1  0.634120  0.947420  0.650040  1.0
  C  C233  1  0.768420  0.634120  0.650040  1.0
  C  C234  1  0.947420  0.768420  0.650040  1.0
  Co  Co235  1  0.640090  0.032650  0.180790  1.0
  Co  Co236  1  0.146470  0.640090  0.180790  1.0
  Co  Co237  1  0.032650  0.146470  0.180790  1.0
  Co  Co238  1  0.359910  0.967350  0.819210  1.0
  Co  Co239  1  0.853530  0.359910  0.819210  1.0
  Co  Co240  1  0.967350  0.853530  0.819210  1.0
  Co  Co241  1  0.498090  0.047320  0.247000  1.0
  Co  Co242  1  0.207590  0.498090  0.247000  1.0
  Co  Co243  1  0.047320  0.207590  0.247000  1.0
  Co  Co244  1  0.501910  0.952680  0.753000  1.0
  Co  Co245  1  0.792410  0.501910  0.753000  1.0
  Co  Co246  1  0.952680  0.792410  0.753000  1.0
  H  H247  1  0.584831  0.257087  0.054763  1.0
  H  H248  1  0.103319  0.584831  0.054763  1.0
  H  H249  1  0.257087  0.103319  0.054763  1.0
  H  H250  1  0.415169  0.742913  0.945237  1.0
  H  H251  1  0.896681  0.415169  0.945237  1.0
  H  H252  1  0.742913  0.896681  0.945237  1.0
  H  H253  1  0.376803  0.272846  0.157828  1.0
  H  H254  1  0.192523  0.376803  0.157828  1.0
  H  H255  1  0.272846  0.192523  0.157828  1.0
  H  H256  1  0.623197  0.727154  0.842172  1.0
  H  H257  1  0.807477  0.623197  0.842172  1.0
  H  H258  1  0.727154  0.807477  0.842172  1.0
  H  H259  1  0.319867  0.391025  0.099973  1.0
  H  H260  1  0.189135  0.319867  0.099973  1.0
  H  H261  1  0.391025  0.189135  0.099973  1.0
  H  H262  1  0.680133  0.608975  0.900027  1.0
  H  H263  1  0.810865  0.680133  0.900027  1.0
  H  H264  1  0.608975  0.810865  0.900027  1.0
  H  H265  1  0.642816  0.350441  0.951503  1.0
  H  H266  1  0.055240  0.642816  0.951503  1.0
  H  H267  1  0.350441  0.055240  0.951503  1.0
  H  H268  1  0.357184  0.649559  0.048497  1.0
  H  H269  1  0.944760  0.357184  0.048497  1.0
  H  H270  1  0.649559  0.944760  0.048497  1.0
  H  H271  1  0.554983  0.557073  0.845564  1.0
  H  H272  1  0.042380  0.554983  0.845564  1.0
  H  H273  1  0.557073  0.042380  0.845564  1.0
  H  H274  1  0.445017  0.442927  0.154436  1.0
  H  H275  1  0.957620  0.445017  0.154436  1.0
  H  H276  1  0.442927  0.957620  0.154436  1.0
  H  H277  1  0.432747  0.569716  0.899063  1.0
  H  H278  1  0.098474  0.432747  0.899063  1.0
  H  H279  1  0.569716  0.098474  0.899063  1.0
  H  H280  1  0.567253  0.430284  0.100937  1.0
  H  H281  1  0.901526  0.567253  0.100937  1.0
  H  H282  1  0.430284  0.901526  0.100937  1.0
  H  H283  1  0.289745  0.484281  0.025984  1.0
  H  H284  1  0.199990  0.289745  0.025984  1.0
  H  H285  1  0.484281  0.199990  0.025984  1.0
  H  H286  1  0.710255  0.515719  0.974016  1.0
  H  H287  1  0.800010  0.710255  0.974016  1.0
  H  H288  1  0.515719  0.800010  0.974016  1.0
  H  H289  1  0.236090  0.610353  0.992810  1.0
  H  H290  1  0.160747  0.236090  0.992810  1.0
  H  H291  1  0.610353  0.160747  0.992810  1.0
  H  H292  1  0.763910  0.389647  0.007190  1.0
  H  H293  1  0.839253  0.763910  0.007190  1.0
  H  H294  1  0.389647  0.839253  0.007190  1.0
  H  H295  1  0.317042  0.613849  0.958106  1.0
  H  H296  1  0.111003  0.317042  0.958106  1.0
  H  H297  1  0.613849  0.111003  0.958106  1.0
  H  H298  1  0.682958  0.386151  0.041894  1.0
  H  H299  1  0.888997  0.682958  0.041894  1.0
  H  H300  1  0.386151  0.888997  0.041894  1.0
  H  H301  1  0.294771  0.588399  0.027556  1.0
  H  H302  1  0.089274  0.294771  0.027556  1.0
  H  H303  1  0.588399  0.089274  0.027556  1.0
  H  H304  1  0.705229  0.411601  0.972444  1.0
  H  H305  1  0.910726  0.705229  0.972444  1.0
  H  H306  1  0.411601  0.910726  0.972444  1.0
  H  H307  1  0.262058  0.521644  0.938246  1.0
  H  H308  1  0.278052  0.262058  0.938246  1.0
  H  H309  1  0.521644  0.278052  0.938246  1.0
  H  H310  1  0.737942  0.478356  0.061754  1.0
  H  H311  1  0.721948  0.737942  0.061754  1.0
  H  H312  1  0.478356  0.721948  0.061754  1.0
  H  H313  1  0.330294  0.439964  0.947138  1.0
  H  H314  1  0.282604  0.330294  0.947138  1.0
  H  H315  1  0.439964  0.282604  0.947138  1.0
  H  H316  1  0.669706  0.560036  0.052862  1.0
  H  H317  1  0.717396  0.669706  0.052862  1.0
  H  H318  1  0.560036  0.717396  0.052862  1.0
  H  H319  1  0.347403  0.512575  0.904511  1.0
  H  H320  1  0.235511  0.347403  0.904511  1.0
  H  H321  1  0.512575  0.235511  0.904511  1.0
  H  H322  1  0.652597  0.487425  0.095489  1.0
  H  H323  1  0.764489  0.652597  0.095489  1.0
  H  H324  1  0.487425  0.764489  0.095489  1.0
  H  H325  1  0.689702  0.123404  0.275164  1.0
  H  H326  1  0.911730  0.689702  0.275164  1.0
  H  H327  1  0.123404  0.911730  0.275164  1.0
  H  H328  1  0.310298  0.876596  0.724836  1.0
  H  H329  1  0.088270  0.310298  0.724836  1.0
  H  H330  1  0.876596  0.088270  0.724836  1.0
  H  H331  1  0.479296  0.143689  0.376492  1.0
  H  H332  1  0.000523  0.479296  0.376492  1.0
  H  H333  1  0.143689  0.000523  0.376492  1.0
  H  H334  1  0.520704  0.856311  0.623508  1.0
  H  H335  1  0.999477  0.520704  0.623508  1.0
  H  H336  1  0.856311  0.999477  0.623508  1.0
  H  H337  1  0.484974  0.197240  0.434833  1.0
  H  H338  1  0.882953  0.484974  0.434833  1.0
  H  H339  1  0.197240  0.882953  0.434833  1.0
  H  H340  1  0.515026  0.802760  0.565167  1.0
  H  H341  1  0.117047  0.515026  0.565167  1.0
  H  H342  1  0.802760  0.117047  0.565167  1.0
  H  H343  1  0.803331  0.157352  0.274894  1.0
  H  H344  1  0.764423  0.803331  0.274894  1.0
  H  H345  1  0.157352  0.764423  0.274894  1.0
  H  H346  1  0.196669  0.842648  0.725106  1.0
  H  H347  1  0.235577  0.196669  0.725106  1.0
  H  H348  1  0.842648  0.235577  0.725106  1.0
  H  H349  1  0.829145  0.245838  0.373237  1.0
  H  H350  1  0.551780  0.829145  0.373237  1.0
  H  H351  1  0.245838  0.551780  0.373237  1.0
  H  H352  1  0.170855  0.754162  0.626763  1.0
  H  H353  1  0.448220  0.170855  0.626763  1.0
  H  H354  1  0.754162  0.448220  0.626763  1.0
  H  H355  1  0.708704  0.260832  0.434380  1.0
  H  H356  1  0.596084  0.708704  0.434380  1.0
  H  H357  1  0.260832  0.596084  0.434380  1.0
  H  H358  1  0.291296  0.739168  0.565620  1.0
  H  H359  1  0.403916  0.291296  0.565620  1.0
  H  H360  1  0.739168  0.403916  0.565620  1.0
  H  H361  1  0.517050  0.236770  0.483166  1.0
  H  H362  1  0.763014  0.517050  0.483166  1.0
  H  H363  1  0.236770  0.763014  0.483166  1.0
  H  H364  1  0.482950  0.763230  0.516834  1.0
  H  H365  1  0.236986  0.482950  0.516834  1.0
  H  H366  1  0.763230  0.236986  0.516834  1.0
  H  H367  1  0.513684  0.333444  0.506683  1.0
  H  H368  1  0.646189  0.513684  0.506683  1.0
  H  H369  1  0.333444  0.646189  0.506683  1.0
  H  H370  1  0.486316  0.666556  0.493317  1.0
  H  H371  1  0.353811  0.486316  0.493317  1.0
  H  H372  1  0.666556  0.353811  0.493317  1.0
  H  H373  1  0.507422  0.353312  0.442312  1.0
  H  H374  1  0.696954  0.507422  0.442312  1.0
  H  H375  1  0.353312  0.696954  0.442312  1.0
  H  H376  1  0.492578  0.646688  0.557688  1.0
  H  H377  1  0.303046  0.492578  0.557688  1.0
  H  H378  1  0.646688  0.303046  0.557688  1.0
  H  H379  1  0.585448  0.334705  0.452602  1.0
  H  H380  1  0.627245  0.585448  0.452602  1.0
  H  H381  1  0.334705  0.627245  0.452602  1.0
  H  H382  1  0.414552  0.665295  0.547398  1.0
  H  H383  1  0.372755  0.414552  0.547398  1.0
  H  H384  1  0.665295  0.372755  0.547398  1.0
  H  H385  1  0.562973  0.206636  0.559126  1.0
  H  H386  1  0.671265  0.562973  0.559126  1.0
  H  H387  1  0.206636  0.671265  0.559126  1.0
  H  H388  1  0.437027  0.793364  0.440874  1.0
  H  H389  1  0.328735  0.437027  0.440874  1.0
  H  H390  1  0.793364  0.328735  0.440874  1.0
  H  H391  1  0.646404  0.189912  0.516796  1.0
  H  H392  1  0.646888  0.646404  0.516796  1.0
  H  H393  1  0.189912  0.646888  0.516796  1.0
  H  H394  1  0.353596  0.810088  0.483204  1.0
  H  H395  1  0.353112  0.353596  0.483204  1.0
  H  H396  1  0.810088  0.353112  0.483204  1.0
  H  H397  1  0.603158  0.139297  0.528094  1.0
  H  H398  1  0.729451  0.603158  0.528094  1.0
  H  H399  1  0.139297  0.729451  0.528094  1.0
  H  H400  1  0.396842  0.860703  0.471906  1.0
  H  H401  1  0.270549  0.396842  0.471906  1.0
  H  H402  1  0.860703  0.270549  0.471906  1.0
  H  H403  1  0.351034  0.088030  0.225577  1.0
  H  H404  1  0.335359  0.351034  0.225577  1.0
  H  H405  1  0.088030  0.335359  0.225577  1.0
  H  H406  1  0.648966  0.911970  0.774423  1.0
  H  H407  1  0.664641  0.648966  0.774423  1.0
  H  H408  1  0.911970  0.664641  0.774423  1.0
  H  H409  1  0.227129  0.107714  0.273946  1.0
  H  H410  1  0.391211  0.227129  0.273946  1.0
  H  H411  1  0.107714  0.391211  0.273946  1.0
  H  H412  1  0.772871  0.892286  0.726054  1.0
  H  H413  1  0.608789  0.772871  0.726054  1.0
  H  H414  1  0.892286  0.608789  0.726054  1.0
  H  H415  1  0.189059  0.095609  0.374146  1.0
  H  H416  1  0.341186  0.189059  0.374146  1.0
  H  H417  1  0.095609  0.341186  0.374146  1.0
  H  H418  1  0.810941  0.904391  0.625854  1.0
  H  H419  1  0.658814  0.810941  0.625854  1.0
  H  H420  1  0.904391  0.658814  0.625854  1.0
  H  H421  1  0.279565  0.054875  0.421759  1.0
  H  H422  1  0.243801  0.279565  0.421759  1.0
  H  H423  1  0.054875  0.243801  0.421759  1.0
  H  H424  1  0.720435  0.945125  0.578241  1.0
  H  H425  1  0.756199  0.720435  0.578241  1.0
  H  H426  1  0.945125  0.756199  0.578241  1.0
  H  H427  1  0.401596  0.038904  0.369985  1.0
  H  H428  1  0.189515  0.401596  0.369985  1.0
  H  H429  1  0.038904  0.189515  0.369985  1.0
  H  H430  1  0.598404  0.961096  0.630015  1.0
  H  H431  1  0.810485  0.598404  0.630015  1.0
  H  H432  1  0.961096  0.810485  0.630015  1.0
  N  N433  1  0.398890  0.462590  0.998930  1.0
  N  N434  1  0.139590  0.398890  0.998930  1.0
  N  N435  1  0.462590  0.139590  0.998930  1.0
  N  N436  1  0.601110  0.537410  0.001070  1.0
  N  N437  1  0.860410  0.601110  0.001070  1.0
  N  N438  1  0.537410  0.860410  0.001070  1.0
  N  N439  1  0.612250  0.218550  0.420550  1.0
  N  N440  1  0.748650  0.612250  0.420550  1.0
  N  N441  1  0.218550  0.748650  0.420550  1.0
  N  N442  1  0.387750  0.781450  0.579450  1.0
  N  N443  1  0.251350  0.387750  0.579450  1.0
  N  N444  1  0.781450  0.251350  0.579450  1.0
  N  N445  1  0.388830  0.060630  0.293110  1.0
  N  N446  1  0.257430  0.388830  0.293110  1.0
  N  N447  1  0.060630  0.257430  0.293110  1.0
  N  N448  1  0.611170  0.939370  0.706890  1.0
  N  N449  1  0.742570  0.611170  0.706890  1.0
  N  N450  1  0.939370  0.742570  0.706890  1.0
  O  O451  1  0.590170  0.140170  0.135790  1.0
  O  O452  1  0.133870  0.590170  0.135790  1.0
  O  O453  1  0.140170  0.133870  0.135790  1.0
  O  O454  1  0.409830  0.859830  0.864210  1.0
  O  O455  1  0.866130  0.409830  0.864210  1.0
  O  O456  1  0.859830  0.866130  0.864210  1.0
  O  O457  1  0.472270  0.150670  0.190390  1.0
  O  O458  1  0.186670  0.472270  0.190390  1.0
  O  O459  1  0.150670  0.186670  0.190390  1.0
  O  O460  1  0.527730  0.849330  0.809610  1.0
  O  O461  1  0.813330  0.527730  0.809610  1.0
  O  O462  1  0.849330  0.813330  0.809610  1.0
  O  O463  1  0.744470  0.382770  0.866990  1.0
  O  O464  1  0.005770  0.744470  0.866990  1.0
  O  O465  1  0.382770  0.005770  0.866990  1.0
  O  O466  1  0.255530  0.617230  0.133010  1.0
  O  O467  1  0.994230  0.255530  0.133010  1.0
  O  O468  1  0.617230  0.994230  0.133010  1.0
  O  O469  1  0.694030  0.498830  0.810410  1.0
  O  O470  1  0.996730  0.694030  0.810410  1.0
  O  O471  1  0.498830  0.996730  0.810410  1.0
  O  O472  1  0.305970  0.501170  0.189590  1.0
  O  O473  1  0.003270  0.305970  0.189590  1.0
  O  O474  1  0.501170  0.003270  0.189590  1.0
  O  O475  1  0.632470  0.074470  0.242290  1.0
  O  O476  1  0.050770  0.632470  0.242290  1.0
  O  O477  1  0.074470  0.050770  0.242290  1.0
  O  O478  1  0.367530  0.925530  0.757710  1.0
  O  O479  1  0.949230  0.367530  0.757710  1.0
  O  O480  1  0.925530  0.949230  0.757710  1.0
  O  O481  1  0.513460  0.090060  0.296620  1.0
  O  O482  1  0.099860  0.513460  0.296620  1.0
  O  O483  1  0.090060  0.099860  0.296620  1.0
  O  O484  1  0.486540  0.909940  0.703380  1.0
  O  O485  1  0.900140  0.486540  0.703380  1.0
  O  O486  1  0.909940  0.900140  0.703380  1.0
  O  O487  1  0.928220  0.166420  0.237040  1.0
  O  O488  1  0.668320  0.928220  0.237040  1.0
  O  O489  1  0.166420  0.668320  0.237040  1.0
  O  O490  1  0.071780  0.833580  0.762960  1.0
  O  O491  1  0.331680  0.071780  0.762960  1.0
  O  O492  1  0.833580  0.331680  0.762960  1.0
  O  O493  1  0.941900  0.213500  0.293200  1.0
  O  O494  1  0.551400  0.941900  0.293200  1.0
  O  O495  1  0.213500  0.551400  0.293200  1.0
  O  O496  1  0.058100  0.786500  0.706800  1.0
  O  O497  1  0.448600  0.058100  0.706800  1.0
  O  O498  1  0.786500  0.448600  0.706800  1.0
  O  O499  1  0.749550  0.020850  0.132850  1.0
  O  O500  1  0.096750  0.749550  0.132850  1.0
  O  O501  1  0.020850  0.096750  0.132850  1.0
  O  O502  1  0.250450  0.979150  0.867150  1.0
  O  O503  1  0.903250  0.250450  0.867150  1.0
  O  O504  1  0.979150  0.903250  0.867150  1.0
