# generated using pymatgen
data_Ni3H39C34(NO4)4
_symmetry_space_group_name_H-M   'P 1'
_cell_length_a   26.70650000
_cell_length_b   27.28910000
_cell_length_c   27.31150000
_cell_angle_alpha   60.08500000
_cell_angle_beta   87.92200000
_cell_angle_gamma   69.17500000
_symmetry_Int_Tables_number   1
_chemical_formula_structural   Ni3H39C34(NO4)4
_chemical_formula_sum   'Ni24 H312 C272 N32 O128'
_cell_volume   15879.21699914
_cell_formula_units_Z   8
loop_
 _symmetry_equiv_pos_site_id
 _symmetry_equiv_pos_as_xyz
  1  'x, y, z'
loop_
 _atom_site_type_symbol
 _atom_site_label
 _atom_site_symmetry_multiplicity
 _atom_site_fract_x
 _atom_site_fract_y
 _atom_site_fract_z
 _atom_site_occupancy
  Ni  Ni1  1  0.508750  0.353950  0.344060  1.0
  Ni  Ni2  1  0.491250  0.646050  0.655940  1.0
  Ni  Ni3  1  0.511690  0.306070  0.455650  1.0
  Ni  Ni4  1  0.488310  0.693930  0.544350  1.0
  Ni  Ni5  1  0.765090  0.411220  0.204670  1.0
  Ni  Ni6  1  0.234910  0.588780  0.795330  1.0
  Ni  Ni7  1  0.853940  0.386020  0.267990  1.0
  Ni  Ni8  1  0.146060  0.613980  0.732010  1.0
  Ni  Ni9  1  0.492010  0.702400  0.139100  1.0
  Ni  Ni10  1  0.507990  0.297600  0.860900  1.0
  Ni  Ni11  1  0.489660  0.767970  0.185360  1.0
  Ni  Ni12  1  0.510340  0.232030  0.814640  1.0
  Ni  Ni13  1  0.504580  0.157110  0.199890  1.0
  Ni  Ni14  1  0.495420  0.842890  0.800110  1.0
  Ni  Ni15  1  0.503390  0.046350  0.263510  1.0
  Ni  Ni16  1  0.496610  0.953650  0.736490  1.0
  Ni  Ni17  1  0.759680  0.544290  0.858520  1.0
  Ni  Ni18  1  0.240320  0.455710  0.141480  1.0
  Ni  Ni19  1  0.137580  0.896470  0.901890  1.0
  Ni  Ni20  1  0.862420  0.103530  0.098110  1.0
  Ni  Ni21  1  0.772850  0.200220  0.074190  1.0
  Ni  Ni22  1  0.227150  0.799780  0.925810  1.0
  Ni  Ni23  1  0.153420  0.440660  0.185680  1.0
  Ni  Ni24  1  0.846580  0.559340  0.814320  1.0
  H  H25  1  0.388948  0.604192  0.520964  1
  H  H26  1  0.611052  0.395808  0.479036  1
  H  H27  1  0.341775  0.602252  0.558891  1
  H  H28  1  0.658225  0.397748  0.441109  1
  H  H29  1  0.402371  0.582903  0.586862  1
  H  H30  1  0.597629  0.417097  0.413138  1
  H  H31  1  0.386729  0.390185  0.673282  1
  H  H32  1  0.613271  0.609815  0.326718  1
  H  H33  1  0.367991  0.417623  0.606678  1
  H  H34  1  0.632009  0.582377  0.393322  1
  H  H35  1  0.431040  0.391337  0.632101  1
  H  H36  1  0.568960  0.608663  0.367899  1
  H  H37  1  0.367210  0.451705  0.701008  1
  H  H38  1  0.632790  0.548295  0.298992  1
  H  H39  1  0.395739  0.499495  0.682833  1
  H  H40  1  0.604261  0.500505  0.317167  1
  H  H41  1  0.333484  0.523190  0.656379  1
  H  H42  1  0.666516  0.476810  0.343621  1
  H  H43  1  0.600581  0.907131  0.621262  1
  H  H44  1  0.399419  0.092869  0.378738  1
  H  H45  1  0.585435  0.848925  0.660396  1
  H  H46  1  0.414565  0.151075  0.339604  1
  H  H47  1  0.647225  0.839434  0.652609  1
  H  H48  1  0.352775  0.160566  0.347391  1
  H  H49  1  0.612692  0.761397  0.547888  1
  H  H50  1  0.387308  0.238603  0.452112  1
  H  H51  1  0.567436  0.829751  0.511838  1
  H  H52  1  0.432564  0.170249  0.488162  1
  H  H53  1  0.630452  0.817833  0.510057  1
  H  H54  1  0.369548  0.182167  0.489943  1
  H  H55  1  0.624249  0.720601  0.640045  1
  H  H56  1  0.375751  0.279399  0.359955  1
  H  H57  1  0.649599  0.745250  0.671045  1
  H  H58  1  0.350401  0.254750  0.328955  1
  H  H59  1  0.585714  0.760374  0.664481  1
  H  H60  1  0.414286  0.239626  0.335519  1
  H  H61  1  0.036766  0.597423  0.034819  1
  H  H62  1  0.963234  0.402577  0.965181  1
  H  H63  1  0.095419  0.592221  0.017188  1
  H  H64  1  0.904581  0.407779  0.982812  1
  H  H65  1  0.050791  0.657298  0.002774  1
  H  H66  1  0.949209  0.342702  0.997226  1
  H  H67  1  0.110786  0.691006  0.869908  1
  H  H68  1  0.889214  0.308994  0.130092  1
  H  H69  1  0.094478  0.698201  0.923628  1
  H  H70  1  0.905522  0.301799  0.076372  1
  H  H71  1  0.134068  0.632888  0.933744  1
  H  H72  1  0.865932  0.367112  0.066256  1
  H  H73  1  0.050325  0.689217  0.819647  1
  H  H74  1  0.949675  0.310783  0.180353  1
  H  H75  1  0.035061  0.630169  0.850840  1
  H  H76  1  0.964939  0.369831  0.149160  1
  H  H77  1  0.991636  0.695387  0.837482  1
  H  H78  1  0.008364  0.304613  0.162518  1
  H  H79  1  0.612425  0.052850  0.961541  1
  H  H80  1  0.387575  0.947150  0.038459  1
  H  H81  1  0.595350  0.103436  0.979427  1
  H  H82  1  0.404650  0.896564  0.020573  1
  H  H83  1  0.657882  0.059049  0.992133  1
  H  H84  1  0.342118  0.940951  0.007867  1
  H  H85  1  0.621037  0.979139  0.177074  1
  H  H86  1  0.378963  0.020861  0.822926  1
  H  H87  1  0.575804  0.972390  0.146767  1
  H  H88  1  0.424196  0.027610  0.853233  1
  H  H89  1  0.638509  0.928719  0.158964  1
  H  H90  1  0.361491  0.071281  0.841036  1
  H  H91  1  0.640334  0.061137  0.123807  1
  H  H92  1  0.359666  0.938863  0.876193  1
  H  H93  1  0.670841  0.065890  0.071040  1
  H  H94  1  0.329159  0.934110  0.928960  1
  H  H95  1  0.607954  0.108753  0.059415  1
  H  H96  1  0.392046  0.891247  0.940585  1
  H  H97  1  0.507255  0.466645  0.226578  1.0
  H  H98  1  0.492745  0.533355  0.773422  1.0
  H  H99  1  0.535395  0.434509  0.191605  1.0
  H  H100  1  0.464605  0.565491  0.808395  1.0
  H  H101  1  0.568534  0.416861  0.249590  1.0
  H  H102  1  0.431466  0.583139  0.750410  1.0
  H  H103  1  0.484950  0.328927  0.251131  1.0
  H  H104  1  0.515050  0.671073  0.748869  1.0
  H  H105  1  0.481888  0.389378  0.192733  1.0
  H  H106  1  0.518112  0.610622  0.807267  1.0
  H  H107  1  0.439595  0.394387  0.234704  1.0
  H  H108  1  0.560405  0.605613  0.765296  1.0
  H  H109  1  0.560921  0.313406  0.537544  1.0
  H  H110  1  0.439079  0.686594  0.462456  1.0
  H  H111  1  0.560485  0.260125  0.600007  1.0
  H  H112  1  0.439515  0.739875  0.399993  1.0
  H  H113  1  0.512732  0.326977  0.571336  1.0
  H  H114  1  0.487268  0.673023  0.428664  1.0
  H  H115  1  0.472767  0.219062  0.557545  1.0
  H  H116  1  0.527233  0.780938  0.442455  1.0
  H  H117  1  0.508519  0.205829  0.611794  1.0
  H  H118  1  0.491481  0.794171  0.388206  1.0
  H  H119  1  0.537758  0.189390  0.566687  1.0
  H  H120  1  0.462242  0.810610  0.433313  1.0
  H  H121  1  0.618578  0.464475  0.143463  1.0
  H  H122  1  0.381422  0.535525  0.856537  1.0
  H  H123  1  0.643057  0.504760  0.154045  1.0
  H  H124  1  0.356943  0.495240  0.845955  1.0
  H  H125  1  0.646362  0.439970  0.206601  1.0
  H  H126  1  0.353638  0.560030  0.793399  1.0
  H  H127  1  0.694835  0.469786  0.071122  1.0
  H  H128  1  0.305165  0.530214  0.928878  1.0
  H  H129  1  0.670436  0.417845  0.100262  1.0
  H  H130  1  0.329564  0.582155  0.899738  1.0
  H  H131  1  0.734894  0.398976  0.108233  1.0
  H  H132  1  0.265106  0.601024  0.891767  1.0
  H  H133  1  0.966853  0.404737  0.326042  1.0
  H  H134  1  0.033147  0.595263  0.673958  1.0
  H  H135  1  0.907171  0.425158  0.340849  1.0
  H  H136  1  0.092829  0.574842  0.659151  1.0
  H  H137  1  0.915235  0.450350  0.275461  1.0
  H  H138  1  0.084765  0.549650  0.724539  1.0
  H  H139  1  0.000494  0.333841  0.310866  1.0
  H  H140  1  0.999506  0.666159  0.689134  1.0
  H  H141  1  0.960027  0.354628  0.256114  1.0
  H  H142  1  0.039973  0.645372  0.743886  1.0
  H  H143  1  0.971881  0.290089  0.313922  1.0
  H  H144  1  0.028119  0.709911  0.686078  1.0
  H  H145  1  0.422743  0.712004  0.053195  1.0
  H  H146  1  0.577257  0.287996  0.946805  1.0
  H  H147  1  0.450989  0.653958  0.046112  1.0
  H  H148  1  0.549011  0.346042  0.953888  1.0
  H  H149  1  0.474739  0.706414  0.022200  1.0
  H  H150  1  0.525261  0.293586  0.977800  1.0
  H  H151  1  0.554976  0.578929  0.155500  1.0
  H  H152  1  0.445024  0.421071  0.844500  1.0
  H  H153  1  0.519938  0.570429  0.116139  1.0
  H  H154  1  0.480062  0.429571  0.883861  1.0
  H  H155  1  0.498174  0.572936  0.170546  1.0
  H  H156  1  0.501826  0.427064  0.829454  1.0
  H  H157  1  0.431001  0.891473  0.176243  1.0
  H  H158  1  0.568999  0.108527  0.823757  1.0
  H  H159  1  0.484528  0.893788  0.148458  1.0
  H  H160  1  0.515472  0.106212  0.851542  1.0
  H  H161  1  0.477320  0.898793  0.204433  1.0
  H  H162  1  0.522680  0.101207  0.795567  1.0
  H  H163  1  0.469378  0.787666  0.292269  1.0
  H  H164  1  0.530622  0.212334  0.707731  1.0
  H  H165  1  0.519893  0.806404  0.291593  1.0
  H  H166  1  0.480107  0.193596  0.708407  1.0
  H  H167  1  0.529175  0.743469  0.294957  1.0
  H  H168  1  0.470825  0.256531  0.705043  1.0
  H  H169  1  0.442784  0.284368  0.178595  1.0
  H  H170  1  0.557216  0.715632  0.821405  1.0
  H  H171  1  0.468133  0.328339  0.130591  1.0
  H  H172  1  0.531867  0.671661  0.869409  1.0
  H  H173  1  0.504893  0.273802  0.191593  1.0
  H  H174  1  0.495107  0.726198  0.808407  1.0
  H  H175  1  0.566565  0.239545  0.127009  1.0
  H  H176  1  0.433435  0.760455  0.872991  1.0
  H  H177  1  0.520139  0.295390  0.073522  1.0
  H  H178  1  0.479861  0.704610  0.926478  1.0
  H  H179  1  0.536096  0.226642  0.088013  1.0
  H  H180  1  0.463904  0.773358  0.911987  1.0
  H  H181  1  0.497405  0.965410  0.389627  1.0
  H  H182  1  0.502595  0.034590  0.610373  1.0
  H  H183  1  0.491556  0.907148  0.393766  1.0
  H  H184  1  0.508444  0.092852  0.606234  1.0
  H  H185  1  0.444883  0.974096  0.354860  1.0
  H  H186  1  0.555117  0.025904  0.645140  1.0
  H  H187  1  0.477932  0.948938  0.265666  1.0
  H  H188  1  0.522068  0.051062  0.734334  1.0
  H  H189  1  0.513395  0.885951  0.322806  1.0
  H  H190  1  0.486605  0.114049  0.677194  1.0
  H  H191  1  0.542947  0.923422  0.274519  1.0
  H  H192  1  0.457053  0.076578  0.725481  1.0
  H  H193  1  0.717025  0.493888  0.964069  1.0
  H  H194  1  0.282975  0.506112  0.035931  1.0
  H  H195  1  0.720842  0.442016  0.950642  1.0
  H  H196  1  0.279158  0.557984  0.049358  1.0
  H  H197  1  0.663067  0.485193  0.953367  1.0
  H  H198  1  0.336933  0.514807  0.046633  1.0
  H  H199  1  0.651421  0.613516  0.859155  1.0
  H  H200  1  0.348579  0.386484  0.140845  1.0
  H  H201  1  0.613871  0.574950  0.875638  1.0
  H  H202  1  0.386129  0.425050  0.124362  1.0
  H  H203  1  0.634885  0.596584  0.815523  1.0
  H  H204  1  0.365115  0.403416  0.184477  1.0
  H  H205  1  0.055914  0.021418  0.802408  1.0
  H  H206  1  0.944086  0.978582  0.197592  1.0
  H  H207  1  0.001549  0.028379  0.829577  1.0
  H  H208  1  0.998451  0.971621  0.170423  1.0
  H  H209  1  0.032025  0.969204  0.824680  1.0
  H  H210  1  0.967975  0.030796  0.175320  1.0
  H  H211  1  0.060436  0.017278  0.924326  1.0
  H  H212  1  0.939564  0.982722  0.075674  1.0
  H  H213  1  0.075880  0.047461  0.861674  1.0
  H  H214  1  0.924120  0.952539  0.138326  1.0
  H  H215  1  0.121343  0.989816  0.915156  1.0
  H  H216  1  0.878657  0.010184  0.084844  1.0
  H  H217  1  0.645376  0.295447  0.010185  1.0
  H  H218  1  0.354624  0.704553  0.989815  1.0
  H  H219  1  0.627452  0.296924  0.066142  1.0
  H  H220  1  0.372548  0.703076  0.933858  1.0
  H  H221  1  0.653781  0.232808  0.068852  1.0
  H  H222  1  0.346219  0.767192  0.931148  1.0
  H  H223  1  0.749428  0.316307  0.066815  1.0
  H  H224  1  0.250572  0.683693  0.933185  1.0
  H  H225  1  0.684945  0.350786  0.058009  1.0
  H  H226  1  0.315055  0.649214  0.941991  1.0
  H  H227  1  0.712259  0.345680  0.006732  1.0
  H  H228  1  0.287741  0.654320  0.993268  1.0
  H  H229  1  0.103734  0.406093  0.297067  1.0
  H  H230  1  0.896266  0.593907  0.702933  1.0
  H  H231  1  0.039714  0.435695  0.274008  1.0
  H  H232  1  0.960286  0.564305  0.725992  1.0
  H  H233  1  0.073872  0.478271  0.252383  1.0
  H  H234  1  0.926128  0.521729  0.747617  1.0
  H  H235  1  0.023341  0.507310  0.166592  1.0
  H  H236  1  0.976659  0.492690  0.833408  1.0
  H  H237  1  0.010723  0.449037  0.180280  1.0
  H  H238  1  0.989277  0.550963  0.819720  1.0
  H  H239  1  0.048838  0.471088  0.134366  1.0
  H  H240  1  0.951162  0.528912  0.865634  1.0
  H  H241  1  0.764026  0.247070  0.556815  1.0
  H  H242  1  0.235974  0.752930  0.443185  1.0
  H  H243  1  0.674196  0.340463  0.338062  1.0
  H  H244  1  0.325804  0.659537  0.661938  1.0
  H  H245  1  0.684656  0.251015  0.509850  1.0
  H  H246  1  0.315344  0.748985  0.490150  1.0
  H  H247  1  0.812242  0.287558  0.439042  1.0
  H  H248  1  0.187758  0.712442  0.560958  1.0
  H  H249  1  0.429439  0.554757  0.476661  1.0
  H  H250  1  0.570561  0.445243  0.523339  1.0
  H  H251  1  0.488877  0.540896  0.290770  1.0
  H  H252  1  0.511123  0.459104  0.709230  1.0
  H  H253  1  0.461868  0.478105  0.452314  1.0
  H  H254  1  0.538132  0.521895  0.547686  1.0
  H  H255  1  0.453958  0.651707  0.354454  1.0
  H  H256  1  0.546042  0.348293  0.645546  1.0
  H  H257  1  0.567992  0.976892  0.528677  1.0
  H  H258  1  0.432008  0.023108  0.471323  1.0
  H  H259  1  0.522072  0.199247  0.331911  1.0
  H  H260  1  0.477928  0.800753  0.668089  1.0
  H  H261  1  0.545511  0.116130  0.503402  1.0
  H  H262  1  0.454489  0.883870  0.496598  1.0
  H  H263  1  0.546050  0.020562  0.428441  1.0
  H  H264  1  0.453950  0.979438  0.571559  1.0
  H  H265  1  0.247650  0.323806  0.484153  1.0
  H  H266  1  0.752350  0.676194  0.515847  1.0
  H  H267  1  0.338930  0.404973  0.293429  1.0
  H  H268  1  0.661070  0.595027  0.706571  1.0
  H  H269  1  0.339649  0.344527  0.462772  1.0
  H  H270  1  0.660351  0.655473  0.537228  1.0
  H  H271  1  0.198807  0.402066  0.359875  1.0
  H  H272  1  0.801193  0.597934  0.640125  1.0
  H  H273  1  0.770277  0.610669  0.337635  1.0
  H  H274  1  0.229723  0.389331  0.662365  1.0
  H  H275  1  0.666797  0.579374  0.193282  1.0
  H  H276  1  0.333203  0.420626  0.806718  1.0
  H  H277  1  0.800187  0.546320  0.285527  1.0
  H  H278  1  0.199813  0.453680  0.714473  1.0
  H  H279  1  0.661737  0.689489  0.253554  1.0
  H  H280  1  0.338263  0.310511  0.746446  1.0
  H  H281  1  0.976831  0.567054  0.009002  1.0
  H  H282  1  0.023169  0.432946  0.990998  1.0
  H  H283  1  0.813027  0.483000  0.038484  1.0
  H  H284  1  0.186973  0.517000  0.961516  1.0
  H  H285  1  0.925664  0.490713  0.124630  1.0
  H  H286  1  0.074336  0.509287  0.875370  1.0
  H  H287  1  0.918061  0.560172  0.952556  1.0
  H  H288  1  0.081939  0.439828  0.047444  1.0
  H  H289  1  0.015331  0.078981  0.319566  1.0
  H  H290  1  0.984669  0.921019  0.680434  1.0
  H  H291  1  0.821438  0.254323  0.181751  1.0
  H  H292  1  0.178562  0.745677  0.818249  1.0
  H  H293  1  0.950597  0.208178  0.292254  1.0
  H  H294  1  0.049403  0.791822  0.707746  1.0
  H  H295  1  0.956796  0.101942  0.230227  1.0
  H  H296  1  0.043204  0.898058  0.769773  1.0
  H  H297  1  0.196419  0.989905  0.069034  1.0
  H  H298  1  0.803581  0.010095  0.930966  1.0
  H  H299  1  0.325487  0.796113  0.052356  1.0
  H  H300  1  0.674513  0.203887  0.947644  1.0
  H  H301  1  0.312548  0.882819  0.139224  1.0
  H  H302  1  0.687452  0.117181  0.860776  1.0
  H  H303  1  0.184657  0.932656  0.029527  1.0
  H  H304  1  0.815343  0.067344  0.970473  1.0
  H  H305  1  0.570158  0.984655  0.988423  1.0
  H  H306  1  0.429842  0.015345  0.011577  1.0
  H  H307  1  0.504046  0.826804  0.965214  1.0
  H  H308  1  0.495954  0.173196  0.034786  1.0
  H  H309  1  0.539650  0.904543  0.045524  1.0
  H  H310  1  0.460350  0.095457  0.954476  1.0
  H  H311  1  0.541808  0.978031  0.877035  1.0
  H  H312  1  0.458192  0.021969  0.122965  1.0
  H  H313  1  0.784355  0.865459  0.325998  1.0
  H  H314  1  0.215645  0.134541  0.674002  1.0
  H  H315  1  0.674712  0.106581  0.181739  1.0
  H  H316  1  0.325288  0.893419  0.818261  1.0
  H  H317  1  0.676120  0.939370  0.287125  1.0
  H  H318  1  0.323880  0.060630  0.712875  1.0
  H  H319  1  0.813081  0.957386  0.227199  1.0
  H  H320  1  0.186919  0.042614  0.772801  1.0
  H  H321  1  0.243646  0.110651  0.334315  1.0
  H  H322  1  0.756354  0.889349  0.665685  1.0
  H  H323  1  0.341675  0.263027  0.195268  1.0
  H  H324  1  0.658325  0.736973  0.804732  1.0
  H  H325  1  0.332970  0.098000  0.277613  1.0
  H  H326  1  0.667030  0.902000  0.722387  1.0
  H  H327  1  0.202921  0.246353  0.255720  1.0
  H  H328  1  0.797079  0.753647  0.744280  1.0
  H  H329  1  0.980926  0.721458  0.114610  1.0
  H  H330  1  0.019074  0.278542  0.885390  1.0
  H  H331  1  0.178909  0.654911  0.052969  1.0
  H  H332  1  0.821091  0.345089  0.947031  1.0
  H  H333  1  0.052121  0.631076  0.132858  1.0
  H  H334  1  0.947879  0.368924  0.867142  1.0
  H  H335  1  0.044303  0.801711  0.019455  1.0
  H  H336  1  0.955697  0.198289  0.980545  1.0
  C  C337  1  0.393700  0.515300  0.577000  1
  C  C338  1  0.606300  0.484700  0.423000  1
  C  C339  1  0.380500  0.582200  0.559300  1
  C  C340  1  0.619500  0.417800  0.440700  1
  C  C341  1  0.393900  0.413300  0.634500  1
  C  C342  1  0.606100  0.586700  0.365500  1
  C  C343  1  0.369300  0.489500  0.669500  1
  C  C344  1  0.630700  0.510500  0.330500  1
  C  C345  1  0.599900  0.859600  0.580500  1
  C  C346  1  0.400100  0.140400  0.419500  1
  C  C347  1  0.609100  0.864200  0.633600  1
  C  C348  1  0.390900  0.135800  0.366400  1
  C  C349  1  0.604300  0.804600  0.534200  1
  C  C350  1  0.395700  0.195400  0.465800  1
  C  C351  1  0.617800  0.754600  0.646200  1
  C  C352  1  0.382200  0.245400  0.353800  1
  C  C353  1  0.035200  0.630700  0.947200  1
  C  C354  1  0.964800  0.369300  0.052800  1
  C  C355  1  0.056500  0.618300  0.005900  1
  C  C356  1  0.943500  0.381700  0.994100  1
  C  C357  1  0.102600  0.670700  0.908700  1
  C  C358  1  0.897400  0.329300  0.091300  1
  C  C359  1  0.030400  0.668600  0.848500  1
  C  C360  1  0.969600  0.331400  0.151500  1
  C  C361  1  0.612800  0.014800  0.049900  1
  C  C362  1  0.387200  0.985200  0.950100  1
  C  C363  1  0.620300  0.061900  0.990200  1
  C  C364  1  0.379700  0.938100  0.009800  1
  C  C365  1  0.613200  0.970100  0.148400  1
  C  C366  1  0.386800  0.029900  0.851600  1
  C  C367  1  0.636300  0.068100  0.085100  1
  C  C368  1  0.363700  0.931900  0.914900  1
  C  C369  1  0.532600  0.428400  0.230000  1.0
  C  C370  1  0.467400  0.571600  0.770000  1.0
  C  C371  1  0.477100  0.372800  0.232900  1.0
  C  C372  1  0.522900  0.627200  0.767100  1.0
  C  C373  1  0.537700  0.296100  0.563800  1.0
  C  C374  1  0.462300  0.703900  0.436200  1.0
  C  C375  1  0.506500  0.218500  0.571200  1.0
  C  C376  1  0.493500  0.781500  0.428800  1.0
  C  C377  1  0.647800  0.462900  0.165600  1.0
  C  C378  1  0.352200  0.537100  0.834400  1.0
  C  C379  1  0.699800  0.429700  0.104700  1.0
  C  C380  1  0.300200  0.570300  0.895300  1.0
  C  C381  1  0.928400  0.415000  0.314800  1.0
  C  C382  1  0.071600  0.585000  0.685200  1.0
  C  C383  1  0.967200  0.332800  0.298100  1.0
  C  C384  1  0.032800  0.667200  0.701900  1.0
  C  C385  1  0.457500  0.683400  0.052800  1.0
  C  C386  1  0.542500  0.316600  0.947200  1.0
  C  C387  1  0.518100  0.589000  0.139300  1.0
  C  C388  1  0.481900  0.411000  0.860700  1.0
  C  C389  1  0.470300  0.879800  0.184500  1.0
  C  C390  1  0.529700  0.120200  0.815500  1.0
  C  C391  1  0.504100  0.786300  0.278900  1.0
  C  C392  1  0.495900  0.213700  0.721100  1.0
  C  C393  1  0.475700  0.286300  0.162000  1.0
  C  C394  1  0.524300  0.713700  0.838000  1.0
  C  C395  1  0.531800  0.252300  0.104500  1.0
  C  C396  1  0.468200  0.747700  0.895500  1.0
  C  C397  1  0.484200  0.950900  0.368500  1.0
  C  C398  1  0.515800  0.049100  0.631500  1.0
  C  C399  1  0.511400  0.927000  0.293900  1.0
  C  C400  1  0.488600  0.073000  0.706100  1.0
  C  C401  1  0.698700  0.483500  0.942300  1.0
  C  C402  1  0.301300  0.516500  0.057700  1.0
  C  C403  1  0.644200  0.582300  0.856100  1.0
  C  C404  1  0.355800  0.417700  0.143900  1.0
  C  C405  1  0.037100  0.999200  0.831600  1.0
  C  C406  1  0.962900  0.000800  0.168400  1.0
  C  C407  1  0.082800  0.008900  0.898000  1.0
  C  C408  1  0.917200  0.991100  0.102000  1.0
  C  C409  1  0.654300  0.273800  0.052100  1.0
  C  C410  1  0.345700  0.726200  0.947900  1.0
  C  C411  1  0.714100  0.324700  0.048400  1.0
  C  C412  1  0.285900  0.675300  0.951600  1.0
  C  C413  1  0.074800  0.437700  0.263800  1.0
  C  C414  1  0.925200  0.562300  0.736200  1.0
  C  C415  1  0.038300  0.466800  0.170600  1.0
  C  C416  1  0.961700  0.533200  0.829400  1.0
  C  C417  1  0.611700  0.306100  0.414600  1.0
  C  C418  1  0.388300  0.693900  0.585400  1.0
  C  C419  1  0.694400  0.321300  0.375200  1.0
  C  C420  1  0.305600  0.678700  0.624800  1.0
  C  C421  1  0.670900  0.297600  0.422700  1.0
  C  C422  1  0.329100  0.702400  0.577300  1.0
  C  C423  1  0.699900  0.269400  0.476700  1.0
  C  C424  1  0.300100  0.730600  0.523300  1.0
  C  C425  1  0.752700  0.268200  0.482000  1.0
  C  C426  1  0.247300  0.731800  0.518000  1.0
  C  C427  1  0.775900  0.290500  0.435000  1.0
  C  C428  1  0.224100  0.709500  0.565000  1.0
  C  C429  1  0.746500  0.317700  0.380700  1.0
  C  C430  1  0.253500  0.682300  0.619300  1.0
  C  C431  1  0.771200  0.347100  0.327600  1.0
  C  C432  1  0.228800  0.652900  0.672400  1.0
  C  C433  1  0.490500  0.436400  0.384600  1.0
  C  C434  1  0.509500  0.563600  0.615400  1.0
  C  C435  1  0.480900  0.547100  0.321900  1.0
  C  C436  1  0.519100  0.452900  0.678100  1.0
  C  C437  1  0.479000  0.500100  0.373100  1.0
  C  C438  1  0.521000  0.499900  0.626900  1.0
  C  C439  1  0.464800  0.510100  0.416900  1.0
  C  C440  1  0.535200  0.489900  0.583100  1.0
  C  C441  1  0.454800  0.566600  0.409600  1.0
  C  C442  1  0.545200  0.433400  0.590400  1.0
  C  C443  1  0.459300  0.613300  0.358800  1.0
  C  C444  1  0.540700  0.386700  0.641200  1.0
  C  C445  1  0.471600  0.603200  0.314600  1.0
  C  C446  1  0.528400  0.396800  0.685400  1.0
  C  C447  1  0.475900  0.655300  0.257200  1.0
  C  C448  1  0.524100  0.344700  0.742800  1.0
  C  C449  1  0.526100  0.226200  0.412000  1.0
  C  C450  1  0.473900  0.773800  0.588000  1.0
  C  C451  1  0.527500  0.163800  0.368500  1.0
  C  C452  1  0.472500  0.836200  0.631500  1.0
  C  C453  1  0.532300  0.165800  0.418100  1.0
  C  C454  1  0.467700  0.834200  0.581900  1.0
  C  C455  1  0.541800  0.114600  0.469800  1.0
  C  C456  1  0.458200  0.885400  0.530200  1.0
  C  C457  1  0.546300  0.058600  0.475500  1.0
  C  C458  1  0.453700  0.941400  0.524500  1.0
  C  C459  1  0.541600  0.058000  0.425800  1.0
  C  C460  1  0.458400  0.942000  0.574200  1.0
  C  C461  1  0.530700  0.109100  0.373200  1.0
  C  C462  1  0.469300  0.890900  0.626800  1.0
  C  C463  1  0.521700  0.108500  0.319100  1.0
  C  C464  1  0.478300  0.891500  0.680900  1.0
  C  C465  1  0.407700  0.357000  0.386300  1.0
  C  C466  1  0.592300  0.643000  0.613700  1.0
  C  C467  1  0.320300  0.395700  0.325100  1.0
  C  C468  1  0.679700  0.604300  0.674900  1.0
  C  C469  1  0.347400  0.372300  0.378900  1.0
  C  C470  1  0.652600  0.627700  0.621100  1.0
  C  C471  1  0.320500  0.360400  0.426000  1.0
  C  C472  1  0.679500  0.639600  0.574000  1.0
  C  C473  1  0.264300  0.372500  0.417900  1.0
  C  C474  1  0.735700  0.627500  0.582100  1.0
  C  C475  1  0.236400  0.394500  0.365000  1.0
  C  C476  1  0.763600  0.605500  0.635000  1.0
  C  C477  1  0.265500  0.405700  0.317300  1.0
  C  C478  1  0.734500  0.594300  0.682700  1.0
  C  C479  1  0.237300  0.425800  0.259700  1.0
  C  C480  1  0.762700  0.574200  0.740300  1.0
  C  C481  1  0.767000  0.497700  0.238500  1.0
  C  C482  1  0.233000  0.502300  0.761500  1.0
  C  C483  1  0.684000  0.589200  0.215000  1.0
  C  C484  1  0.316000  0.410800  0.785000  1.0
  C  C485  1  0.736700  0.555700  0.240100  1.0
  C  C486  1  0.263300  0.444300  0.759900  1.0
  C  C487  1  0.762800  0.570300  0.269000  1.0
  C  C488  1  0.237200  0.429700  0.731000  1.0
  C  C489  1  0.735200  0.619800  0.274600  1.0
  C  C490  1  0.264800  0.380200  0.725400  1.0
  C  C491  1  0.680500  0.654800  0.250100  1.0
  C  C492  1  0.319500  0.345200  0.749900  1.0
  C  C493  1  0.654200  0.640600  0.222000  1.0
  C  C494  1  0.345800  0.359400  0.778000  1.0
  C  C495  1  0.593500  0.676400  0.197900  1.0
  C  C496  1  0.406500  0.323600  0.802100  1.0
  C  C497  1  0.844500  0.450400  0.144200  1.0
  C  C498  1  0.155500  0.549600  0.855800  1.0
  C  C499  1  0.842900  0.494000  0.039100  1.0
  C  C500  1  0.157100  0.506000  0.960900  1.0
  C  C501  1  0.867100  0.482300  0.089500  1.0
  C  C502  1  0.132900  0.517700  0.910500  1.0
  C  C503  1  0.908900  0.498700  0.089900  1.0
  C  C504  1  0.091100  0.501300  0.910100  1.0
  C  C505  1  0.927500  0.528000  0.038100  1.0
  C  C506  1  0.072500  0.472000  0.961900  1.0
  C  C507  1  0.905200  0.540300  0.987100  1.0
  C  C508  1  0.094800  0.459700  0.012900  1.0
  C  C509  1  0.863100  0.522500  0.988800  1.0
  C  C510  1  0.136900  0.477500  0.011200  1.0
  C  C511  1  0.839700  0.532800  0.932200  1.0
  C  C512  1  0.160300  0.467200  0.067800  1.0
  C  C513  1  0.851600  0.297500  0.238100  1.0
  C  C514  1  0.148400  0.702500  0.761900  1.0
  C  C515  1  0.856500  0.226500  0.204200  1.0
  C  C516  1  0.143500  0.773500  0.795800  1.0
  C  C517  1  0.880900  0.237400  0.239900  1.0
  C  C518  1  0.119100  0.762600  0.760100  1.0
  C  C519  1  0.933400  0.199700  0.269200  1.0
  C  C520  1  0.066600  0.800300  0.730800  1.0
  C  C521  1  0.959400  0.151000  0.264500  1.0
  C  C522  1  0.040600  0.849000  0.735500  1.0
  C  C523  1  0.936500  0.137300  0.232100  1.0
  C  C524  1  0.063500  0.862700  0.767900  1.0
  C  C525  1  0.885000  0.173300  0.202100  1.0
  C  C526  1  0.115000  0.826700  0.797900  1.0
  C  C527  1  0.859200  0.161900  0.161700  1.0
  C  C528  1  0.140800  0.838100  0.838300  1.0
  C  C529  1  0.388600  0.795700  0.125500  1.0
  C  C530  1  0.611400  0.204300  0.874500  1.0
  C  C531  1  0.304700  0.825900  0.061500  1.0
  C  C532  1  0.695300  0.174100  0.938500  1.0
  C  C533  1  0.327800  0.832800  0.100600  1.0
  C  C534  1  0.672200  0.167200  0.899400  1.0
  C  C535  1  0.296900  0.878000  0.112000  1.0
  C  C536  1  0.703100  0.122000  0.888000  1.0
  C  C537  1  0.247600  0.913300  0.086100  1.0
  C  C538  1  0.752400  0.086700  0.913900  1.0
  C  C539  1  0.221600  0.906900  0.047200  1.0
  C  C540  1  0.778400  0.093100  0.952800  1.0
  C  C541  1  0.250800  0.862800  0.035600  1.0
  C  C542  1  0.749200  0.137200  0.964400  1.0
  C  C543  1  0.223700  0.857500  0.991400  1.0
  C  C544  1  0.776300  0.142500  0.008600  1.0
  C  C545  1  0.507500  0.813200  0.067100  1.0
  C  C546  1  0.492500  0.186800  0.932900  1.0
  C  C547  1  0.513400  0.857900  0.963900  1.0
  C  C548  1  0.486600  0.142100  0.036100  1.0
  C  C549  1  0.518800  0.860800  0.011000  1.0
  C  C550  1  0.481200  0.139200  0.989000  1.0
  C  C551  1  0.534800  0.904500  0.011300  1.0
  C  C552  1  0.465200  0.095500  0.988700  1.0
  C  C553  1  0.542800  0.945800  0.961900  1.0
  C  C554  1  0.457200  0.054200  0.038100  1.0
  C  C555  1  0.536500  0.947300  0.911700  1.0
  C  C556  1  0.463500  0.052700  0.088300  1.0
  C  C557  1  0.522000  0.902300  0.912900  1.0
  C  C558  1  0.478000  0.097700  0.087100  1.0
  C  C559  1  0.514100  0.903700  0.856300  1.0
  C  C560  1  0.485900  0.096300  0.143700  1.0
  C  C561  1  0.606400  0.055000  0.234300  1.0
  C  C562  1  0.393600  0.945000  0.765700  1.0
  C  C563  1  0.693600  0.063200  0.202200  1.0
  C  C564  1  0.306400  0.936800  0.797800  1.0
  C  C565  1  0.667300  0.027900  0.233400  1.0
  C  C566  1  0.332700  0.972100  0.766600  1.0
  C  C567  1  0.694300  0.964900  0.263800  1.0
  C  C568  1  0.305700  0.035100  0.736200  1.0
  C  C569  1  0.747800  0.939400  0.260100  1.0
  C  C570  1  0.252200  0.060600  0.739900  1.0
  C  C571  1  0.775800  0.975600  0.228300  1.0
  C  C572  1  0.224200  0.024400  0.771700  1.0
  C  C573  1  0.748900  0.037900  0.198500  1.0
  C  C574  1  0.251100  0.962100  0.801500  1.0
  C  C575  1  0.777300  0.078100  0.158500  1.0
  C  C576  1  0.222700  0.921900  0.841500  1.0
  C  C577  1  0.403100  0.148200  0.231200  1.0
  C  C578  1  0.596900  0.851800  0.768800  1.0
  C  C579  1  0.321200  0.238700  0.214100  1.0
  C  C580  1  0.678800  0.761300  0.785900  1.0
  C  C581  1  0.343300  0.177100  0.234400  1.0
  C  C582  1  0.656700  0.822900  0.765600  1.0
  C  C583  1  0.315900  0.140800  0.263100  1.0
  C  C584  1  0.684100  0.859200  0.736900  1.0
  C  C585  1  0.261300  0.165800  0.272200  1.0
  C  C586  1  0.738700  0.834200  0.727800  1.0
  C  C587  1  0.238800  0.228000  0.250800  1.0
  C  C588  1  0.761200  0.772000  0.749200  1.0
  C  C589  1  0.268700  0.265400  0.221300  1.0
  C  C590  1  0.731300  0.734600  0.778700  1.0
  C  C591  1  0.243700  0.333333  0.200600  1.0
  C  C592  1  0.756300  0.666667  0.799400  1.0
  C  C593  1  0.148600  0.564300  0.123800  1.0
  C  C594  1  0.851400  0.435700  0.876200  1.0
  C  C595  1  0.143200  0.671500  0.059400  1.0
  C  C596  1  0.856800  0.328500  0.940600  1.0
  C  C597  1  0.119900  0.633400  0.097200  1.0
  C  C598  1  0.880100  0.366600  0.902800  1.0
  C  C599  1  0.068300  0.657400  0.106600  1.0
  C  C600  1  0.931700  0.342600  0.893400  1.0
  C  C601  1  0.041400  0.718400  0.078100  1.0
  C  C602  1  0.958600  0.281600  0.921900  1.0
  C  C603  1  0.064000  0.758500  0.039200  1.0
  C  C604  1  0.936000  0.241500  0.960800  1.0
  C  C605  1  0.114100  0.734500  0.030500  1.0
  C  C606  1  0.885900  0.265500  0.969500  1.0
  C  C607  1  0.139900  0.777000  0.986500  1.0
  C  C608  1  0.860100  0.223000  0.013500  1.0
  N  N609  1  0.387100  0.480400  0.620500  1
  N  N610  1  0.612900  0.519600  0.379500  1
  N  N611  1  0.608400  0.812800  0.589100  1
  N  N612  1  0.391600  0.187200  0.410900  1
  N  N613  1  0.052300  0.654800  0.906700  1
  N  N614  1  0.947700  0.345200  0.093300  1
  N  N615  1  0.620300  0.019300  0.086500  1
  N  N616  1  0.379700  0.980700  0.913500  1
  N  N617  1  0.513200  0.381000  0.262000  1.0
  N  N618  1  0.486800  0.619000  0.738000  1.0
  N  N619  1  0.507300  0.278200  0.538600  1.0
  N  N620  1  0.492700  0.721800  0.461400  1.0
  N  N621  1  0.698500  0.433500  0.155200  1.0
  N  N622  1  0.301500  0.566500  0.844800  1.0
  N  N623  1  0.922200  0.362000  0.317800  1.0
  N  N624  1  0.077800  0.638000  0.682200  1.0
  N  N625  1  0.491200  0.652400  0.105100  1.0
  N  N626  1  0.508800  0.347600  0.894900  1.0
  N  N627  1  0.495500  0.817000  0.218600  1.0
  N  N628  1  0.504500  0.183000  0.781400  1.0
  N  N629  1  0.492100  0.245700  0.140400  1.0
  N  N630  1  0.507900  0.754300  0.859600  1.0
  N  N631  1  0.511200  0.959600  0.320600  1.0
  N  N632  1  0.488800  0.040400  0.679400  1.0
  N  N633  1  0.691600  0.526600  0.882100  1.0
  N  N634  1  0.308400  0.473400  0.117900  1.0
  N  N635  1  0.069200  0.967900  0.887600  1.0
  N  N636  1  0.930800  0.032100  0.112400  1.0
  N  N637  1  0.707900  0.268200  0.068400  1.0
  N  N638  1  0.292100  0.731800  0.931600  1.0
  N  N639  1  0.085500  0.427100  0.215700  1.0
  N  N640  1  0.914500  0.572900  0.784300  1.0
  O  O641  1  0.406700  0.501300  0.535700  1
  O  O642  1  0.593300  0.498700  0.464300  1
  O  O643  1  0.590500  0.907200  0.526100  1
  O  O644  1  0.409500  0.092800  0.473900  1
  O  O645  1  0.992100  0.615700  0.943000  1
  O  O646  1  0.007900  0.384300  0.057000  1
  O  O647  1  0.598400  0.969300  0.056400  1
  O  O648  1  0.401600  0.030700  0.943600  1
  O  O649  1  0.587900  0.328200  0.365900  1.0
  O  O650  1  0.412100  0.671800  0.634100  1.0
  O  O651  1  0.590600  0.289300  0.460300  1.0
  O  O652  1  0.409400  0.710700  0.539700  1.0
  O  O653  1  0.742100  0.369900  0.280300  1.0
  O  O654  1  0.257900  0.630100  0.719700  1.0
  O  O655  1  0.818500  0.346100  0.334800  1.0
  O  O656  1  0.181500  0.653900  0.665200  1.0
  O  O657  1  0.783500  0.238900  0.534900  1.0
  O  O658  1  0.216500  0.761100  0.465100  1.0
  O  O659  1  0.497200  0.432900  0.338900  1.0
  O  O660  1  0.502800  0.567100  0.661100  1.0
  O  O661  1  0.494400  0.393900  0.432000  1.0
  O  O662  1  0.505600  0.606100  0.568000  1.0
  O  O663  1  0.484200  0.644100  0.217700  1.0
  O  O664  1  0.515800  0.355900  0.782300  1.0
  O  O665  1  0.474000  0.702500  0.254700  1.0
  O  O666  1  0.526000  0.297500  0.745300  1.0
  O  O667  1  0.440300  0.580800  0.451500  1.0
  O  O668  1  0.559700  0.419200  0.548500  1.0
  O  O669  1  0.518700  0.270900  0.363500  1.0
  O  O670  1  0.481300  0.729100  0.636500  1.0
  O  O671  1  0.527400  0.225800  0.459700  1.0
  O  O672  1  0.472600  0.774200  0.540300  1.0
  O  O673  1  0.515900  0.156600  0.272600  1.0
  O  O674  1  0.484100  0.843400  0.727400  1.0
  O  O675  1  0.521200  0.060600  0.324600  1.0
  O  O676  1  0.478800  0.939400  0.675400  1.0
  O  O677  1  0.557600  0.009100  0.529800  1.0
  O  O678  1  0.442400  0.990900  0.470200  1.0
  O  O679  1  0.429000  0.374600  0.341700  1.0
  O  O680  1  0.571000  0.625400  0.658300  1.0
  O  O681  1  0.432200  0.329400  0.436100  1.0
  O  O682  1  0.567800  0.670600  0.563900  1.0
  O  O683  1  0.263200  0.434300  0.220900  1.0
  O  O684  1  0.736800  0.565700  0.779100  1.0
  O  O685  1  0.187600  0.429600  0.256700  1.0
  O  O686  1  0.812400  0.570400  0.743300  1.0
  O  O687  1  0.240600  0.361600  0.463700  1.0
  O  O688  1  0.759400  0.638400  0.536300  1.0
  O  O689  1  0.739900  0.488600  0.207700  1.0
  O  O690  1  0.260100  0.511400  0.792300  1.0
  O  O691  1  0.814300  0.465400  0.264100  1.0
  O  O692  1  0.185700  0.534600  0.735900  1.0
  O  O693  1  0.572900  0.664600  0.165700  1.0
  O  O694  1  0.427100  0.335400  0.834300  1.0
  O  O695  1  0.568900  0.715100  0.211500  1.0
  O  O696  1  0.431100  0.284900  0.788500  1.0
  O  O697  1  0.760100  0.638200  0.302700  1.0
  O  O698  1  0.239900  0.361800  0.697300  1.0
  O  O699  1  0.801100  0.446000  0.138900  1.0
  O  O700  1  0.198900  0.554000  0.861100  1.0
  O  O701  1  0.874000  0.433600  0.189800  1.0
  O  O702  1  0.126000  0.566400  0.810200  1.0
  O  O703  1  0.794500  0.527200  0.931500  1.0
  O  O704  1  0.205500  0.472800  0.068500  1.0
  O  O705  1  0.864000  0.549100  0.890700  1.0
  O  O706  1  0.136000  0.450900  0.109300  1.0
  O  O707  1  0.972000  0.544500  0.042100  1.0
  O  O708  1  0.028000  0.455500  0.957900  1.0
  O  O709  1  0.802600  0.330100  0.211300  1.0
  O  O710  1  0.197400  0.669900  0.788700  1.0
  O  O711  1  0.880800  0.310000  0.263100  1.0
  O  O712  1  0.119200  0.690000  0.736900  1.0
  O  O713  1  0.812300  0.200600  0.134400  1.0
  O  O714  1  0.187700  0.799400  0.865600  1.0
  O  O715  1  0.888200  0.117400  0.157200  1.0
  O  O716  1  0.111800  0.882600  0.842800  1.0
  O  O717  1  0.013600  0.113700  0.293500  1.0
  O  O718  1  0.986400  0.886300  0.706500  1.0
  O  O719  1  0.411900  0.751500  0.119000  1.0
  O  O720  1  0.588100  0.248500  0.881000  1.0
  O  O721  1  0.410600  0.811100  0.152800  1.0
  O  O722  1  0.589400  0.188900  0.847200  1.0
  O  O723  1  0.253700  0.813200  0.984400  1.0
  O  O724  1  0.746300  0.186800  0.015600  1.0
  O  O725  1  0.177700  0.894100  0.965800  1.0
  O  O726  1  0.822300  0.105900  0.034200  1.0
  O  O727  1  0.214700  0.957100  0.099400  1.0
  O  O728  1  0.785300  0.042900  0.900600  1.0
  O  O729  1  0.501700  0.769900  0.067600  1.0
  O  O730  1  0.498300  0.230100  0.932400  1.0
  O  O731  1  0.506100  0.821700  0.109000  1.0
  O  O732  1  0.493900  0.178300  0.891000  1.0
  O  O733  1  0.504900  0.858000  0.862200  1.0
  O  O734  1  0.495100  0.142000  0.137800  1.0
  O  O735  1  0.514100  0.948600  0.809700  1.0
  O  O736  1  0.485900  0.051400  0.190300  1.0
  O  O737  1  0.557700  0.993500  0.956000  1.0
  O  O738  1  0.442300  0.006500  0.044000  1.0
  O  O739  1  0.584900  0.113800  0.209300  1.0
  O  O740  1  0.415100  0.886200  0.790700  1.0
  O  O741  1  0.583100  0.019000  0.257700  1.0
  O  O742  1  0.416900  0.981000  0.742300  1.0
  O  O743  1  0.749100  0.136000  0.134600  1.0
  O  O744  1  0.250900  0.864000  0.865400  1.0
  O  O745  1  0.823700  0.053200  0.155900  1.0
  O  O746  1  0.176300  0.946800  0.844100  1.0
  O  O747  1  0.773200  0.876500  0.292300  1.0
  O  O748  1  0.226800  0.123500  0.707700  1.0
  O  O749  1  0.425100  0.182900  0.202100  1.0
  O  O750  1  0.574900  0.817100  0.797900  1.0
  O  O751  1  0.423700  0.089200  0.259100  1.0
  O  O752  1  0.576300  0.910800  0.740900  1.0
  O  O753  1  0.268500  0.365200  0.169800  1.0
  O  O754  1  0.731500  0.634800  0.830200  1.0
  O  O755  1  0.197600  0.352800  0.215200  1.0
  O  O756  1  0.802400  0.647200  0.784800  1.0
  O  O757  1  0.231400  0.132500  0.298900  1.0
  O  O758  1  0.768600  0.867500  0.701100  1.0
  O  O759  1  0.197200  0.543600  0.118000  1.0
  O  O760  1  0.802800  0.456400  0.882000  1.0
  O  O761  1  0.123100  0.531200  0.151900  1.0
  O  O762  1  0.876900  0.468800  0.848100  1.0
  O  O763  1  0.188300  0.751200  0.982400  1.0
  O  O764  1  0.811700  0.248800  0.017600  1.0
  O  O765  1  0.112900  0.833400  0.961700  1.0
  O  O766  1  0.887100  0.166600  0.038300  1.0
  O  O767  1  0.987700  0.746200  0.083800  1.0
  O  O768  1  0.012300  0.253800  0.916200  1.0
