# generated using pymatgen
data_NiH13C17(NO2)2
_symmetry_space_group_name_H-M   'P 1'
_cell_length_a   22.88340000
_cell_length_b   23.00380000
_cell_length_c   23.25820000
_cell_angle_alpha   66.75500000
_cell_angle_beta   85.48200000
_cell_angle_gamma   61.19100000
_symmetry_Int_Tables_number   1
_chemical_formula_structural   NiH13C17(NO2)2
_chemical_formula_sum   'Ni12 H156 C204 N24 O48'
_cell_volume   9762.23560607
_cell_formula_units_Z   12
loop_
 _symmetry_equiv_pos_site_id
 _symmetry_equiv_pos_as_xyz
  1  'x, y, z'
loop_
 _atom_site_type_symbol
 _atom_site_label
 _atom_site_symmetry_multiplicity
 _atom_site_fract_x
 _atom_site_fract_y
 _atom_site_fract_z
 _atom_site_occupancy
  Ni  Ni1  1  0.206570  0.652220  0.298990  1.0
  Ni  Ni2  1  0.793430  0.347780  0.701010  1.0
  Ni  Ni3  1  0.095760  0.712400  0.219810  1.0
  Ni  Ni4  1  0.904240  0.287600  0.780190  1.0
  Ni  Ni5  1  0.313370  0.679610  0.688090  1.0
  Ni  Ni6  1  0.686630  0.320390  0.311910  1.0
  Ni  Ni7  1  0.243630  0.751150  0.757190  1.0
  Ni  Ni8  1  0.756370  0.248850  0.242810  1.0
  Ni  Ni9  1  0.439170  0.216250  0.681560  1.0
  Ni  Ni10  1  0.560830  0.783750  0.318440  1.0
  Ni  Ni11  1  0.577460  0.896170  0.248650  1.0
  Ni  Ni12  1  0.422540  0.103830  0.751350  1.0
  H  H13  1  0.561637  0.135224  0.547416  1.0
  H  H14  1  0.438363  0.864776  0.452584  1.0
  H  H15  1  0.538504  0.962647  0.663991  1.0
  H  H16  1  0.461496  0.037353  0.336009  1.0
  H  H17  1  0.601461  0.895566  0.601861  1.0
  H  H18  1  0.398539  0.104434  0.398139  1.0
  H  H19  1  0.632258  0.163701  0.441045  1.0
  H  H20  1  0.367742  0.836299  0.558955  1.0
  H  H21  1  0.735426  0.056556  0.331657  1.0
  H  H22  1  0.264574  0.943444  0.668343  1.0
  H  H23  1  0.718397  0.957032  0.393282  1.0
  H  H24  1  0.281603  0.042968  0.606718  1.0
  H  H25  1  0.699397  0.871206  0.462377  1.0
  H  H26  1  0.300603  0.128794  0.537623  1.0
  H  H27  1  0.624388  0.829731  0.477674  1.0
  H  H28  1  0.375612  0.170269  0.522326  1.0
  H  H29  1  0.588295  0.915813  0.437521  1.0
  H  H30  1  0.411705  0.084187  0.562479  1.0
  H  H31  1  0.580184  0.883545  0.510592  1.0
  H  H32  1  0.419816  0.116455  0.489408  1.0
  H  H33  1  0.730195  0.770212  0.556707  1.0
  H  H34  1  0.269805  0.229788  0.443293  1.0
  H  H35  1  0.686620  0.820605  0.592731  1.0
  H  H36  1  0.313380  0.179395  0.407269  1.0
  H  H37  1  0.751659  0.823685  0.564546  1.0
  H  H38  1  0.248341  0.176315  0.435454  1.0
  H  H39  1  0.268381  0.330764  0.537709  1.0
  H  H40  1  0.731619  0.669236  0.462291  1.0
  H  H41  1  0.244231  0.157687  0.645681  1.0
  H  H42  1  0.755769  0.842313  0.354319  1.0
  H  H43  1  0.144981  0.206267  0.575726  1.0
  H  H44  1  0.855019  0.793733  0.424274  1.0
  H  H45  1  0.199836  0.458232  0.424891  1.0
  H  H46  1  0.800164  0.541768  0.575109  1.0
  H  H47  1  0.040244  0.540211  0.298434  1.0
  H  H48  1  0.959756  0.459789  0.701566  1.0
  H  H49  1  0.017459  0.445451  0.359128  1.0
  H  H50  1  0.982541  0.554549  0.640872  1.0
  H  H51  1  0.061162  0.258084  0.502148  1.0
  H  H52  1  0.938838  0.741916  0.497852  1.0
  H  H53  1  0.950553  0.346115  0.449188  1.0
  H  H54  1  0.049447  0.653885  0.550812  1.0
  H  H55  1  0.974908  0.404425  0.435016  1.0
  H  H56  1  0.025092  0.595575  0.564984  1.0
  H  H57  1  0.977033  0.353239  0.506423  1.0
  H  H58  1  0.022967  0.646761  0.493577  1.0
  H  H59  1  0.056382  0.242866  0.416012  1.0
  H  H60  1  0.943618  0.757134  0.583988  1.0
  H  H61  1  0.116555  0.261005  0.408938  1.0
  H  H62  1  0.883445  0.738995  0.591062  1.0
  H  H63  1  0.043420  0.322469  0.370296  1.0
  H  H64  1  0.956580  0.677531  0.629704  1.0
  H  H65  1  0.327294  0.353207  0.777699  1.0
  H  H66  1  0.672706  0.646793  0.222301  1.0
  H  H67  1  0.291793  0.187833  0.876431  1.0
  H  H68  1  0.708207  0.812167  0.123569  1.0
  H  H69  1  0.230101  0.246560  0.942750  1.0
  H  H70  1  0.769899  0.753440  0.057250  1.0
  H  H71  1  0.290638  0.489114  0.780514  1.0
  H  H72  1  0.709362  0.510886  0.219486  1.0
  H  H73  1  0.185835  0.597151  0.887027  1.0
  H  H74  1  0.814165  0.402849  0.112973  1.0
  H  H75  1  0.154994  0.507537  0.944457  1.0
  H  H76  1  0.845006  0.492463  0.055543  1.0
  H  H77  1  0.135404  0.413559  0.983210  1.0
  H  H78  1  0.864596  0.586441  0.016790  1.0
  H  H79  1  0.164049  0.307068  0.064261  1.0
  H  H80  1  0.835951  0.692932  0.935739  1.0
  H  H81  1  0.221965  0.328828  0.047987  1.0
  H  H82  1  0.778035  0.671172  0.952013  1.0
  H  H83  1  0.223470  0.268745  0.028542  1.0
  H  H84  1  0.776530  0.731255  0.971458  1.0
  H  H85  1  0.055546  0.407519  0.955021  1.0
  H  H86  1  0.944454  0.592481  0.044979  1.0
  H  H87  1  0.100942  0.325567  0.961829  1.0
  H  H88  1  0.899058  0.674433  0.038171  1.0
  H  H89  1  0.097065  0.391309  0.899398  1.0
  H  H90  1  0.902935  0.608691  0.100602  1.0
  H  H91  1  0.510850  0.570891  0.790263  1.0
  H  H92  1  0.489150  0.429109  0.209737  1.0
  H  H93  1  0.400570  0.668982  0.902369  1.0
  H  H94  1  0.599430  0.331018  0.097631  1.0
  H  H95  1  0.503604  0.626329  0.966725  1.0
  H  H96  1  0.496396  0.373671  0.033275  1.0
  H  H97  1  0.650073  0.468912  0.796526  1.0
  H  H98  1  0.349927  0.531088  0.203474  1.0
  H  H99  1  0.819931  0.367370  0.917451  1.0
  H  H100  1  0.180069  0.632630  0.082549  1.0
  H  H101  1  0.763634  0.434016  0.978866  1.0
  H  H102  1  0.236366  0.565984  0.021134  1.0
  H  H103  1  0.695183  0.492871  0.029715  1.0
  H  H104  1  0.304817  0.507129  0.970285  1.0
  H  H105  1  0.602001  0.507376  0.099147  1.0
  H  H106  1  0.397999  0.492624  0.900853  1.0
  H  H107  1  0.658465  0.433739  0.094582  1.0
  H  H108  1  0.341535  0.566261  0.905418  1.0
  H  H109  1  0.586143  0.479075  0.052795  1.0
  H  H110  1  0.413857  0.520925  0.947205  1.0
  H  H111  1  0.608195  0.608412  0.046390  1.0
  H  H112  1  0.391805  0.391588  0.953610  1.0
  H  H113  1  0.601527  0.633061  0.971451  1.0
  H  H114  1  0.398473  0.366939  0.028549  1.0
  H  H115  1  0.673139  0.597953  0.011051  1.0
  H  H116  1  0.326861  0.402047  0.988949  1.0
  H  H117  1  0.271338  0.813055  0.208008  1.0
  H  H118  1  0.728662  0.186945  0.791992  1.0
  H  H119  1  0.097374  0.905595  0.095790  1.0
  H  H120  1  0.902626  0.094405  0.904210  1.0
  H  H121  1  0.113729  0.002771  0.027472  1.0
  H  H122  1  0.886271  0.997229  0.972528  1.0
  H  H123  1  0.373076  0.850759  0.212577  1.0
  H  H124  1  0.626924  0.149241  0.787423  1.0
  H  H125  1  0.404750  0.017105  0.107143  1.0
  H  H126  1  0.595250  0.982895  0.892857  1.0
  H  H127  1  0.305185  0.075163  0.037557  1.0
  H  H128  1  0.694815  0.924837  0.962443  1.0
  H  H129  1  0.143450  0.085405  0.978341  1.0
  H  H130  1  0.856550  0.914595  0.021659  1.0
  H  H131  1  0.120107  0.193709  0.967565  1.0
  H  H132  1  0.879893  0.806291  0.032435  1.0
  H  H133  1  0.184805  0.159850  0.016790  1.0
  H  H134  1  0.815195  0.840150  0.983210  1.0
  H  H135  1  0.124543  0.143377  0.039965  1.0
  H  H136  1  0.875457  0.856623  0.960035  1.0
  H  H137  1  0.190915  0.118298  0.897655  1.0
  H  H138  1  0.809085  0.881702  0.102345  1.0
  H  H139  1  0.247447  0.037243  0.940860  1.0
  H  H140  1  0.752553  0.962757  0.059140  1.0
  H  H141  1  0.252394  0.105047  0.938904  1.0
  H  H142  1  0.747606  0.894953  0.061096  1.0
  H  H143  1  0.117154  0.745987  0.433183  1.0
  H  H144  1  0.882846  0.254013  0.566817  1.0
  H  H145  1  0.951362  0.834958  0.314297  1.0
  H  H146  1  0.048638  0.165042  0.685703  1.0
  H  H147  1  0.886295  0.907826  0.370296  1.0
  H  H148  1  0.113705  0.092174  0.629704  1.0
  H  H149  1  0.150737  0.752170  0.549347  1.0
  H  H150  1  0.849263  0.247830  0.450653  1.0
  H  H151  1  0.047308  0.866943  0.651437  1.0
  H  H152  1  0.952692  0.133057  0.348563  1.0
  H  H153  1  0.946764  0.921154  0.584903  1.0
  H  H154  1  0.053236  0.078846  0.415097  1.0
  H  H155  1  0.841826  0.967804  0.432714  1.0
  H  H156  1  0.158174  0.032196  0.567286  1.0
  H  H157  1  0.785664  0.980502  0.510668  1.0
  H  H158  1  0.214336  0.019498  0.489332  1.0
  H  H159  1  0.853367  0.942108  0.557664  1.0
  H  H160  1  0.146633  0.057892  0.442336  1.0
  H  H161  1  0.839129  0.896591  0.528997  1.0
  H  H162  1  0.160871  0.103409  0.471003  1.0
  H  H163  1  0.839520  0.065317  0.462029  1.0
  H  H164  1  0.160480  0.934683  0.537971  1.0
  H  H165  1  0.859212  0.055723  0.397531  1.0
  H  H166  1  0.140788  0.944277  0.602469  1.0
  H  H167  1  0.916913  0.020411  0.454690  1.0
  H  H168  1  0.083087  0.979589  0.545310  1.0
  C  C169  1  0.502500  0.096200  0.647900  1.0
  C  C170  1  0.497500  0.903800  0.352100  1.0
  C  C171  1  0.605500  0.049600  0.521400  1.0
  C  C172  1  0.394500  0.950400  0.478600  1.0
  C  C173  1  0.569600  0.087400  0.558100  1.0
  C  C174  1  0.430400  0.912600  0.441900  1.0
  C  C175  1  0.545100  0.053600  0.611300  1.0
  C  C176  1  0.454900  0.946400  0.388700  1.0
  C  C177  1  0.555600  0.983900  0.628000  1.0
  C  C178  1  0.444400  0.016100  0.372000  1.0
  C  C179  1  0.592400  0.943900  0.590600  1.0
  C  C180  1  0.407600  0.056100  0.409400  1.0
  C  C181  1  0.614100  0.979200  0.537100  1.0
  C  C182  1  0.385900  0.020800  0.462900  1.0
  C  C183  1  0.640500  0.062200  0.468500  1.0
  C  C184  1  0.359500  0.937800  0.531500  1.0
  C  C185  1  0.650600  0.121900  0.432000  1.0
  C  C186  1  0.349400  0.878100  0.568000  1.0
  C  C187  1  0.688200  0.116900  0.382400  1.0
  C  C188  1  0.311800  0.883100  0.617600  1.0
  C  C189  1  0.711900  0.057400  0.367100  1.0
  C  C190  1  0.288100  0.942600  0.632900  1.0
  C  C191  1  0.701500  0.998200  0.403200  1.0
  C  C192  1  0.298500  0.001800  0.596800  1.0
  C  C193  1  0.665700  0.002600  0.453600  1.0
  C  C194  1  0.334300  0.997400  0.546400  1.0
  C  C195  1  0.699600  0.180500  0.342400  1.0
  C  C196  1  0.300400  0.819500  0.657600  1.0
  C  C197  1  0.670300  0.876900  0.496400  1.0
  C  C198  1  0.329700  0.123100  0.503600  1.0
  C  C199  1  0.611000  0.876500  0.479100  1.0
  C  C200  1  0.389000  0.123500  0.520900  1.0
  C  C201  1  0.713500  0.817700  0.558000  1.0
  C  C202  1  0.286500  0.182300  0.442000  1.0
  C  C203  1  0.325200  0.212000  0.642700  1.0
  C  C204  1  0.674800  0.788000  0.357300  1.0
  C  C205  1  0.183500  0.337900  0.504800  1.0
  C  C206  1  0.816500  0.662100  0.495200  1.0
  C  C207  1  0.242500  0.306800  0.546000  1.0
  C  C208  1  0.757500  0.693200  0.454000  1.0
  C  C209  1  0.263400  0.241100  0.599000  1.0
  C  C210  1  0.736600  0.758900  0.401000  1.0
  C  C211  1  0.228500  0.203100  0.610400  1.0
  C  C212  1  0.771500  0.796900  0.389600  1.0
  C  C213  1  0.168700  0.232300  0.568900  1.0
  C  C214  1  0.831300  0.767700  0.431100  1.0
  C  C215  1  0.146700  0.299300  0.518700  1.0
  C  C216  1  0.853300  0.700700  0.481300  1.0
  C  C217  1  0.149400  0.399500  0.448500  1.0
  C  C218  1  0.850600  0.600500  0.551500  1.0
  C  C219  1  0.162100  0.457200  0.411900  1.0
  C  C220  1  0.837900  0.542800  0.588100  1.0
  C  C221  1  0.119600  0.511400  0.357600  1.0
  C  C222  1  0.880400  0.488600  0.642400  1.0
  C  C223  1  0.067600  0.504700  0.337700  1.0
  C  C224  1  0.932400  0.495300  0.662300  1.0
  C  C225  1  0.053900  0.447800  0.373200  1.0
  C  C226  1  0.946100  0.552200  0.626800  1.0
  C  C227  1  0.095900  0.395400  0.429400  1.0
  C  C228  1  0.904100  0.604600  0.570600  1.0
  C  C229  1  0.133200  0.572600  0.321300  1.0
  C  C230  1  0.866800  0.427400  0.678700  1.0
  C  C231  1  0.049500  0.303100  0.463000  1.0
  C  C232  1  0.950500  0.696900  0.537000  1.0
  C  C233  1  0.982800  0.355800  0.463400  1.0
  C  C234  1  0.017200  0.644200  0.536600  1.0
  C  C235  1  0.068000  0.280500  0.410100  1.0
  C  C236  1  0.932000  0.719500  0.589900  1.0
  C  C237  1  0.360100  0.224000  0.784200  1.0
  C  C238  1  0.639900  0.776000  0.215800  1.0
  C  C239  1  0.270700  0.369400  0.848400  1.0
  C  C240  1  0.729300  0.630600  0.151600  1.0
  C  C241  1  0.308000  0.331800  0.811300  1.0
  C  C242  1  0.692000  0.668200  0.188700  1.0
  C  C243  1  0.316700  0.264500  0.823200  1.0
  C  C244  1  0.683300  0.735500  0.176800  1.0
  C  C245  1  0.286900  0.233400  0.870100  1.0
  C  C246  1  0.713100  0.766600  0.129900  1.0
  C  C247  1  0.248900  0.268800  0.909100  1.0
  C  C248  1  0.751100  0.731200  0.090900  1.0
  C  C249  1  0.240200  0.336100  0.896800  1.0
  C  C250  1  0.759800  0.663900  0.103200  1.0
  C  C251  1  0.251300  0.435600  0.851600  1.0
  C  C252  1  0.748700  0.564400  0.148400  1.0
  C  C253  1  0.264800  0.492500  0.814200  1.0
  C  C254  1  0.735200  0.507500  0.185800  1.0
  C  C255  1  0.239700  0.552200  0.827800  1.0
  C  C256  1  0.760300  0.447800  0.172200  1.0
  C  C257  1  0.201000  0.556300  0.877100  1.0
  C  C258  1  0.799000  0.443700  0.122900  1.0
  C  C259  1  0.183500  0.502700  0.912700  1.0
  C  C260  1  0.816500  0.497300  0.087300  1.0
  C  C261  1  0.210700  0.442400  0.898300  1.0
  C  C262  1  0.789300  0.557600  0.101700  1.0
  C  C263  1  0.253400  0.613000  0.788000  1.0
  C  C264  1  0.746600  0.387000  0.212000  1.0
  C  C265  1  0.156200  0.368400  0.975200  1.0
  C  C266  1  0.843800  0.631600  0.024800  1.0
  C  C267  1  0.194300  0.314200  0.033300  1.0
  C  C268  1  0.805700  0.685800  0.966700  1.0
  C  C269  1  0.097400  0.373700  0.945300  1.0
  C  C270  1  0.902600  0.626300  0.054700  1.0
  C  C271  1  0.383900  0.656700  0.796200  1.0
  C  C272  1  0.616100  0.343300  0.203800  1.0
  C  C273  1  0.568000  0.543800  0.870500  1.0
  C  C274  1  0.432000  0.456200  0.129500  1.0
  C  C275  1  0.508600  0.578900  0.827600  1.0
  C  C276  1  0.491400  0.421100  0.172400  1.0
  C  C277  1  0.447700  0.624500  0.840100  1.0
  C  C278  1  0.552300  0.375500  0.159900  1.0
  C  C279  1  0.443300  0.639800  0.893000  1.0
  C  C280  1  0.556700  0.360200  0.107000  1.0
  C  C281  1  0.504600  0.610900  0.934200  1.0
  C  C282  1  0.495400  0.389100  0.065800  1.0
  C  C283  1  0.563700  0.560300  0.923900  1.0
  C  C284  1  0.436300  0.439700  0.076100  1.0
  C  C285  1  0.636100  0.498000  0.871800  1.0
  C  C286  1  0.363900  0.502000  0.128200  1.0
  C  C287  1  0.672800  0.462900  0.832600  1.0
  C  C288  1  0.327200  0.537100  0.167400  1.0
  C  C289  1  0.741800  0.419800  0.847100  1.0
  C  C290  1  0.258200  0.580200  0.152900  1.0
  C  C291  1  0.773900  0.403900  0.904400  1.0
  C  C292  1  0.226100  0.596100  0.095600  1.0
  C  C293  1  0.740400  0.440100  0.943000  1.0
  C  C294  1  0.259600  0.559900  0.057000  1.0
  C  C295  1  0.670800  0.485900  0.925900  1.0
  C  C296  1  0.329200  0.514100  0.074100  1.0
  C  C297  1  0.780700  0.380000  0.805800  1.0
  C  C298  1  0.219300  0.620000  0.194200  1.0
  C  C299  1  0.645000  0.523300  0.020700  1.0
  C  C300  1  0.355000  0.476700  0.979300  1.0
  C  C301  1  0.621000  0.482600  0.070800  1.0
  C  C302  1  0.379000  0.517400  0.929200  1.0
  C  C303  1  0.630700  0.597000  0.011600  1.0
  C  C304  1  0.369300  0.403000  0.988400  1.0
  C  C305  1  0.174100  0.785600  0.194500  1.0
  C  C306  1  0.825900  0.214400  0.805500  1.0
  C  C307  1  0.251500  0.908700  0.132400  1.0
  C  C308  1  0.748500  0.091300  0.867600  1.0
  C  C309  1  0.240600  0.850600  0.171100  1.0
  C  C310  1  0.759400  0.149400  0.828900  1.0
  C  C311  1  0.184400  0.848900  0.154700  1.0
  C  C312  1  0.815600  0.151100  0.845300  1.0
  C  C313  1  0.137400  0.905800  0.103700  1.0
  C  C314  1  0.862600  0.094200  0.896300  1.0
  C  C315  1  0.146400  0.964400  0.062900  1.0
  C  C316  1  0.853600  0.035600  0.937100  1.0
  C  C317  1  0.204600  0.963800  0.076300  1.0
  C  C318  1  0.795400  0.036200  0.923700  1.0
  C  C319  1  0.300700  0.928400  0.134900  1.0
  C  C320  1  0.699300  0.071600  0.865100  1.0
  C  C321  1  0.360700  0.894900  0.176600  1.0
  C  C322  1  0.639300  0.105100  0.823400  1.0
  C  C323  1  0.400500  0.926200  0.164900  1.0
  C  C324  1  0.599500  0.073800  0.835100  1.0
  C  C325  1  0.378300  0.994000  0.113700  1.0
  C  C326  1  0.621700  0.006000  0.886300  1.0
  C  C327  1  0.319100  0.029200  0.071700  1.0
  C  C328  1  0.680900  0.970800  0.928300  1.0
  C  C329  1  0.281800  0.993700  0.082600  1.0
  C  C330  1  0.718200  0.006300  0.917400  1.0
  C  C331  1  0.463300  0.892100  0.208600  1.0
  C  C332  1  0.536700  0.107900  0.791400  1.0
  C  C333  1  0.182100  0.088800  0.990800  1.0
  C  C334  1  0.817900  0.911200  0.009200  1.0
  C  C335  1  0.150400  0.151300  0.004900  1.0
  C  C336  1  0.849600  0.848700  0.995100  1.0
  C  C337  1  0.221500  0.087200  0.937600  1.0
  C  C338  1  0.778500  0.912800  0.062400  1.0
  C  C339  1  0.081500  0.747200  0.327500  1.0
  C  C340  1  0.918500  0.252800  0.672500  1.0
  C  C341  1  0.035900  0.820000  0.455700  1.0
  C  C342  1  0.964100  0.180000  0.544300  1.0
  C  C343  1  0.070800  0.780800  0.419400  1.0
  C  C344  1  0.929200  0.219200  0.580600  1.0
  C  C345  1  0.041100  0.790200  0.364900  1.0
  C  C346  1  0.958900  0.209800  0.635100  1.0
  C  C347  1  0.972900  0.833200  0.348700  1.0
  C  C348  1  0.027100  0.166800  0.651300  1.0
  C  C349  1  0.933300  0.875800  0.383100  1.0
  C  C350  1  0.066700  0.124200  0.616900  1.0
  C  C351  1  0.965600  0.869000  0.435900  1.0
  C  C352  1  0.034400  0.131000  0.564100  1.0
  C  C353  1  0.050600  0.823700  0.511900  1.0
  C  C354  1  0.949400  0.176300  0.488100  1.0
  C  C355  1  0.110300  0.789600  0.554100  1.0
  C  C356  1  0.889700  0.210400  0.445900  1.0
  C  C357  1  0.109600  0.811000  0.602200  1.0
  C  C358  1  0.890400  0.189000  0.397800  1.0
  C  C359  1  0.048400  0.857300  0.615100  1.0
  C  C360  1  0.951600  0.142700  0.384900  1.0
  C  C361  1  0.988500  0.889800  0.575700  1.0
  C  C362  1  0.011500  0.110200  0.424300  1.0
  C  C363  1  0.991400  0.875000  0.522300  1.0
  C  C364  1  0.008600  0.125000  0.477700  1.0
  C  C365  1  0.172900  0.774400  0.647700  1.0
  C  C366  1  0.827100  0.225600  0.352300  1.0
  C  C367  1  0.866400  0.964000  0.468800  1.0
  C  C368  1  0.133600  0.036000  0.531200  1.0
  C  C369  1  0.833700  0.944300  0.520400  1.0
  C  C370  1  0.166300  0.055700  0.479600  1.0
  C  C371  1  0.870900  0.032300  0.443600  1.0
  C  C372  1  0.129100  0.967700  0.556400  1.0
  N  N373  1  0.291400  0.603500  0.358000  1.0
  N  N374  1  0.708600  0.396500  0.642000  1.0
  N  N375  1  0.009200  0.765200  0.159200  1.0
  N  N376  1  0.990800  0.234800  0.840800  1.0
  N  N377  1  0.372100  0.620200  0.638300  1.0
  N  N378  1  0.627900  0.379800  0.361700  1.0
  N  N379  1  0.189600  0.802300  0.809600  1.0
  N  N380  1  0.810400  0.197700  0.190400  1.0
  N  N381  1  0.449800  0.306700  0.629200  1.0
  N  N382  1  0.550200  0.693300  0.370800  1.0
  N  N383  1  0.587300  0.986700  0.197900  1.0
  N  N384  1  0.412700  0.013300  0.802100  1.0
  N  N385  1  0.650800  0.950500  0.495700  1.0
  N  N386  1  0.349200  0.049500  0.504300  1.0
  N  N387  1  0.095800  0.332200  0.470200  1.0
  N  N388  1  0.904200  0.667800  0.529800  1.0
  N  N389  1  0.202900  0.380600  0.926600  1.0
  N  N390  1  0.797100  0.619400  0.073400  1.0
  N  N391  1  0.626500  0.527000  0.957300  1.0
  N  N392  1  0.373500  0.473000  0.042700  1.0
  N  N393  1  0.219800  0.019100  0.049700  1.0
  N  N394  1  0.780200  0.980900  0.950300  1.0
  N  N395  1  0.937600  0.901900  0.476900  1.0
  N  N396  1  0.062400  0.098100  0.523100  1.0
  O  O397  1  0.495500  0.157300  0.631500  1.0
  O  O398  1  0.504500  0.842700  0.368500  1.0
  O  O399  1  0.483500  0.061700  0.694300  1.0
  O  O400  1  0.516500  0.938300  0.305700  1.0
  O  O401  1  0.675800  0.231100  0.359500  1.0
  O  O402  1  0.324200  0.768900  0.640500  1.0
  O  O403  1  0.732200  0.171600  0.297400  1.0
  O  O404  1  0.267800  0.828400  0.702600  1.0
  O  O405  1  0.355400  0.246900  0.628500  1.0
  O  O406  1  0.644600  0.753100  0.371500  1.0
  O  O407  1  0.341700  0.151500  0.687200  1.0
  O  O408  1  0.658300  0.848500  0.312800  1.0
  O  O409  1  0.181300  0.574100  0.341300  1.0
  O  O410  1  0.818700  0.425900  0.658700  1.0
  O  O411  1  0.090300  0.621700  0.272500  1.0
  O  O412  1  0.909700  0.378300  0.727500  1.0
  O  O413  1  0.381200  0.258700  0.742400  1.0
  O  O414  1  0.618800  0.741300  0.257600  1.0
  O  O415  1  0.365500  0.163500  0.798700  1.0
  O  O416  1  0.634500  0.836500  0.201300  1.0
  O  O417  1  0.289000  0.603500  0.746000  1.0
  O  O418  1  0.711000  0.396500  0.254000  1.0
  O  O419  1  0.228100  0.666000  0.803500  1.0
  O  O420  1  0.771900  0.334000  0.196500  1.0
  O  O421  1  0.389600  0.639900  0.751300  1.0
  O  O422  1  0.610400  0.360100  0.248700  1.0
  O  O423  1  0.333500  0.697200  0.813100  1.0
  O  O424  1  0.666500  0.302800  0.186900  1.0
  O  O425  1  0.746400  0.395300  0.758000  1.0
  O  O426  1  0.253600  0.604700  0.242000  1.0
  O  O427  1  0.842400  0.341900  0.828900  1.0
  O  O428  1  0.157600  0.658100  0.171100  1.0
  O  O429  1  0.214900  0.737800  0.242300  1.0
  O  O430  1  0.785100  0.262200  0.757700  1.0
  O  O431  1  0.122300  0.788500  0.176800  1.0
  O  O432  1  0.877700  0.211500  0.823200  1.0
  O  O433  1  0.478900  0.833500  0.254700  1.0
  O  O434  1  0.521100  0.166500  0.745300  1.0
  O  O435  1  0.496200  0.924800  0.193400  1.0
  O  O436  1  0.503800  0.075200  0.806600  1.0
  O  O437  1  0.141600  0.711000  0.345300  1.0
  O  O438  1  0.858400  0.289000  0.654700  1.0
  O  O439  1  0.048900  0.757600  0.279300  1.0
  O  O440  1  0.951100  0.242400  0.720700  1.0
  O  O441  1  0.224400  0.729600  0.633700  1.0
  O  O442  1  0.775600  0.270400  0.366300  1.0
  O  O443  1  0.164500  0.792400  0.693200  1.0
  O  O444  1  0.835500  0.207600  0.306800  1.0
