# generated using pymatgen
data_P6Pt2C55(NF3)4
_symmetry_space_group_name_H-M   'P 1'
_cell_length_a   15.25350000
_cell_length_b   20.02730000
_cell_length_c   21.74610000
_cell_angle_alpha   112.73720000
_cell_angle_beta   90.00000000
_cell_angle_gamma   90.00000000
_symmetry_Int_Tables_number   1
_chemical_formula_structural   P6Pt2C55(NF3)4
_chemical_formula_sum   'P24 Pt8 C220 N16 F48'
_cell_volume   6126.88231052
_cell_formula_units_Z   4
loop_
 _symmetry_equiv_pos_site_id
 _symmetry_equiv_pos_as_xyz
  1  'x, y, z'
loop_
 _atom_site_type_symbol
 _atom_site_label
 _atom_site_symmetry_multiplicity
 _atom_site_fract_x
 _atom_site_fract_y
 _atom_site_fract_z
 _atom_site_occupancy
  P  P1  1  0.059900  0.670700  0.149500  1
  P  P2  1  0.559900  0.329300  0.350500  1
  P  P3  1  0.940100  0.329300  0.850500  1
  P  P4  1  0.440100  0.670700  0.649500  1
  P  P5  1  0.272700  0.961400  0.502800  1
  P  P6  1  0.772700  0.038600  0.997200  1
  P  P7  1  0.727300  0.038600  0.497200  1
  P  P8  1  0.227300  0.961400  0.002800  1
  P  P9  1  0.193000  0.175400  0.296600  1.0
  P  P10  1  0.693000  0.824600  0.203400  1.0
  P  P11  1  0.807000  0.824600  0.703400  1.0
  P  P12  1  0.307000  0.175400  0.796600  1.0
  P  P13  1  0.893900  0.198100  0.332500  1.0
  P  P14  1  0.393900  0.801900  0.167500  1.0
  P  P15  1  0.106100  0.801900  0.667500  1.0
  P  P16  1  0.606100  0.198100  0.832500  1.0
  P  P17  1  0.883600  0.350900  0.145100  1.0
  P  P18  1  0.383600  0.649100  0.354900  1.0
  P  P19  1  0.116400  0.649100  0.854900  1.0
  P  P20  1  0.616400  0.350900  0.645100  1.0
  P  P21  1  0.184600  0.350500  0.127700  1.0
  P  P22  1  0.684600  0.649500  0.372300  1.0
  P  P23  1  0.815400  0.649500  0.872300  1.0
  P  P24  1  0.315400  0.350500  0.627700  1.0
  Pt  Pt25  1  0.041500  0.186500  0.305000  1.0
  Pt  Pt26  1  0.541500  0.813500  0.195000  1.0
  Pt  Pt27  1  0.958500  0.813500  0.695000  1.0
  Pt  Pt28  1  0.458500  0.186500  0.805000  1.0
  Pt  Pt29  1  0.035100  0.341100  0.140700  1.0
  Pt  Pt30  1  0.535100  0.658900  0.359300  1.0
  Pt  Pt31  1  0.964900  0.658900  0.859300  1.0
  Pt  Pt32  1  0.464900  0.341100  0.640700  1.0
  C  C33  1  0.494900  0.793200  0.900500  1
  C  C34  1  0.994900  0.206800  0.599500  1
  C  C35  1  0.505100  0.206800  0.099500  1
  C  C36  1  0.005100  0.793200  0.400500  1
  C  C37  1  0.441000  0.810000  0.845000  1
  C  C38  1  0.941000  0.190000  0.655000  1
  C  C39  1  0.559000  0.190000  0.155000  1
  C  C40  1  0.059000  0.810000  0.345000  1
  C  C41  1  0.168700  0.577400  0.788100  1
  C  C42  1  0.668700  0.422600  0.711900  1
  C  C43  1  0.831300  0.422600  0.211900  1
  C  C44  1  0.331300  0.577400  0.288100  1
  C  C45  1  0.176600  0.739000  0.890000  1
  C  C46  1  0.676600  0.261000  0.610000  1
  C  C47  1  0.823400  0.261000  0.110000  1
  C  C48  1  0.323400  0.739000  0.390000  1
  C  C49  1  0.159400  0.627000  0.929300  1
  C  C50  1  0.659400  0.373000  0.570700  1
  C  C51  1  0.840600  0.373000  0.070700  1
  C  C52  1  0.340600  0.627000  0.429300  1
  C  C53  1  0.483000  0.955000  0.891000  1
  C  C54  1  0.983000  0.045000  0.609000  1
  C  C55  1  0.517000  0.045000  0.109000  1
  C  C56  1  0.017000  0.955000  0.391000  1
  C  C57  1  0.506000  0.973000  0.964900  1
  C  C58  1  0.006000  0.027000  0.535100  1
  C  C59  1  0.494000  0.027000  0.035100  1
  C  C60  1  0.994000  0.973000  0.464900  1
  C  C61  1  0.058700  0.286500  0.377200  1.0
  C  C62  1  0.558700  0.713500  0.122800  1.0
  C  C63  1  0.941300  0.713500  0.622800  1.0
  C  C64  1  0.441300  0.286500  0.877200  1.0
  C  C65  1  0.066900  0.290100  0.441800  1.0
  C  C66  1  0.566900  0.709900  0.058200  1.0
  C  C67  1  0.933100  0.709900  0.558200  1.0
  C  C68  1  0.433100  0.290100  0.941800  1.0
  C  C69  1  0.077500  0.356500  0.496400  1.0
  C  C70  1  0.577500  0.643500  0.003600  1.0
  C  C71  1  0.922500  0.643500  0.503600  1.0
  C  C72  1  0.422500  0.356500  0.996400  1.0
  C  C73  1  0.084900  0.419200  0.487200  1.0
  C  C74  1  0.584900  0.580800  0.012800  1.0
  C  C75  1  0.915100  0.580800  0.512800  1.0
  C  C76  1  0.415100  0.419200  0.987200  1.0
  C  C77  1  0.078000  0.419300  0.422000  1.0
  C  C78  1  0.578000  0.580700  0.078000  1.0
  C  C79  1  0.922000  0.580700  0.578000  1.0
  C  C80  1  0.422000  0.419300  0.922000  1.0
  C  C81  1  0.062900  0.352100  0.365300  1.0
  C  C82  1  0.562900  0.647900  0.134700  1.0
  C  C83  1  0.937100  0.647900  0.634700  1.0
  C  C84  1  0.437100  0.352100  0.865300  1.0
  C  C85  1  0.083200  0.483600  0.412700  1.0
  C  C86  1  0.583200  0.516400  0.087300  1.0
  C  C87  1  0.916800  0.516400  0.587300  1.0
  C  C88  1  0.416800  0.483600  0.912700  1.0
  C  C89  1  0.054400  0.356800  0.302000  1.0
  C  C90  1  0.554400  0.643200  0.198000  1.0
  C  C91  1  0.945600  0.643200  0.698000  1.0
  C  C92  1  0.445600  0.356800  0.802000  1.0
  C  C93  1  0.047500  0.427700  0.228600  1.0
  C  C94  1  0.547500  0.572300  0.271400  1.0
  C  C95  1  0.952500  0.572300  0.771400  1.0
  C  C96  1  0.452500  0.427700  0.728600  1.0
  C  C97  1  0.050600  0.495300  0.226700  1.0
  C  C98  1  0.550600  0.504700  0.273300  1.0
  C  C99  1  0.949400  0.504700  0.773300  1.0
  C  C100  1  0.449400  0.495300  0.726700  1.0
  C  C101  1  0.064000  0.559000  0.283500  1.0
  C  C102  1  0.564000  0.441000  0.216500  1.0
  C  C103  1  0.936000  0.441000  0.716500  1.0
  C  C104  1  0.436000  0.559000  0.783500  1.0
  C  C105  1  0.075900  0.554900  0.343200  1.0
  C  C106  1  0.575900  0.445100  0.156800  1.0
  C  C107  1  0.924100  0.445100  0.656800  1.0
  C  C108  1  0.424100  0.554900  0.843200  1.0
  C  C109  1  0.072700  0.487400  0.349900  1.0
  C  C110  1  0.572700  0.512600  0.150100  1.0
  C  C111  1  0.927300  0.512600  0.650100  1.0
  C  C112  1  0.427300  0.487400  0.849900  1.0
  C  C113  1  0.058300  0.421800  0.292800  1.0
  C  C114  1  0.558300  0.578200  0.207200  1.0
  C  C115  1  0.941700  0.578200  0.707200  1.0
  C  C116  1  0.441700  0.421800  0.792800  1.0
  C  C117  1  0.031800  0.019700  0.234800  1.0
  C  C118  1  0.531800  0.980300  0.265200  1.0
  C  C119  1  0.968200  0.980300  0.765200  1.0
  C  C120  1  0.468200  0.019700  0.734800  1.0
  C  C121  1  0.020300  0.953000  0.183000  1.0
  C  C122  1  0.520300  0.047000  0.317000  1.0
  C  C123  1  0.979700  0.047000  0.817000  1.0
  C  C124  1  0.479700  0.953000  0.683000  1.0
  C  C125  1  0.995700  0.949400  0.121800  1.0
  C  C126  1  0.495700  0.050600  0.378200  1.0
  C  C127  1  0.004300  0.050600  0.878200  1.0
  C  C128  1  0.504300  0.949400  0.621800  1.0
  C  C129  1  0.978500  0.015500  0.116900  1.0
  C  C130  1  0.478500  0.984500  0.383100  1.0
  C  C131  1  0.021500  0.984500  0.883100  1.0
  C  C132  1  0.521500  0.015500  0.616900  1.0
  C  C133  1  0.991300  0.078300  0.170400  1.0
  C  C134  1  0.491300  0.921700  0.329600  1.0
  C  C135  1  0.008700  0.921700  0.829600  1.0
  C  C136  1  0.508700  0.078300  0.670400  1.0
  C  C137  1  0.985900  0.881000  0.062700  1.0
  C  C138  1  0.485900  0.119000  0.437300  1.0
  C  C139  1  0.014100  0.119000  0.937300  1.0
  C  C140  1  0.514100  0.881000  0.562700  1.0
  C  C141  1  0.992300  0.813800  0.066800  1.0
  C  C142  1  0.492300  0.186200  0.433200  1.0
  C  C143  1  0.007700  0.186200  0.933200  1.0
  C  C144  1  0.507700  0.813800  0.566800  1.0
  C  C145  1  0.014400  0.248900  0.990000  1.0
  C  C146  1  0.514400  0.751100  0.510000  1.0
  C  C147  1  0.985600  0.751100  0.010000  1.0
  C  C148  1  0.485600  0.248900  0.490000  1.0
  C  C149  1  0.033200  0.182700  0.053600  1.0
  C  C150  1  0.533200  0.817300  0.446400  1.0
  C  C151  1  0.966800  0.817300  0.946400  1.0
  C  C152  1  0.466800  0.182700  0.553600  1.0
  C  C153  1  0.971700  0.881000  0.999800  1.0
  C  C154  1  0.471700  0.119000  0.500200  1.0
  C  C155  1  0.028300  0.119000  0.000200  1.0
  C  C156  1  0.528300  0.881000  0.499800  1.0
  C  C157  1  0.232900  0.101300  0.225300  1.0
  C  C158  1  0.732900  0.898700  0.274700  1.0
  C  C159  1  0.767100  0.898700  0.774700  1.0
  C  C160  1  0.267100  0.101300  0.725300  1.0
  C  C161  1  0.334300  0.091100  0.224900  1.0
  C  C162  1  0.834300  0.908900  0.275100  1.0
  C  C163  1  0.665700  0.908900  0.775100  1.0
  C  C164  1  0.165700  0.091100  0.724900  1.0
  C  C165  1  0.251100  0.254600  0.290900  1.0
  C  C166  1  0.751100  0.745400  0.209100  1.0
  C  C167  1  0.748900  0.745400  0.709100  1.0
  C  C168  1  0.248900  0.254600  0.790900  1.0
  C  C169  1  0.281000  0.311600  0.350800  1.0
  C  C170  1  0.781000  0.688400  0.149200  1.0
  C  C171  1  0.719000  0.688400  0.649200  1.0
  C  C172  1  0.219000  0.311600  0.850800  1.0
  C  C173  1  0.240900  0.169100  0.369300  1.0
  C  C174  1  0.740900  0.830900  0.130700  1.0
  C  C175  1  0.759100  0.830900  0.630700  1.0
  C  C176  1  0.259100  0.169100  0.869300  1.0
  C  C177  1  0.201500  0.100200  0.382500  1.0
  C  C178  1  0.701500  0.899800  0.117500  1.0
  C  C179  1  0.798500  0.899800  0.617500  1.0
  C  C180  1  0.298500  0.100200  0.882500  1.0
  C  C181  1  0.820800  0.135700  0.272000  1.0
  C  C182  1  0.320800  0.864300  0.228000  1.0
  C  C183  1  0.179200  0.864300  0.728000  1.0
  C  C184  1  0.679200  0.135700  0.772000  1.0
  C  C185  1  0.729100  0.127800  0.294400  1.0
  C  C186  1  0.229100  0.872200  0.205600  1.0
  C  C187  1  0.270900  0.872200  0.705600  1.0
  C  C188  1  0.770900  0.127800  0.794400  1.0
  C  C189  1  0.842400  0.286200  0.349100  1.0
  C  C190  1  0.342400  0.713800  0.150900  1.0
  C  C191  1  0.157600  0.713800  0.650900  1.0
  C  C192  1  0.657600  0.286200  0.849100  1.0
  C  C193  1  0.838900  0.341200  0.415500  1.0
  C  C194  1  0.338900  0.658800  0.084500  1.0
  C  C195  1  0.161100  0.658800  0.584500  1.0
  C  C196  1  0.661100  0.341200  0.915500  1.0
  C  C197  1  0.877900  0.181700  0.407000  1.0
  C  C198  1  0.377900  0.818300  0.093000  1.0
  C  C199  1  0.122100  0.818300  0.593000  1.0
  C  C200  1  0.622100  0.181700  0.907000  1.0
  C  C201  1  0.918700  0.111400  0.402800  1.0
  C  C202  1  0.418700  0.888600  0.097200  1.0
  C  C203  1  0.081300  0.888600  0.597200  1.0
  C  C204  1  0.581300  0.111400  0.902800  1.0
  C  C205  1  0.836900  0.344900  0.225400  1.0
  C  C206  1  0.336900  0.655100  0.274600  1.0
  C  C207  1  0.163100  0.655100  0.774600  1.0
  C  C208  1  0.663100  0.344900  0.725400  1.0
  C  C209  1  0.819900  0.417600  0.278400  1.0
  C  C210  1  0.319900  0.582400  0.221600  1.0
  C  C211  1  0.180100  0.582400  0.721600  1.0
  C  C212  1  0.680100  0.417600  0.778400  1.0
  C  C213  1  0.825000  0.275800  0.112000  1.0
  C  C214  1  0.325000  0.724200  0.388000  1.0
  C  C215  1  0.175000  0.724200  0.888000  1.0
  C  C216  1  0.675000  0.275800  0.612000  1.0
  C  C217  1  0.724300  0.278000  0.100900  1.0
  C  C218  1  0.224300  0.722000  0.399100  1.0
  C  C219  1  0.275700  0.722000  0.899100  1.0
  C  C220  1  0.775700  0.278000  0.600900  1.0
  C  C221  1  0.848300  0.433900  0.140400  1.0
  C  C222  1  0.348300  0.566100  0.359600  1.0
  C  C223  1  0.151700  0.566100  0.859600  1.0
  C  C224  1  0.651700  0.433900  0.640400  1.0
  C  C225  1  0.878200  0.440700  0.073700  1.0
  C  C226  1  0.378200  0.559300  0.426300  1.0
  C  C227  1  0.121800  0.559300  0.926300  1.0
  C  C228  1  0.621800  0.440700  0.573700  1.0
  C  C229  1  0.251900  0.379600  0.203100  1.0
  C  C230  1  0.751900  0.620400  0.296900  1.0
  C  C231  1  0.748100  0.620400  0.796900  1.0
  C  C232  1  0.248100  0.379600  0.703100  1.0
  C  C233  1  0.350400  0.382000  0.193200  1.0
  C  C234  1  0.850400  0.618000  0.306800  1.0
  C  C235  1  0.649600  0.618000  0.806800  1.0
  C  C236  1  0.149600  0.382000  0.693200  1.0
  C  C237  1  0.239300  0.270000  0.069500  1.0
  C  C238  1  0.739300  0.730000  0.430500  1.0
  C  C239  1  0.760700  0.730000  0.930500  1.0
  C  C240  1  0.260700  0.270000  0.569500  1.0
  C  C241  1  0.251500  0.211100  0.096200  1.0
  C  C242  1  0.751500  0.788900  0.403800  1.0
  C  C243  1  0.748500  0.788900  0.903800  1.0
  C  C244  1  0.248500  0.211100  0.596200  1.0
  C  C245  1  0.206000  0.419500  0.095300  1.0
  C  C246  1  0.706000  0.580500  0.404700  1.0
  C  C247  1  0.794000  0.580500  0.904700  1.0
  C  C248  1  0.294000  0.419500  0.595300  1.0
  C  C249  1  0.159300  0.409100  0.030700  1.0
  C  C250  1  0.659300  0.590900  0.469300  1.0
  C  C251  1  0.840700  0.590900  0.969300  1.0
  C  C252  1  0.340700  0.409100  0.530700  1.0
  N  N253  1  0.518500  0.776500  0.937000  1
  N  N254  1  0.018500  0.223500  0.563000  1
  N  N255  1  0.481500  0.223500  0.063000  1
  N  N256  1  0.981500  0.776500  0.437000  1
  N  N257  1  0.447000  0.940000  0.840000  1
  N  N258  1  0.947000  0.060000  0.660000  1
  N  N259  1  0.553000  0.060000  0.160000  1
  N  N260  1  0.053000  0.940000  0.340000  1
  N  N261  1  0.020900  0.082500  0.228100  1.0
  N  N262  1  0.520900  0.917500  0.271900  1.0
  N  N263  1  0.979100  0.917500  0.771900  1.0
  N  N264  1  0.479100  0.082500  0.728100  1.0
  N  N265  1  0.026100  0.247800  0.049700  1.0
  N  N266  1  0.526100  0.752200  0.450300  1.0
  N  N267  1  0.973900  0.752200  0.950300  1.0
  N  N268  1  0.473900  0.247800  0.549700  1.0
  F  F269  1  0.989900  0.652300  0.093400  1
  F  F270  1  0.489900  0.347700  0.406600  1
  F  F271  1  0.010100  0.347700  0.906600  1
  F  F272  1  0.510100  0.652300  0.593400  1
  F  F273  1  0.122100  0.698300  0.106200  1
  F  F274  1  0.622100  0.301700  0.393800  1
  F  F275  1  0.877900  0.301700  0.893800  1
  F  F276  1  0.377900  0.698300  0.606200  1
  F  F277  1  0.106100  0.594700  0.120300  1
  F  F278  1  0.606100  0.405300  0.379700  1
  F  F279  1  0.893900  0.405300  0.879700  1
  F  F280  1  0.393900  0.594700  0.620300  1
  F  F281  1  0.997500  0.643600  0.191300  1
  F  F282  1  0.497500  0.356400  0.308700  1
  F  F283  1  0.002500  0.356400  0.808700  1
  F  F284  1  0.502500  0.643600  0.691300  1
  F  F285  1  0.019900  0.750000  0.181300  1
  F  F286  1  0.519900  0.250000  0.318700  1
  F  F287  1  0.980100  0.250000  0.818700  1
  F  F288  1  0.480100  0.750000  0.681300  1
  F  F289  1  0.131200  0.691900  0.206800  1
  F  F290  1  0.631200  0.308100  0.293200  1
  F  F291  1  0.868800  0.308100  0.793200  1
  F  F292  1  0.368800  0.691900  0.706800  1
  F  F293  1  0.203300  0.905800  0.473200  1
  F  F294  1  0.703300  0.094200  0.026800  1
  F  F295  1  0.796700  0.094200  0.526800  1
  F  F296  1  0.296700  0.905800  0.973200  1
  F  F297  1  0.203700  0.008700  0.548300  1
  F  F298  1  0.703700  0.991300  0.951700  1
  F  F299  1  0.796300  0.991300  0.451700  1
  F  F300  1  0.296300  0.008700  0.048300  1
  F  F301  1  0.292100  0.916800  0.549400  1
  F  F302  1  0.792100  0.083200  0.950600  1
  F  F303  1  0.707900  0.083200  0.450600  1
  F  F304  1  0.207900  0.916800  0.049400  1
  F  F305  1  0.342400  0.910600  0.452300  1
  F  F306  1  0.842400  0.089400  0.047700  1
  F  F307  1  0.657600  0.089400  0.547700  1
  F  F308  1  0.157600  0.910600  0.952300  1
  F  F309  1  0.266800  0.998800  0.461200  1
  F  F310  1  0.766800  0.001200  0.038800  1
  F  F311  1  0.733200  0.001200  0.538800  1
  F  F312  1  0.233200  0.998800  0.961200  1
  F  F313  1  0.352000  0.006300  0.533400  1
  F  F314  1  0.852000  0.993700  0.966600  1
  F  F315  1  0.648000  0.993700  0.466600  1
  F  F316  1  0.148000  0.006300  0.033400  1
