# generated using pymatgen
data_Sn2P6Pd3C168Br9(N4O5)3
_symmetry_space_group_name_H-M   'P 1'
_cell_length_a   16.74520000
_cell_length_b   23.25740000
_cell_length_c   23.25740000
_cell_angle_alpha   120.00000000
_cell_angle_beta   90.00000000
_cell_angle_gamma   90.00000000
_symmetry_Int_Tables_number   1
_chemical_formula_structural   Sn2P6Pd3C168Br9(N4O5)3
_chemical_formula_sum   'Sn4 P12 Pd6 C336 Br18 N24 O30'
_cell_volume   7844.10313691
_cell_formula_units_Z   2
loop_
 _symmetry_equiv_pos_site_id
 _symmetry_equiv_pos_as_xyz
  1  'x, y, z'
loop_
 _atom_site_type_symbol
 _atom_site_label
 _atom_site_symmetry_multiplicity
 _atom_site_fract_x
 _atom_site_fract_y
 _atom_site_fract_z
 _atom_site_occupancy
  Sn  Sn1  1  0.973330  0.333333  0.666667  1.0
  Sn  Sn2  1  0.473330  0.666667  0.333333  1.0
  Sn  Sn3  1  0.526670  0.333333  0.666667  1.0
  Sn  Sn4  1  0.026670  0.666667  0.333333  1.0
  P  P5  1  0.891000  0.299700  0.358200  1.0
  P  P6  1  0.891000  0.058500  0.700300  1.0
  P  P7  1  0.891000  0.641800  0.941500  1.0
  P  P8  1  0.391000  0.941500  0.299700  1.0
  P  P9  1  0.391000  0.358200  0.058500  1.0
  P  P10  1  0.609000  0.299700  0.358200  1.0
  P  P11  1  0.109000  0.700300  0.641800  1.0
  P  P12  1  0.109000  0.941500  0.299700  1.0
  P  P13  1  0.109000  0.358200  0.058500  1.0
  P  P14  1  0.609000  0.058500  0.700300  1.0
  P  P15  1  0.609000  0.641800  0.941500  1.0
  P  P16  1  0.391000  0.700300  0.641800  1.0
  Pd  Pd17  1  0.750000  0.304120  0.363480  1.0
  Pd  Pd18  1  0.750000  0.059360  0.695880  1.0
  Pd  Pd19  1  0.750000  0.636520  0.940640  1.0
  Pd  Pd20  1  0.250000  0.940640  0.304120  1.0
  Pd  Pd21  1  0.250000  0.363480  0.059360  1.0
  Pd  Pd22  1  0.250000  0.695880  0.636520  1.0
  C  C23  1  0.750000  0.515700  0.663000  1
  C  C24  1  0.750000  0.147300  0.484300  1
  C  C25  1  0.750000  0.337000  0.852700  1
  C  C26  1  0.250000  0.852700  0.515700  1
  C  C27  1  0.250000  0.663000  0.147300  1
  C  C28  1  0.250000  0.484300  0.337000  1
  C  C29  1  0.750000  0.578900  0.663100  1
  C  C30  1  0.750000  0.084200  0.421100  1
  C  C31  1  0.750000  0.336900  0.915800  1
  C  C32  1  0.250000  0.915800  0.578900  1
  C  C33  1  0.250000  0.663100  0.084200  1
  C  C34  1  0.250000  0.421100  0.336900  1
  C  C35  1  0.250000  0.403000  0.842000  1
  C  C36  1  0.250000  0.439000  0.597000  1
  C  C37  1  0.250000  0.158000  0.561000  1
  C  C38  1  0.750000  0.561000  0.403000  1
  C  C39  1  0.750000  0.842000  0.439000  1
  C  C40  1  0.750000  0.597000  0.158000  1
  C  C41  1  0.179000  0.298000  0.788900  1
  C  C42  1  0.179000  0.490900  0.702000  1
  C  C43  1  0.179000  0.211100  0.509100  1
  C  C44  1  0.679000  0.509100  0.298000  1
  C  C45  1  0.679000  0.788900  0.490900  1
  C  C46  1  0.321000  0.298000  0.788900  1
  C  C47  1  0.821000  0.702000  0.211100  1
  C  C48  1  0.821000  0.509100  0.298000  1
  C  C49  1  0.821000  0.788900  0.490900  1
  C  C50  1  0.321000  0.490900  0.702000  1
  C  C51  1  0.321000  0.211100  0.509100  1
  C  C52  1  0.679000  0.702000  0.211100  1
  C  C53  1  0.316000  0.224000  0.207000  1
  C  C54  1  0.316000  0.983000  0.776000  1
  C  C55  1  0.316000  0.793000  0.017000  1
  C  C56  1  0.816000  0.017000  0.224000  1
  C  C57  1  0.816000  0.207000  0.983000  1
  C  C58  1  0.184000  0.224000  0.207000  1
  C  C59  1  0.684000  0.776000  0.793000  1
  C  C60  1  0.684000  0.017000  0.224000  1
  C  C61  1  0.684000  0.207000  0.983000  1
  C  C62  1  0.184000  0.983000  0.776000  1
  C  C63  1  0.184000  0.793000  0.017000  1
  C  C64  1  0.816000  0.776000  0.793000  1
  C  C65  1  0.250000  0.102000  0.131000  1
  C  C66  1  0.250000  0.029000  0.898000  1
  C  C67  1  0.250000  0.869000  0.971000  1
  C  C68  1  0.750000  0.971000  0.102000  1
  C  C69  1  0.750000  0.131000  0.029000  1
  C  C70  1  0.750000  0.898000  0.869000  1
  C  C71  1  0.181000  0.195000  0.430000  1
  C  C72  1  0.181000  0.235000  0.805000  1
  C  C73  1  0.181000  0.570000  0.765000  1
  C  C74  1  0.681000  0.765000  0.195000  1
  C  C75  1  0.681000  0.430000  0.235000  1
  C  C76  1  0.319000  0.195000  0.430000  1
  C  C77  1  0.819000  0.805000  0.570000  1
  C  C78  1  0.819000  0.765000  0.195000  1
  C  C79  1  0.819000  0.430000  0.235000  1
  C  C80  1  0.319000  0.235000  0.805000  1
  C  C81  1  0.319000  0.570000  0.765000  1
  C  C82  1  0.681000  0.805000  0.570000  1
  C  C83  1  0.250000  0.116000  0.238000  1
  C  C84  1  0.250000  0.122000  0.884000  1
  C  C85  1  0.250000  0.762000  0.878000  1
  C  C86  1  0.750000  0.878000  0.116000  1
  C  C87  1  0.750000  0.238000  0.122000  1
  C  C88  1  0.750000  0.884000  0.762000  1
  C  C89  1  0.250000  0.155000  0.701000  1
  C  C90  1  0.250000  0.546000  0.845000  1
  C  C91  1  0.250000  0.299000  0.454000  1
  C  C92  1  0.750000  0.454000  0.155000  1
  C  C93  1  0.750000  0.701000  0.546000  1
  C  C94  1  0.750000  0.845000  0.299000  1
  C  C95  1  0.250000  0.205000  0.380000  1
  C  C96  1  0.250000  0.175000  0.795000  1
  C  C97  1  0.250000  0.620000  0.825000  1
  C  C98  1  0.750000  0.825000  0.205000  1
  C  C99  1  0.750000  0.380000  0.175000  1
  C  C100  1  0.750000  0.795000  0.620000  1
  C  C101  1  0.618000  0.000000  0.000000  1
  C  C102  1  0.118000  0.000000  0.000000  1
  C  C103  1  0.882000  0.000000  0.000000  1
  C  C104  1  0.382000  0.000000  0.000000  1
  C  C105  1  0.500000  0.000000  0.000000  1
  C  C106  1  0.000000  0.000000  0.000000  1
  C  C107  1  0.250000  0.160000  0.324000  1
  C  C108  1  0.250000  0.164000  0.840000  1
  C  C109  1  0.250000  0.676000  0.836000  1
  C  C110  1  0.750000  0.836000  0.160000  1
  C  C111  1  0.750000  0.324000  0.164000  1
  C  C112  1  0.750000  0.840000  0.676000  1
  C  C113  1  0.250000  0.261000  0.368000  1
  C  C114  1  0.250000  0.107000  0.739000  1
  C  C115  1  0.250000  0.632000  0.893000  1
  C  C116  1  0.750000  0.893000  0.261000  1
  C  C117  1  0.750000  0.368000  0.107000  1
  C  C118  1  0.750000  0.739000  0.632000  1
  C  C119  1  0.676000  0.467000  0.558600  1.0
  C  C120  1  0.676000  0.091600  0.533000  1.0
  C  C121  1  0.676000  0.441400  0.908400  1.0
  C  C122  1  0.176000  0.908400  0.467000  1.0
  C  C123  1  0.176000  0.558600  0.091600  1.0
  C  C124  1  0.824000  0.467000  0.558600  1.0
  C  C125  1  0.324000  0.533000  0.441400  1.0
  C  C126  1  0.324000  0.908400  0.467000  1.0
  C  C127  1  0.324000  0.558600  0.091600  1.0
  C  C128  1  0.824000  0.091600  0.533000  1.0
  C  C129  1  0.824000  0.441400  0.908400  1.0
  C  C130  1  0.176000  0.533000  0.441400  1.0
  C  C131  1  0.677500  0.536300  0.564300  1.0
  C  C132  1  0.677500  0.028000  0.463700  1.0
  C  C133  1  0.677500  0.435700  0.972000  1.0
  C  C134  1  0.177500  0.972000  0.536300  1.0
  C  C135  1  0.177500  0.564300  0.028000  1.0
  C  C136  1  0.822500  0.536300  0.564300  1.0
  C  C137  1  0.322500  0.463700  0.435700  1.0
  C  C138  1  0.322500  0.972000  0.536300  1.0
  C  C139  1  0.322500  0.564300  0.028000  1.0
  C  C140  1  0.822500  0.028000  0.463700  1.0
  C  C141  1  0.822500  0.435700  0.972000  1.0
  C  C142  1  0.177500  0.463700  0.435700  1.0
  C  C143  1  0.013000  0.341700  0.552800  1.0
  C  C144  1  0.013000  0.211100  0.658300  1.0
  C  C145  1  0.013000  0.447200  0.788900  1.0
  C  C146  1  0.513000  0.788900  0.341700  1.0
  C  C147  1  0.513000  0.552800  0.211100  1.0
  C  C148  1  0.487000  0.341700  0.552800  1.0
  C  C149  1  0.987000  0.658300  0.447200  1.0
  C  C150  1  0.987000  0.788900  0.341700  1.0
  C  C151  1  0.987000  0.552800  0.211100  1.0
  C  C152  1  0.487000  0.211100  0.658300  1.0
  C  C153  1  0.487000  0.447200  0.788900  1.0
  C  C154  1  0.513000  0.658300  0.447200  1.0
  C  C155  1  0.937200  0.313300  0.537300  1.0
  C  C156  1  0.937200  0.224000  0.686700  1.0
  C  C157  1  0.937200  0.462700  0.776000  1.0
  C  C158  1  0.437200  0.776000  0.313300  1.0
  C  C159  1  0.437200  0.537300  0.224000  1.0
  C  C160  1  0.562800  0.313300  0.537300  1.0
  C  C161  1  0.062800  0.686700  0.462700  1.0
  C  C162  1  0.062800  0.776000  0.313300  1.0
  C  C163  1  0.062800  0.537300  0.224000  1.0
  C  C164  1  0.562800  0.224000  0.686700  1.0
  C  C165  1  0.562800  0.462700  0.776000  1.0
  C  C166  1  0.437200  0.686700  0.462700  1.0
  C  C167  1  0.902300  0.299100  0.478200  1.0
  C  C168  1  0.902300  0.179100  0.700900  1.0
  C  C169  1  0.902300  0.521800  0.820900  1.0
  C  C170  1  0.402300  0.820900  0.299100  1.0
  C  C171  1  0.402300  0.478200  0.179100  1.0
  C  C172  1  0.597700  0.299100  0.478200  1.0
  C  C173  1  0.097700  0.700900  0.521800  1.0
  C  C174  1  0.097700  0.820900  0.299100  1.0
  C  C175  1  0.097700  0.478200  0.179100  1.0
  C  C176  1  0.597700  0.179100  0.700900  1.0
  C  C177  1  0.597700  0.521800  0.820900  1.0
  C  C178  1  0.402300  0.700900  0.521800  1.0
  C  C179  1  0.939700  0.310400  0.431900  1.0
  C  C180  1  0.939700  0.121500  0.689600  1.0
  C  C181  1  0.939700  0.568100  0.878500  1.0
  C  C182  1  0.439700  0.878500  0.310400  1.0
  C  C183  1  0.439700  0.431900  0.121500  1.0
  C  C184  1  0.560300  0.310400  0.431900  1.0
  C  C185  1  0.060300  0.689600  0.568100  1.0
  C  C186  1  0.060300  0.878500  0.310400  1.0
  C  C187  1  0.060300  0.431900  0.121500  1.0
  C  C188  1  0.560300  0.121500  0.689600  1.0
  C  C189  1  0.560300  0.568100  0.878500  1.0
  C  C190  1  0.439700  0.689600  0.568100  1.0
  C  C191  1  0.016600  0.335500  0.445900  1.0
  C  C192  1  0.016600  0.110400  0.664500  1.0
  C  C193  1  0.016600  0.554100  0.889600  1.0
  C  C194  1  0.516600  0.889600  0.335500  1.0
  C  C195  1  0.516600  0.445900  0.110400  1.0
  C  C196  1  0.483400  0.335500  0.445900  1.0
  C  C197  1  0.983400  0.664500  0.554100  1.0
  C  C198  1  0.983400  0.889600  0.335500  1.0
  C  C199  1  0.983400  0.445900  0.110400  1.0
  C  C200  1  0.483400  0.110400  0.664500  1.0
  C  C201  1  0.483400  0.554100  0.889600  1.0
  C  C202  1  0.516600  0.664500  0.554100  1.0
  C  C203  1  0.053900  0.352100  0.505700  1.0
  C  C204  1  0.053900  0.153600  0.647900  1.0
  C  C205  1  0.053900  0.494300  0.846400  1.0
  C  C206  1  0.553900  0.846400  0.352100  1.0
  C  C207  1  0.553900  0.505700  0.153600  1.0
  C  C208  1  0.446100  0.352100  0.505700  1.0
  C  C209  1  0.946100  0.647900  0.494300  1.0
  C  C210  1  0.946100  0.846400  0.352100  1.0
  C  C211  1  0.946100  0.505700  0.153600  1.0
  C  C212  1  0.446100  0.153600  0.647900  1.0
  C  C213  1  0.446100  0.494300  0.846400  1.0
  C  C214  1  0.553900  0.647900  0.494300  1.0
  C  C215  1  0.920900  0.221000  0.288800  1.0
  C  C216  1  0.920900  0.067800  0.779000  1.0
  C  C217  1  0.920900  0.711200  0.932200  1.0
  C  C218  1  0.420900  0.932200  0.221000  1.0
  C  C219  1  0.420900  0.288800  0.067800  1.0
  C  C220  1  0.579100  0.221000  0.288800  1.0
  C  C221  1  0.079100  0.779000  0.711200  1.0
  C  C222  1  0.079100  0.932200  0.221000  1.0
  C  C223  1  0.079100  0.288800  0.067800  1.0
  C  C224  1  0.579100  0.067800  0.779000  1.0
  C  C225  1  0.579100  0.711200  0.932200  1.0
  C  C226  1  0.420900  0.779000  0.711200  1.0
  C  C227  1  0.991800  0.191300  0.288800  1.0
  C  C228  1  0.991800  0.097500  0.808700  1.0
  C  C229  1  0.991800  0.711200  0.902500  1.0
  C  C230  1  0.491800  0.902500  0.191300  1.0
  C  C231  1  0.491800  0.288800  0.097500  1.0
  C  C232  1  0.508200  0.191300  0.288800  1.0
  C  C233  1  0.008200  0.808700  0.711200  1.0
  C  C234  1  0.008200  0.902500  0.191300  1.0
  C  C235  1  0.008200  0.288800  0.097500  1.0
  C  C236  1  0.508200  0.097500  0.808700  1.0
  C  C237  1  0.508200  0.711200  0.902500  1.0
  C  C238  1  0.491800  0.808700  0.711200  1.0
  C  C239  1  0.013800  0.132600  0.232200  1.0
  C  C240  1  0.013800  0.099600  0.867400  1.0
  C  C241  1  0.013800  0.767800  0.900400  1.0
  C  C242  1  0.513800  0.900400  0.132600  1.0
  C  C243  1  0.513800  0.232200  0.099600  1.0
  C  C244  1  0.486200  0.132600  0.232200  1.0
  C  C245  1  0.986200  0.867400  0.767800  1.0
  C  C246  1  0.986200  0.900400  0.132600  1.0
  C  C247  1  0.986200  0.232200  0.099600  1.0
  C  C248  1  0.486200  0.099600  0.867400  1.0
  C  C249  1  0.486200  0.767800  0.900400  1.0
  C  C250  1  0.513800  0.867400  0.767800  1.0
  C  C251  1  0.966000  0.105700  0.178000  1.0
  C  C252  1  0.966000  0.072300  0.894300  1.0
  C  C253  1  0.966000  0.822000  0.927700  1.0
  C  C254  1  0.466000  0.927700  0.105700  1.0
  C  C255  1  0.466000  0.178000  0.072300  1.0
  C  C256  1  0.534000  0.105700  0.178000  1.0
  C  C257  1  0.034000  0.894300  0.822000  1.0
  C  C258  1  0.034000  0.927700  0.105700  1.0
  C  C259  1  0.034000  0.178000  0.072300  1.0
  C  C260  1  0.534000  0.072300  0.894300  1.0
  C  C261  1  0.534000  0.822000  0.927700  1.0
  C  C262  1  0.466000  0.894300  0.822000  1.0
  C  C263  1  0.898100  0.135600  0.176200  1.0
  C  C264  1  0.898100  0.040600  0.864400  1.0
  C  C265  1  0.898100  0.823800  0.959400  1.0
  C  C266  1  0.398100  0.959400  0.135600  1.0
  C  C267  1  0.398100  0.176200  0.040600  1.0
  C  C268  1  0.601900  0.135600  0.176200  1.0
  C  C269  1  0.101900  0.864400  0.823800  1.0
  C  C270  1  0.101900  0.959400  0.135600  1.0
  C  C271  1  0.101900  0.176200  0.040600  1.0
  C  C272  1  0.601900  0.040600  0.864400  1.0
  C  C273  1  0.601900  0.823800  0.959400  1.0
  C  C274  1  0.398100  0.864400  0.823800  1.0
  C  C275  1  0.873500  0.192900  0.232800  1.0
  C  C276  1  0.873500  0.039900  0.807100  1.0
  C  C277  1  0.873500  0.767200  0.960100  1.0
  C  C278  1  0.373500  0.960100  0.192900  1.0
  C  C279  1  0.373500  0.232800  0.039900  1.0
  C  C280  1  0.626500  0.192900  0.232800  1.0
  C  C281  1  0.126500  0.807100  0.767200  1.0
  C  C282  1  0.126500  0.960100  0.192900  1.0
  C  C283  1  0.126500  0.232800  0.039900  1.0
  C  C284  1  0.626500  0.039900  0.807100  1.0
  C  C285  1  0.626500  0.767200  0.960100  1.0
  C  C286  1  0.373500  0.807100  0.767200  1.0
  C  C287  1  0.940200  0.359800  0.342300  1.0
  C  C288  1  0.940200  0.982500  0.640200  1.0
  C  C289  1  0.940200  0.657700  0.017500  1.0
  C  C290  1  0.440200  0.017500  0.359800  1.0
  C  C291  1  0.440200  0.342300  0.982500  1.0
  C  C292  1  0.559800  0.359800  0.342300  1.0
  C  C293  1  0.059800  0.640200  0.657700  1.0
  C  C294  1  0.059800  0.017500  0.359800  1.0
  C  C295  1  0.059800  0.342300  0.982500  1.0
  C  C296  1  0.559800  0.982500  0.640200  1.0
  C  C297  1  0.559800  0.657700  0.017500  1.0
  C  C298  1  0.440200  0.640200  0.657700  1.0
  C  C299  1  0.943000  0.427800  0.392600  1.0
  C  C300  1  0.943000  0.964800  0.572200  1.0
  C  C301  1  0.943000  0.607400  0.035200  1.0
  C  C302  1  0.443000  0.035200  0.427800  1.0
  C  C303  1  0.443000  0.392600  0.964800  1.0
  C  C304  1  0.557000  0.427800  0.392600  1.0
  C  C305  1  0.057000  0.572200  0.607400  1.0
  C  C306  1  0.057000  0.035200  0.427800  1.0
  C  C307  1  0.057000  0.392600  0.964800  1.0
  C  C308  1  0.557000  0.964800  0.572200  1.0
  C  C309  1  0.557000  0.607400  0.035200  1.0
  C  C310  1  0.443000  0.572200  0.607400  1.0
  C  C311  1  0.977600  0.474600  0.381500  1.0
  C  C312  1  0.977600  0.906900  0.525400  1.0
  C  C313  1  0.977600  0.618500  0.093100  1.0
  C  C314  1  0.477600  0.093100  0.474600  1.0
  C  C315  1  0.477600  0.381500  0.906900  1.0
  C  C316  1  0.522400  0.474600  0.381500  1.0
  C  C317  1  0.022400  0.525400  0.618500  1.0
  C  C318  1  0.022400  0.093100  0.474600  1.0
  C  C319  1  0.022400  0.381500  0.906900  1.0
  C  C320  1  0.522400  0.906900  0.525400  1.0
  C  C321  1  0.522400  0.618500  0.093100  1.0
  C  C322  1  0.477600  0.525400  0.618500  1.0
  C  C323  1  0.012000  0.457400  0.323000  1.0
  C  C324  1  0.012000  0.865600  0.542600  1.0
  C  C325  1  0.012000  0.677000  0.134400  1.0
  C  C326  1  0.512000  0.134400  0.457400  1.0
  C  C327  1  0.512000  0.323000  0.865600  1.0
  C  C328  1  0.488000  0.457400  0.323000  1.0
  C  C329  1  0.988000  0.542600  0.677000  1.0
  C  C330  1  0.988000  0.134400  0.457400  1.0
  C  C331  1  0.988000  0.323000  0.865600  1.0
  C  C332  1  0.488000  0.865600  0.542600  1.0
  C  C333  1  0.488000  0.677000  0.134400  1.0
  C  C334  1  0.512000  0.542600  0.677000  1.0
  C  C335  1  0.015500  0.391100  0.272900  1.0
  C  C336  1  0.015500  0.881800  0.608900  1.0
  C  C337  1  0.015500  0.727100  0.118200  1.0
  C  C338  1  0.515500  0.118200  0.391100  1.0
  C  C339  1  0.515500  0.272900  0.881800  1.0
  C  C340  1  0.484500  0.391100  0.272900  1.0
  C  C341  1  0.984500  0.608900  0.727100  1.0
  C  C342  1  0.984500  0.118200  0.391100  1.0
  C  C343  1  0.984500  0.272900  0.881800  1.0
  C  C344  1  0.484500  0.881800  0.608900  1.0
  C  C345  1  0.484500  0.727100  0.118200  1.0
  C  C346  1  0.515500  0.608900  0.727100  1.0
  C  C347  1  0.979100  0.343400  0.284200  1.0
  C  C348  1  0.979100  0.940800  0.656600  1.0
  C  C349  1  0.979100  0.715800  0.059200  1.0
  C  C350  1  0.479100  0.059200  0.343400  1.0
  C  C351  1  0.479100  0.284200  0.940800  1.0
  C  C352  1  0.520900  0.343400  0.284200  1.0
  C  C353  1  0.020900  0.656600  0.715800  1.0
  C  C354  1  0.020900  0.059200  0.343400  1.0
  C  C355  1  0.020900  0.284200  0.940800  1.0
  C  C356  1  0.520900  0.940800  0.656600  1.0
  C  C357  1  0.520900  0.715800  0.059200  1.0
  C  C358  1  0.479100  0.656600  0.715800  1.0
  Br  Br359  1  0.750000  0.400300  0.351200  1
  Br  Br360  1  0.750000  0.950900  0.599700  1
  Br  Br361  1  0.750000  0.648800  0.049100  1
  Br  Br362  1  0.250000  0.049100  0.400300  1
  Br  Br363  1  0.250000  0.351200  0.950900  1
  Br  Br364  1  0.250000  0.599700  0.648800  1
  Br  Br365  1  0.750000  0.196180  0.357600  1.0
  Br  Br366  1  0.750000  0.161420  0.803820  1.0
  Br  Br367  1  0.750000  0.642400  0.838580  1.0
  Br  Br368  1  0.250000  0.838580  0.196180  1.0
  Br  Br369  1  0.250000  0.357600  0.161420  1.0
  Br  Br370  1  0.250000  0.803820  0.642400  1.0
  Br  Br371  1  0.750000  0.416500  0.382400  1.0
  Br  Br372  1  0.750000  0.965900  0.583500  1.0
  Br  Br373  1  0.750000  0.617600  0.034100  1.0
  Br  Br374  1  0.250000  0.034100  0.416500  1.0
  Br  Br375  1  0.250000  0.382400  0.965900  1.0
  Br  Br376  1  0.250000  0.583500  0.617600  1.0
  N  N377  1  0.750000  0.461200  0.592700  1
  N  N378  1  0.750000  0.131500  0.538800  1
  N  N379  1  0.750000  0.407300  0.868500  1
  N  N380  1  0.250000  0.868500  0.461200  1
  N  N381  1  0.250000  0.592700  0.131500  1
  N  N382  1  0.250000  0.538800  0.407300  1
  N  N383  1  0.750000  0.573300  0.598400  1
  N  N384  1  0.750000  0.025100  0.426700  1
  N  N385  1  0.750000  0.401600  0.974900  1
  N  N386  1  0.250000  0.974900  0.573300  1
  N  N387  1  0.250000  0.598400  0.025100  1
  N  N388  1  0.250000  0.426700  0.401600  1
  N  N389  1  0.250000  0.318000  0.773000  1
  N  N390  1  0.250000  0.455000  0.682000  1
  N  N391  1  0.250000  0.227000  0.545000  1
  N  N392  1  0.750000  0.545000  0.318000  1
  N  N393  1  0.750000  0.773000  0.455000  1
  N  N394  1  0.750000  0.682000  0.227000  1
  N  N395  1  0.250000  0.184000  0.186000  1
  N  N396  1  0.250000  0.002000  0.816000  1
  N  N397  1  0.250000  0.814000  0.998000  1
  N  N398  1  0.750000  0.998000  0.184000  1
  N  N399  1  0.750000  0.186000  0.002000  1
  N  N400  1  0.750000  0.816000  0.814000  1
  O  O401  1  0.750000  0.348500  0.594200  1
  O  O402  1  0.750000  0.245700  0.651500  1
  O  O403  1  0.750000  0.405800  0.754300  1
  O  O404  1  0.250000  0.754300  0.348500  1
  O  O405  1  0.250000  0.594200  0.245700  1
  O  O406  1  0.250000  0.651500  0.405800  1
  O  O407  1  0.044200  0.359900  0.612200  1.0
  O  O408  1  0.044200  0.252300  0.640100  1.0
  O  O409  1  0.044200  0.387800  0.747700  1.0
  O  O410  1  0.544200  0.747700  0.359900  1.0
  O  O411  1  0.544200  0.612200  0.252300  1.0
  O  O412  1  0.455800  0.359900  0.612200  1.0
  O  O413  1  0.955800  0.640100  0.387800  1.0
  O  O414  1  0.955800  0.747700  0.359900  1.0
  O  O415  1  0.955800  0.612200  0.252300  1.0
  O  O416  1  0.455800  0.252300  0.640100  1.0
  O  O417  1  0.455800  0.387800  0.747700  1.0
  O  O418  1  0.544200  0.640100  0.387800  1.0
  O  O419  1  0.902600  0.300900  0.583400  1.0
  O  O420  1  0.902600  0.282500  0.699100  1.0
  O  O421  1  0.902600  0.416600  0.717500  1.0
  O  O422  1  0.402600  0.717500  0.300900  1.0
  O  O423  1  0.402600  0.583400  0.282500  1.0
  O  O424  1  0.597400  0.300900  0.583400  1.0
  O  O425  1  0.097400  0.699100  0.416600  1.0
  O  O426  1  0.097400  0.717500  0.300900  1.0
  O  O427  1  0.097400  0.583400  0.282500  1.0
  O  O428  1  0.597400  0.282500  0.699100  1.0
  O  O429  1  0.597400  0.416600  0.717500  1.0
  O  O430  1  0.402600  0.699100  0.416600  1.0
