# generated using pymatgen
data_Si4Ag2H52C35S2N4O7F6
_symmetry_space_group_name_H-M   'P 1'
_cell_length_a   9.63230000
_cell_length_b   15.20560000
_cell_length_c   18.39680000
_cell_angle_alpha   66.58700000
_cell_angle_beta   79.76100000
_cell_angle_gamma   85.35500000
_symmetry_Int_Tables_number   1
_chemical_formula_structural   Si4Ag2H52C35S2N4O7F6
_chemical_formula_sum   'Si8 Ag4 H104 C70 S4 N8 O14 F12'
_cell_volume   2433.09676054
_cell_formula_units_Z   2
loop_
 _symmetry_equiv_pos_site_id
 _symmetry_equiv_pos_as_xyz
  1  'x, y, z'
loop_
 _atom_site_type_symbol
 _atom_site_label
 _atom_site_symmetry_multiplicity
 _atom_site_fract_x
 _atom_site_fract_y
 _atom_site_fract_z
 _atom_site_occupancy
  Si  Si1  1  0.346400  0.615060  0.116570  1
  Si  Si2  1  0.653600  0.384940  0.883430  1
  Si  Si3  1  0.995000  0.390400  0.224400  1
  Si  Si4  1  0.005000  0.609600  0.775600  1
  Si  Si5  1  0.519000  0.124370  0.285660  1
  Si  Si6  1  0.481000  0.875630  0.714340  1
  Si  Si7  1  0.175700  0.892960  0.388700  1
  Si  Si8  1  0.824300  0.107040  0.611300  1
  Ag  Ag9  1  0.986620  0.942420  0.128840  1
  Ag  Ag10  1  0.013380  0.057580  0.871160  1
  Ag  Ag11  1  0.529690  0.558970  0.388040  1
  Ag  Ag12  1  0.470310  0.441030  0.611960  1
  H  H13  1  0.128300  0.761800  0.112100  1
  H  H14  1  0.871700  0.238200  0.887900  1
  H  H15  1  0.528600  0.736700  0.154200  1
  H  H16  1  0.471400  0.263300  0.845800  1
  H  H17  1  0.500800  0.883900  0.167200  1
  H  H18  1  0.499200  0.116100  0.832800  1
  H  H19  1  0.287600  0.964200  0.154200  1
  H  H20  1  0.712400  0.035800  0.845800  1
  H  H21  1  0.134700  0.567400  0.208600  1
  H  H22  1  0.865300  0.432600  0.791400  1
  H  H23  1  0.106900  0.587200  0.120400  1
  H  H24  1  0.893100  0.412800  0.879600  1
  H  H25  1  0.238200  0.416200  0.219200  1
  H  H26  1  0.761800  0.583800  0.780800  1
  H  H27  1  0.208700  0.436000  0.131200  1
  H  H28  1  0.791300  0.564000  0.868800  1
  H  H29  1  0.088200  0.377900  0.370800  1
  H  H30  1  0.911800  0.622100  0.629200  1
  H  H31  1  0.997900  0.422500  0.477500  1
  H  H32  1  0.002100  0.577500  0.522500  1
  H  H33  1  0.779600  0.498000  0.479800  1
  H  H34  1  0.220400  0.502000  0.520200  1
  H  H35  1  0.735300  0.481400  0.277000  1
  H  H36  1  0.264700  0.518600  0.723000  1
  H  H37  1  0.402600  0.574700  0.002600  1
  H  H38  1  0.597400  0.425300  0.997400  1
  H  H39  1  0.484700  0.669600  0.986800  1
  H  H40  1  0.515300  0.330400  0.013200  1
  H  H41  1  0.321000  0.675700  0.979100  1
  H  H42  1  0.679000  0.324300  0.020900  1
  H  H43  1  0.499800  0.481000  0.165600  1
  H  H44  1  0.500200  0.519000  0.834400  1
  H  H45  1  0.465200  0.531500  0.228400  1
  H  H46  1  0.534800  0.468500  0.771600  1
  H  H47  1  0.578600  0.577400  0.149000  1
  H  H48  1  0.421400  0.422600  0.851000  1
  H  H49  1  0.784300  0.405900  0.169900  1
  H  H50  1  0.215700  0.594100  0.830100  1
  H  H51  1  0.918000  0.419600  0.101100  1
  H  H52  1  0.082000  0.580400  0.898900  1
  H  H53  1  0.866400  0.505400  0.129300  1
  H  H54  1  0.133600  0.494600  0.870700  1
  H  H55  1  0.922200  0.228200  0.288700  1
  H  H56  1  0.077800  0.771800  0.711300  1
  H  H57  1  0.074100  0.237700  0.308500  1
  H  H58  1  0.925900  0.762300  0.691500  1
  H  H59  1  0.060200  0.236800  0.223400  1
  H  H60  1  0.939800  0.763200  0.776600  1
  H  H61  1  0.778200  0.025600  0.240500  1
  H  H62  1  0.221800  0.974400  0.759500  1
  H  H63  1  0.441400  0.141800  0.132700  1
  H  H64  1  0.558600  0.858200  0.867300  1
  H  H65  1  0.540500  0.097800  0.026200  1
  H  H66  1  0.459500  0.902200  0.973800  1
  H  H67  1  0.758800  0.020800  0.029700  1
  H  H68  1  0.241200  0.979200  0.970300  1
  H  H69  1  0.304100  0.072100  0.376800  1
  H  H70  1  0.695900  0.927900  0.623200  1
  H  H71  1  0.278600  0.094400  0.287700  1
  H  H72  1  0.721400  0.905600  0.712300  1
  H  H73  1  0.416500  0.925200  0.382600  1
  H  H74  1  0.583500  0.074800  0.617400  1
  H  H75  1  0.386000  0.947400  0.294400  1
  H  H76  1  0.614000  0.052600  0.705600  1
  H  H77  1  0.384200  0.739200  0.405300  1
  H  H78  1  0.615800  0.260800  0.594700  1
  H  H79  1  0.244300  0.551900  0.336800  1
  H  H80  1  0.755700  0.448100  0.663200  1
  H  H81  1  0.040800  0.639200  0.311300  1
  H  H82  1  0.959200  0.360800  0.688700  1
  H  H83  1  0.010300  0.784800  0.328600  1
  H  H84  1  0.989700  0.215200  0.671400  1
  H  H85  1  0.727000  0.119600  0.339200  1
  H  H86  1  0.273000  0.880400  0.660800  1
  H  H87  1  0.652600  0.017200  0.381700  1
  H  H88  1  0.347400  0.982800  0.618300  1
  H  H89  1  0.592300  0.103400  0.407900  1
  H  H90  1  0.407700  0.896600  0.592100  1
  H  H91  1  0.588000  0.288400  0.221400  1
  H  H92  1  0.412000  0.711600  0.778600  1
  H  H93  1  0.446400  0.278900  0.284300  1
  H  H94  1  0.553600  0.721100  0.715700  1
  H  H95  1  0.439600  0.276700  0.198800  1
  H  H96  1  0.560400  0.723300  0.801200  1
  H  H97  1  0.037800  0.833200  0.518700  1
  H  H98  1  0.962200  0.166800  0.481300  1
  H  H99  1  0.122700  0.925300  0.506900  1
  H  H100  1  0.877300  0.074700  0.493100  1
  H  H101  1  0.201800  0.823700  0.526300  1
  H  H102  1  0.798200  0.176300  0.473700  1
  H  H103  1  0.942000  0.932800  0.357800  1
  H  H104  1  0.058000  0.067200  0.642200  1
  H  H105  1  0.054100  0.975600  0.277300  1
  H  H106  1  0.945900  0.024400  0.722700  1
  H  H107  1  0.024500  0.028800  0.338300  1
  H  H108  1  0.975500  0.971200  0.661700  1
  H  H109  1  0.137900  0.220400  0.819100  1
  H  H110  1  0.862100  0.779600  0.180900  1
  H  H111  1  0.270800  0.289800  0.673200  1
  H  H112  1  0.729200  0.710200  0.326800  1
  H  H113  1  0.257100  0.177300  0.726400  1
  H  H114  1  0.742900  0.822700  0.273600  1
  H  H115  1  0.340700  0.243400  0.753100  1
  H  H116  1  0.659300  0.756600  0.246900  1
  C  C117  1  0.206000  0.785900  0.123800  1
  C  C118  1  0.794000  0.214100  0.876200  1
  C  C119  1  0.330100  0.732500  0.129600  1
  C  C120  1  0.669900  0.267500  0.870400  1
  C  C121  1  0.441400  0.770800  0.147700  1
  C  C122  1  0.558600  0.229200  0.852300  1
  C  C123  1  0.424900  0.857400  0.156200  1
  C  C124  1  0.575100  0.142600  0.843800  1
  C  C125  1  0.298100  0.904500  0.148600  1
  C  C126  1  0.701900  0.095500  0.851400  1
  C  C127  1  0.172400  0.555900  0.159400  1
  C  C128  1  0.827600  0.444100  0.840600  1
  C  C129  1  0.172400  0.447700  0.180400  1
  C  C130  1  0.827600  0.552300  0.819600  1
  C  C131  1  0.921700  0.425800  0.311100  1
  C  C132  1  0.078300  0.574200  0.688900  1
  C  C133  1  0.998300  0.408300  0.372200  1
  C  C134  1  0.001700  0.591700  0.627800  1
  C  C135  1  0.945300  0.434800  0.435400  1
  C  C136  1  0.054700  0.565200  0.564600  1
  C  C137  1  0.815300  0.479100  0.436500  1
  C  C138  1  0.184700  0.520900  0.563500  1
  C  C139  1  0.790600  0.469700  0.317900  1
  C  C140  1  0.209400  0.530300  0.682100  1
  C  C141  1  0.394400  0.636300  0.008500  1
  C  C142  1  0.605600  0.363700  0.991500  1
  C  C143  1  0.489500  0.542600  0.171400  1
  C  C144  1  0.510500  0.457400  0.828600  1
  C  C145  1  0.877000  0.435700  0.147000  1
  C  C146  1  0.123000  0.564300  0.853000  1
  C  C147  1  0.015300  0.257500  0.266200  1
  C  C148  1  0.984700  0.742500  0.733800  1
  C  C149  1  0.728800  0.041700  0.196500  1
  C  C150  1  0.271200  0.958300  0.803500  1
  C  C151  1  0.599700  0.089400  0.199600  1
  C  C152  1  0.400300  0.910600  0.800400  1
  C  C153  1  0.530300  0.109700  0.133900  1
  C  C154  1  0.469700  0.890300  0.866100  1
  C  C155  1  0.588600  0.084100  0.070400  1
  C  C156  1  0.411400  0.915900  0.929600  1
  C  C157  1  0.717600  0.038200  0.073100  1
  C  C158  1  0.282400  0.961800  0.926900  1
  C  C159  1  0.343800  0.062900  0.326800  1
  C  C160  1  0.656200  0.937100  0.673200  1
  C  C161  1  0.348800  0.956300  0.344800  1
  C  C162  1  0.651200  0.043700  0.655200  1
  C  C163  1  0.193700  0.778100  0.371600  1
  C  C164  1  0.806300  0.221900  0.628400  1
  C  C165  1  0.312800  0.719800  0.385400  1
  C  C166  1  0.687200  0.280200  0.614600  1
  C  C167  1  0.231900  0.609900  0.345400  1
  C  C168  1  0.768100  0.390100  0.654600  1
  C  C169  1  0.111500  0.661200  0.329900  1
  C  C170  1  0.888500  0.338800  0.670100  1
  C  C171  1  0.092800  0.747000  0.341400  1
  C  C172  1  0.907200  0.253000  0.658600  1
  C  C173  1  0.636600  0.086700  0.362700  1
  C  C174  1  0.363400  0.913300  0.637300  1
  C  C175  1  0.495400  0.258100  0.242400  1
  C  C176  1  0.504600  0.741900  0.757600  1
  C  C177  1  0.129000  0.865500  0.498100  1
  C  C178  1  0.871000  0.134500  0.501900  1
  C  C179  1  0.031800  0.966300  0.334000  1
  C  C180  1  0.968200  0.033700  0.666000  1
  C  C181  1  0.077700  0.235000  0.049700  1
  C  C182  1  0.922300  0.765000  0.950300  1
  C  C183  1  0.300600  0.233400  0.502800  1
  C  C184  1  0.699400  0.766600  0.497200  1
  C  C185  1  0.260300  0.240800  0.728000  1
  C  C186  1  0.739700  0.759200  0.272000  1
  S  S187  1  0.165000  0.182020  0.983230  1
  S  S188  1  0.835000  0.817980  0.016770  1
  S  S189  1  0.422100  0.329450  0.449110  1
  S  S190  1  0.577900  0.670550  0.550890  1
  N  N191  1  0.188000  0.869900  0.133500  1
  N  N192  1  0.812000  0.130100  0.866500  1
  N  N193  1  0.736600  0.496800  0.378500  1
  N  N194  1  0.263400  0.503200  0.621500  1
  N  N195  1  0.787900  0.016900  0.135500  1
  N  N196  1  0.212100  0.983100  0.864500  1
  N  N197  1  0.335600  0.637300  0.372800  1
  N  N198  1  0.664400  0.362700  0.627200  1
  O  O199  1  0.189700  0.267200  0.908200  1
  O  O200  1  0.810300  0.732800  0.091800  1
  O  O201  1  0.291100  0.140800  0.011400  1
  O  O202  1  0.708900  0.859200  0.988600  1
  O  O203  1  0.063300  0.117900  0.984900  1
  O  O204  1  0.936700  0.882100  0.015100  1
  O  O205  1  0.415900  0.376100  0.504100  1
  O  O206  1  0.584100  0.623900  0.495900  1
  O  O207  1  0.364200  0.385500  0.376700  1
  O  O208  1  0.635800  0.614500  0.623300  1
  O  O209  1  0.553400  0.279500  0.438200  1
  O  O210  1  0.446600  0.720500  0.561800  1
  O  O211  1  0.140800  0.257000  0.770600  1
  O  O212  1  0.859200  0.743000  0.229400  1
  F  F213  1  0.055800  0.162800  0.124500  1
  F  F214  1  0.944200  0.837200  0.875500  1
  F  F215  1  0.158800  0.296800  0.057200  1
  F  F216  1  0.841200  0.703200  0.942800  1
  F  F217  1  0.961700  0.275600  0.032100  1
  F  F218  1  0.038300  0.724400  0.967900  1
  F  F219  1  0.171400  0.267500  0.520500  1
  F  F220  1  0.828600  0.732500  0.479500  1
  F  F221  1  0.288600  0.182400  0.459100  1
  F  F222  1  0.711400  0.817600  0.540900  1
  F  F223  1  0.337100  0.173200  0.571300  1
  F  F224  1  0.662900  0.826800  0.428700  1
