# generated using pymatgen
data_H16RhC28S(NO)2
_symmetry_space_group_name_H-M   'P 1'
_cell_length_a   10.68832419
_cell_length_b   10.68832419
_cell_length_c   20.38730000
_cell_angle_alpha   92.09081767
_cell_angle_beta   92.09081767
_cell_angle_gamma   103.70159444
_symmetry_Int_Tables_number   1
_chemical_formula_structural   H16RhC28S(NO)2
_chemical_formula_sum   'H64 Rh4 C112 S4 N8 O8'
_cell_volume   2258.82169735
_cell_formula_units_Z   4
loop_
 _symmetry_equiv_pos_site_id
 _symmetry_equiv_pos_as_xyz
  1  'x, y, z'
loop_
 _atom_site_type_symbol
 _atom_site_label
 _atom_site_symmetry_multiplicity
 _atom_site_fract_x
 _atom_site_fract_y
 _atom_site_fract_z
 _atom_site_occupancy
  C  C1  1  0.654500  0.183100  0.151050  1.0
  C  C2  1  0.183100  0.654500  0.651050  1.0
  C  C3  1  0.345500  0.816900  0.848950  1.0
  C  C4  1  0.816900  0.345500  0.348950  1.0
  C  C5  1  0.570600  0.104000  0.261570  1.0
  C  C6  1  0.104000  0.570600  0.761570  1.0
  C  C7  1  0.429400  0.896000  0.738430  1.0
  C  C8  1  0.896000  0.429400  0.238430  1.0
  C  C9  1  0.838100  0.570100  0.113150  1.0
  C  C10  1  0.570100  0.838100  0.613150  1.0
  C  C11  1  0.161900  0.429900  0.886850  1.0
  C  C12  1  0.429900  0.161900  0.386850  1.0
  C  C13  1  0.881730  0.511870  0.058160  1.0
  C  C14  1  0.511870  0.881730  0.558160  1.0
  C  C15  1  0.118270  0.488130  0.941840  1.0
  C  C16  1  0.488130  0.118270  0.441840  1.0
  C  C17  1  0.788370  0.418630  0.025140  1.0
  C  C18  1  0.418630  0.788370  0.525140  1.0
  C  C19  1  0.211630  0.581370  0.974860  1.0
  C  C20  1  0.581370  0.211630  0.474860  1.0
  C  C21  1  0.666010  0.398590  0.052270  1.0
  C  C22  1  0.398590  0.666010  0.552270  1.0
  C  C23  1  0.333990  0.601410  0.947730  1.0
  C  C24  1  0.601410  0.333990  0.447730  1.0
  C  C25  1  0.547480  0.328520  0.023180  1.0
  C  C26  1  0.328520  0.547480  0.523180  1.0
  C  C27  1  0.452520  0.671480  0.976820  1.0
  C  C28  1  0.671480  0.452520  0.476820  1.0
  C  C29  1  0.534810  0.295990  0.951240  1.0
  C  C30  1  0.295990  0.534810  0.451240  1.0
  C  C31  1  0.465190  0.704010  0.048760  1.0
  C  C32  1  0.704010  0.465190  0.548760  1.0
  C  C33  1  0.597810  0.382790  0.906100  1.0
  C  C34  1  0.382790  0.597810  0.406100  1.0
  C  C35  1  0.402190  0.617210  0.093900  1.0
  C  C36  1  0.617210  0.402190  0.593900  1.0
  C  C37  1  0.575010  0.357790  0.839250  1.0
  C  C38  1  0.357790  0.575010  0.339250  1.0
  C  C39  1  0.424990  0.642210  0.160750  1.0
  C  C40  1  0.642210  0.424990  0.660750  1.0
  C  C41  1  0.486800  0.247800  0.815020  1.0
  C  C42  1  0.247800  0.486800  0.315020  1.0
  C  C43  1  0.513200  0.752200  0.184980  1.0
  C  C44  1  0.752200  0.513200  0.684980  1.0
  C  C45  1  0.424100  0.160300  0.858910  1.0
  C  C46  1  0.160300  0.424100  0.358910  1.0
  C  C47  1  0.575900  0.839700  0.141090  1.0
  C  C48  1  0.839700  0.575900  0.641090  1.0
  C  C49  1  0.449120  0.182680  0.925830  1.0
  C  C50  1  0.182680  0.449120  0.425830  1.0
  C  C51  1  0.550880  0.817320  0.074170  1.0
  C  C52  1  0.817320  0.550880  0.574170  1.0
  C  C53  1  0.431140  0.299660  0.057250  1.0
  C  C54  1  0.299660  0.431140  0.557250  1.0
  C  C55  1  0.568860  0.700340  0.942750  1.0
  C  C56  1  0.700340  0.568860  0.442750  1.0
  C  C57  1  0.305960  0.296440  0.028520  1.0
  C  C58  1  0.296440  0.305960  0.528520  1.0
  C  C59  1  0.694040  0.703560  0.971480  1.0
  C  C60  1  0.703560  0.694040  0.471480  1.0
  C  C61  1  0.221380  0.277580  0.077500  1.0
  C  C62  1  0.277580  0.221380  0.577500  1.0
  C  C63  1  0.778620  0.722420  0.922500  1.0
  C  C64  1  0.722420  0.778620  0.422500  1.0
  C  C65  1  0.291710  0.263670  0.135610  1.0
  C  C66  1  0.263670  0.291710  0.635610  1.0
  C  C67  1  0.708290  0.736330  0.864390  1.0
  C  C68  1  0.736330  0.708290  0.364390  1.0
  C  C69  1  0.249160  0.219400  0.196890  1.0
  C  C70  1  0.219400  0.249160  0.696890  1.0
  C  C71  1  0.750840  0.780600  0.803110  1.0
  C  C72  1  0.780600  0.750840  0.303110  1.0
  C  C73  1  0.121910  0.170750  0.217050  1.0
  C  C74  1  0.170750  0.121910  0.717050  1.0
  C  C75  1  0.878090  0.829250  0.782950  1.0
  C  C76  1  0.829250  0.878090  0.282950  1.0
  C  C77  1  0.134830  0.113770  0.274740  1.0
  C  C78  1  0.113770  0.134830  0.774740  1.0
  C  C79  1  0.865170  0.886230  0.725260  1.0
  C  C80  1  0.886230  0.865170  0.225260  1.0
  C  C81  1  0.268970  0.132410  0.291230  1.0
  C  C82  1  0.132410  0.268970  0.791230  1.0
  C  C83  1  0.731030  0.867590  0.708770  1.0
  C  C84  1  0.867590  0.731030  0.208770  1.0
  C  C85  1  0.906200  0.681540  0.149510  1.0
  C  C86  1  0.681540  0.906200  0.649510  1.0
  C  C87  1  0.093800  0.318460  0.850490  1.0
  C  C88  1  0.318460  0.093800  0.350490  1.0
  C  C89  1  0.021980  0.765220  0.120880  1.0
  C  C90  1  0.765220  0.021980  0.620880  1.0
  C  C91  1  0.978020  0.234780  0.879120  1.0
  C  C92  1  0.234780  0.978020  0.379120  1.0
  C  C93  1  0.137800  0.798800  0.157570  1.0
  C  C94  1  0.798800  0.137800  0.657570  1.0
  C  C95  1  0.862200  0.201200  0.842430  1.0
  C  C96  1  0.201200  0.862200  0.342430  1.0
  C  C97  1  0.244500  0.883900  0.133870  1.0
  C  C98  1  0.883900  0.244500  0.633870  1.0
  C  C99  1  0.755500  0.116100  0.866130  1.0
  C  C100  1  0.116100  0.755500  0.366130  1.0
  C  C101  1  0.236400  0.936000  0.073760  1.0
  C  C102  1  0.936000  0.236400  0.573760  1.0
  C  C103  1  0.763600  0.064000  0.926240  1.0
  C  C104  1  0.064000  0.763600  0.426240  1.0
  C  C105  1  0.123000  0.902400  0.036750  1.0
  C  C106  1  0.902400  0.123000  0.536750  1.0
  C  C107  1  0.877000  0.097600  0.963250  1.0
  C  C108  1  0.097600  0.877000  0.463250  1.0
  C  C109  1  0.015900  0.817300  0.060260  1.0
  C  C110  1  0.817300  0.015900  0.560260  1.0
  C  C111  1  0.984100  0.182700  0.939740  1.0
  C  C112  1  0.182700  0.984100  0.439740  1.0
  H  H113  1  0.968300  0.535300  0.045200  1.0
  H  H114  1  0.535300  0.968300  0.545200  1.0
  H  H115  1  0.031700  0.464700  0.954800  1.0
  H  H116  1  0.464700  0.031700  0.454800  1.0
  H  H117  1  0.804600  0.371600  0.987300  1.0
  H  H118  1  0.371600  0.804600  0.487300  1.0
  H  H119  1  0.195400  0.628400  0.012700  1.0
  H  H120  1  0.628400  0.195400  0.512700  1.0
  H  H121  1  0.657200  0.460000  0.921800  1.0
  H  H122  1  0.460000  0.657200  0.421800  1.0
  H  H123  1  0.342800  0.540000  0.078200  1.0
  H  H124  1  0.540000  0.342800  0.578200  1.0
  H  H125  1  0.620300  0.416700  0.809600  1.0
  H  H126  1  0.416700  0.620300  0.309600  1.0
  H  H127  1  0.379700  0.583300  0.190400  1.0
  H  H128  1  0.583300  0.379700  0.690400  1.0
  H  H129  1  0.469300  0.232300  0.769000  1.0
  H  H130  1  0.232300  0.469300  0.269000  1.0
  H  H131  1  0.530700  0.767700  0.231000  1.0
  H  H132  1  0.767700  0.530700  0.731000  1.0
  H  H133  1  0.363400  0.084400  0.842800  1.0
  H  H134  1  0.084400  0.363400  0.342800  1.0
  H  H135  1  0.636600  0.915600  0.157200  1.0
  H  H136  1  0.915600  0.636600  0.657200  1.0
  H  H137  1  0.407700  0.120500  0.955100  1.0
  H  H138  1  0.120500  0.407700  0.455100  1.0
  H  H139  1  0.592300  0.879500  0.044900  1.0
  H  H140  1  0.879500  0.592300  0.544900  1.0
  H  H141  1  0.285700  0.305700  0.983500  1.0
  H  H142  1  0.305700  0.285700  0.483500  1.0
  H  H143  1  0.714300  0.694300  0.016500  1.0
  H  H144  1  0.694300  0.714300  0.516500  1.0
  H  H145  1  0.131800  0.274400  0.073400  1.0
  H  H146  1  0.274400  0.131800  0.573400  1.0
  H  H147  1  0.868200  0.725600  0.926600  1.0
  H  H148  1  0.725600  0.868200  0.426600  1.0
  H  H149  1  0.043900  0.176700  0.194900  1.0
  H  H150  1  0.176700  0.043900  0.694900  1.0
  H  H151  1  0.956100  0.823300  0.805100  1.0
  H  H152  1  0.823300  0.956100  0.305100  1.0
  H  H153  1  0.066200  0.069200  0.299700  1.0
  H  H154  1  0.069200  0.066200  0.799700  1.0
  H  H155  1  0.933800  0.930800  0.700300  1.0
  H  H156  1  0.930800  0.933800  0.200300  1.0
  H  H157  1  0.144500  0.763300  0.199300  1.0
  H  H158  1  0.763300  0.144500  0.699300  1.0
  H  H159  1  0.855500  0.236700  0.800700  1.0
  H  H160  1  0.236700  0.855500  0.300700  1.0
  H  H161  1  0.323400  0.906000  0.159500  1.0
  H  H162  1  0.906000  0.323400  0.659500  1.0
  H  H163  1  0.676600  0.094000  0.840500  1.0
  H  H164  1  0.094000  0.676600  0.340500  1.0
  H  H165  1  0.308900  0.994900  0.058000  1.0
  H  H166  1  0.994900  0.308900  0.558000  1.0
  H  H167  1  0.691100  0.005100  0.942000  1.0
  H  H168  1  0.005100  0.691100  0.442000  1.0
  H  H169  1  0.117200  0.937200  0.994800  1.0
  H  H170  1  0.937200  0.117200  0.494800  1.0
  H  H171  1  0.882800  0.062800  0.005200  1.0
  H  H172  1  0.062800  0.882800  0.505200  1.0
  H  H173  1  0.937600  0.795000  0.034200  1.0
  H  H174  1  0.795000  0.937600  0.534200  1.0
  H  H175  1  0.062400  0.205000  0.965800  1.0
  H  H176  1  0.205000  0.062400  0.465800  1.0
  N  N177  1  0.419840  0.279780  0.123640  1.0
  N  N178  1  0.279780  0.419840  0.623640  1.0
  N  N179  1  0.580160  0.720220  0.876360  1.0
  N  N180  1  0.720220  0.580160  0.376360  1.0
  N  N181  1  0.339040  0.198700  0.242270  1.0
  N  N182  1  0.198700  0.339040  0.742270  1.0
  N  N183  1  0.660960  0.801300  0.757730  1.0
  N  N184  1  0.801300  0.660960  0.257730  1.0
  O  O185  1  0.742320  0.166640  0.125630  1.0
  O  O186  1  0.166640  0.742320  0.625630  1.0
  O  O187  1  0.257680  0.833360  0.874370  1.0
  O  O188  1  0.833360  0.257680  0.374370  1.0
  O  O189  1  0.609250  0.041410  0.297390  1.0
  O  O190  1  0.041410  0.609250  0.797390  1.0
  O  O191  1  0.390750  0.958590  0.702610  1.0
  O  O192  1  0.958590  0.390750  0.202610  1.0
  Rh  Rh193  1  0.510841  0.196147  0.197316  1.0
  Rh  Rh194  1  0.196147  0.510841  0.697316  1.0
  Rh  Rh195  1  0.489159  0.803853  0.802684  1.0
  Rh  Rh196  1  0.803853  0.489159  0.302684  1.0
  S  S197  1  0.677330  0.494470  0.124990  1.0
  S  S198  1  0.494470  0.677330  0.624990  1.0
  S  S199  1  0.322670  0.505530  0.875010  1.0
  S  S200  1  0.505530  0.322670  0.375010  1.0
