# generated using pymatgen
data_H40Pt2C38(N5O9)3
_symmetry_space_group_name_H-M   'P 1'
_cell_length_a   20.79619578
_cell_length_b   20.79619578
_cell_length_c   20.79619578
_cell_angle_alpha   101.66630604
_cell_angle_beta   101.66630604
_cell_angle_gamma   101.66630604
_symmetry_Int_Tables_number   1
_chemical_formula_structural   H40Pt2C38(N5O9)3
_chemical_formula_sum   'H240 Pt12 C228 N90 O162'
_cell_volume   8344.52389787
_cell_formula_units_Z   6
loop_
 _symmetry_equiv_pos_site_id
 _symmetry_equiv_pos_as_xyz
  1  'x, y, z'
loop_
 _atom_site_type_symbol
 _atom_site_label
 _atom_site_symmetry_multiplicity
 _atom_site_fract_x
 _atom_site_fract_y
 _atom_site_fract_z
 _atom_site_occupancy
  C  C1  1  0.587400  0.317700  0.319800  1.0
  C  C2  1  0.319800  0.587400  0.317700  1.0
  C  C3  1  0.317700  0.319800  0.587400  1.0
  C  C4  1  0.819800  0.817700  0.087400  1.0
  C  C5  1  0.817700  0.087400  0.819800  1.0
  C  C6  1  0.087400  0.819800  0.817700  1.0
  C  C7  1  0.542900  0.355700  0.335900  1.0
  C  C8  1  0.335900  0.542900  0.355700  1.0
  C  C9  1  0.355700  0.335900  0.542900  1.0
  C  C10  1  0.835900  0.855700  0.042900  1.0
  C  C11  1  0.855700  0.042900  0.835900  1.0
  C  C12  1  0.042900  0.835900  0.855700  1.0
  C  C13  1  0.509500  0.343800  0.385100  1.0
  C  C14  1  0.385100  0.509500  0.343800  1.0
  C  C15  1  0.343800  0.385100  0.509500  1.0
  C  C16  1  0.885100  0.843800  0.009500  1.0
  C  C17  1  0.843800  0.009500  0.885100  1.0
  C  C18  1  0.009500  0.885100  0.843800  1.0
  C  C19  1  0.521500  0.293600  0.416100  1.0
  C  C20  1  0.416100  0.521500  0.293600  1.0
  C  C21  1  0.293600  0.416100  0.521500  1.0
  C  C22  1  0.916100  0.793600  0.021500  1.0
  C  C23  1  0.793600  0.021500  0.916100  1.0
  C  C24  1  0.021500  0.916100  0.793600  1.0
  C  C25  1  0.565800  0.256800  0.398700  1.0
  C  C26  1  0.398700  0.565800  0.256800  1.0
  C  C27  1  0.256800  0.398700  0.565800  1.0
  C  C28  1  0.898700  0.756800  0.065800  1.0
  C  C29  1  0.756800  0.065800  0.898700  1.0
  C  C30  1  0.065800  0.898700  0.756800  1.0
  C  C31  1  0.459500  0.383000  0.401900  1.0
  C  C32  1  0.401900  0.459500  0.383000  1.0
  C  C33  1  0.383000  0.401900  0.459500  1.0
  C  C34  1  0.901900  0.883000  0.959500  1.0
  C  C35  1  0.883000  0.959500  0.901900  1.0
  C  C36  1  0.959500  0.901900  0.883000  1.0
  C  C37  1  0.768200  0.331800  0.409300  1.0
  C  C38  1  0.409300  0.768200  0.331800  1.0
  C  C39  1  0.331800  0.409300  0.768200  1.0
  C  C40  1  0.909300  0.831800  0.268200  1.0
  C  C41  1  0.831800  0.268200  0.909300  1.0
  C  C42  1  0.268200  0.909300  0.831800  1.0
  C  C43  1  0.810600  0.377300  0.467800  1.0
  C  C44  1  0.467800  0.810600  0.377300  1.0
  C  C45  1  0.377300  0.467800  0.810600  1.0
  C  C46  1  0.967800  0.877300  0.310600  1.0
  C  C47  1  0.877300  0.310600  0.967800  1.0
  C  C48  1  0.310600  0.967800  0.877300  1.0
  C  C49  1  0.819200  0.358100  0.527600  1.0
  C  C50  1  0.527600  0.819200  0.358100  1.0
  C  C51  1  0.358100  0.527600  0.819200  1.0
  C  C52  1  0.027600  0.858100  0.319200  1.0
  C  C53  1  0.858100  0.319200  0.027600  1.0
  C  C54  1  0.319200  0.027600  0.858100  1.0
  C  C55  1  0.783300  0.292200  0.525900  1.0
  C  C56  1  0.525900  0.783300  0.292200  1.0
  C  C57  1  0.292200  0.525900  0.783300  1.0
  C  C58  1  0.025900  0.792200  0.283300  1.0
  C  C59  1  0.792200  0.283300  0.025900  1.0
  C  C60  1  0.283300  0.025900  0.792200  1.0
  C  C61  1  0.742200  0.251600  0.467200  1.0
  C  C62  1  0.467200  0.742200  0.251600  1.0
  C  C63  1  0.251600  0.467200  0.742200  1.0
  C  C64  1  0.967200  0.751600  0.242200  1.0
  C  C65  1  0.751600  0.242200  0.967200  1.0
  C  C66  1  0.242200  0.967200  0.751600  1.0
  C  C67  1  0.609700  0.085600  0.218800  1.0
  C  C68  1  0.218800  0.609700  0.085600  1.0
  C  C69  1  0.085600  0.218800  0.609700  1.0
  C  C70  1  0.718800  0.585600  0.109700  1.0
  C  C71  1  0.585600  0.109700  0.718800  1.0
  C  C72  1  0.109700  0.718800  0.585600  1.0
  C  C73  1  0.686500  0.105100  0.228700  1.0
  C  C74  1  0.228700  0.686500  0.105100  1.0
  C  C75  1  0.105100  0.228700  0.686500  1.0
  C  C76  1  0.728700  0.605100  0.186500  1.0
  C  C77  1  0.605100  0.186500  0.728700  1.0
  C  C78  1  0.186500  0.728700  0.605100  1.0
  C  C79  1  0.962300  0.492700  0.657000  1.0
  C  C80  1  0.657000  0.962300  0.492700  1.0
  C  C81  1  0.492700  0.657000  0.962300  1.0
  C  C82  1  0.157000  0.992700  0.462300  1.0
  C  C83  1  0.992700  0.462300  0.157000  1.0
  C  C84  1  0.462300  0.157000  0.992700  1.0
  C  C85  1  0.921500  0.452300  0.594500  1.0
  C  C86  1  0.594500  0.921500  0.452300  1.0
  C  C87  1  0.452300  0.594500  0.921500  1.0
  C  C88  1  0.094500  0.952300  0.421500  1.0
  C  C89  1  0.952300  0.421500  0.094500  1.0
  C  C90  1  0.421500  0.094500  0.952300  1.0
  C  C91  1  0.862200  0.404100  0.592800  1.0
  C  C92  1  0.592800  0.862200  0.404100  1.0
  C  C93  1  0.404100  0.592800  0.862200  1.0
  C  C94  1  0.092800  0.904100  0.362200  1.0
  C  C95  1  0.904100  0.362200  0.092800  1.0
  C  C96  1  0.362200  0.092800  0.904100  1.0
  C  C97  1  0.847800  0.401000  0.655600  1.0
  C  C98  1  0.655600  0.847800  0.401000  1.0
  C  C99  1  0.401000  0.655600  0.847800  1.0
  C  C100  1  0.155600  0.901000  0.347800  1.0
  C  C101  1  0.901000  0.347800  0.155600  1.0
  C  C102  1  0.347800  0.155600  0.901000  1.0
  C  C103  1  0.890700  0.442400  0.714400  1.0
  C  C104  1  0.714400  0.890700  0.442400  1.0
  C  C105  1  0.442400  0.714400  0.890700  1.0
  C  C106  1  0.214400  0.942400  0.390700  1.0
  C  C107  1  0.942400  0.390700  0.214400  1.0
  C  C108  1  0.390700  0.214400  0.942400  1.0
  C  C109  1  0.117800  0.492600  0.875700  1.0
  C  C110  1  0.875700  0.117800  0.492600  1.0
  C  C111  1  0.492600  0.875700  0.117800  1.0
  C  C112  1  0.375700  0.992600  0.617800  1.0
  C  C113  1  0.992600  0.617800  0.375700  1.0
  C  C114  1  0.617800  0.375700  0.992600  1.0
  C  C115  1  0.140900  0.567400  0.899600  1.0
  C  C116  1  0.899600  0.140900  0.567400  1.0
  C  C117  1  0.567400  0.899600  0.140900  1.0
  C  C118  1  0.399600  0.067400  0.640900  1.0
  C  C119  1  0.067400  0.640900  0.399600  1.0
  C  C120  1  0.640900  0.399600  0.067400  1.0
  C  C121  1  0.917100  0.620500  0.847700  1.0
  C  C122  1  0.847700  0.917100  0.620500  1.0
  C  C123  1  0.620500  0.847700  0.917100  1.0
  C  C124  1  0.347700  0.120500  0.417100  1.0
  C  C125  1  0.120500  0.417100  0.347700  1.0
  C  C126  1  0.417100  0.347700  0.120500  1.0
  C  C127  1  0.957700  0.652400  0.760200  1.0
  C  C128  1  0.760200  0.957700  0.652400  1.0
  C  C129  1  0.652400  0.760200  0.957700  1.0
  C  C130  1  0.260200  0.152400  0.457700  1.0
  C  C131  1  0.152400  0.457700  0.260200  1.0
  C  C132  1  0.457700  0.260200  0.152400  1.0
  C  C133  1  0.918700  0.698100  0.756200  1.0
  C  C134  1  0.756200  0.918700  0.698100  1.0
  C  C135  1  0.698100  0.756200  0.918700  1.0
  C  C136  1  0.256200  0.198100  0.418700  1.0
  C  C137  1  0.198100  0.418700  0.256200  1.0
  C  C138  1  0.418700  0.256200  0.198100  1.0
  C  C139  1  0.875900  0.703900  0.799800  1.0
  C  C140  1  0.799800  0.875900  0.703900  1.0
  C  C141  1  0.703900  0.799800  0.875900  1.0
  C  C142  1  0.299800  0.203900  0.375900  1.0
  C  C143  1  0.203900  0.375900  0.299800  1.0
  C  C144  1  0.375900  0.299800  0.203900  1.0
  C  C145  1  0.832500  0.752000  0.796300  1.0
  C  C146  1  0.796300  0.832500  0.752000  1.0
  C  C147  1  0.752000  0.796300  0.832500  1.0
  C  C148  1  0.296300  0.252000  0.332500  1.0
  C  C149  1  0.252000  0.332500  0.296300  1.0
  C  C150  1  0.332500  0.296300  0.252000  1.0
  C  C151  1  0.875900  0.665300  0.846200  1.0
  C  C152  1  0.846200  0.875900  0.665300  1.0
  C  C153  1  0.665300  0.846200  0.875900  1.0
  C  C154  1  0.346200  0.165300  0.375900  1.0
  C  C155  1  0.165300  0.375900  0.346200  1.0
  C  C156  1  0.375900  0.346200  0.165300  1.0
  C  C157  1  0.718600  0.634700  0.650400  1.0
  C  C158  1  0.650400  0.718600  0.634700  1.0
  C  C159  1  0.634700  0.650400  0.718600  1.0
  C  C160  1  0.150400  0.134700  0.218600  1.0
  C  C161  1  0.134700  0.218600  0.150400  1.0
  C  C162  1  0.218600  0.150400  0.134700  1.0
  C  C163  1  0.767800  0.601300  0.634000  1.0
  C  C164  1  0.634000  0.767800  0.601300  1.0
  C  C165  1  0.601300  0.634000  0.767800  1.0
  C  C166  1  0.134000  0.101300  0.267800  1.0
  C  C167  1  0.101300  0.267800  0.134000  1.0
  C  C168  1  0.267800  0.134000  0.101300  1.0
  C  C169  1  0.784500  0.550400  0.665500  1.0
  C  C170  1  0.665500  0.784500  0.550400  1.0
  C  C171  1  0.550400  0.665500  0.784500  1.0
  C  C172  1  0.165500  0.050400  0.284500  1.0
  C  C173  1  0.050400  0.284500  0.165500  1.0
  C  C174  1  0.284500  0.165500  0.050400  1.0
  C  C175  1  0.751900  0.536000  0.716700  1.0
  C  C176  1  0.716700  0.751900  0.536000  1.0
  C  C177  1  0.536000  0.716700  0.751900  1.0
  C  C178  1  0.216700  0.036000  0.251900  1.0
  C  C179  1  0.036000  0.251900  0.216700  1.0
  C  C180  1  0.251900  0.216700  0.036000  1.0
  C  C181  1  0.704400  0.567500  0.731800  1.0
  C  C182  1  0.731800  0.704400  0.567500  1.0
  C  C183  1  0.567500  0.731800  0.704400  1.0
  C  C184  1  0.231800  0.067500  0.204400  1.0
  C  C185  1  0.067500  0.204400  0.231800  1.0
  C  C186  1  0.204400  0.231800  0.067500  1.0
  C  C187  1  0.685500  0.617700  0.701100  1.0
  C  C188  1  0.701100  0.685500  0.617700  1.0
  C  C189  1  0.617700  0.701100  0.685500  1.0
  C  C190  1  0.201100  0.117700  0.185500  1.0
  C  C191  1  0.117700  0.185500  0.201100  1.0
  C  C192  1  0.185500  0.201100  0.117700  1.0
  C  C193  1  0.160500  0.021500  0.929600  1.0
  C  C194  1  0.929600  0.160500  0.021500  1.0
  C  C195  1  0.021500  0.929600  0.160500  1.0
  C  C196  1  0.429600  0.521500  0.660500  1.0
  C  C197  1  0.521500  0.660500  0.429600  1.0
  C  C198  1  0.660500  0.429600  0.521500  1.0
  C  C199  1  0.171400  0.974100  0.967300  1.0
  C  C200  1  0.967300  0.171400  0.974100  1.0
  C  C201  1  0.974100  0.967300  0.171400  1.0
  C  C202  1  0.467300  0.474100  0.671400  1.0
  C  C203  1  0.474100  0.671400  0.467300  1.0
  C  C204  1  0.671400  0.467300  0.474100  1.0
  C  C205  1  0.135700  0.963800  0.013900  1.0
  C  C206  1  0.013900  0.135700  0.963800  1.0
  C  C207  1  0.963800  0.013900  0.135700  1.0
  C  C208  1  0.513900  0.463800  0.635700  1.0
  C  C209  1  0.463800  0.635700  0.513900  1.0
  C  C210  1  0.635700  0.513900  0.463800  1.0
  C  C211  1  0.087300  0.000900  0.027000  1.0
  C  C212  1  0.027000  0.087300  0.000900  1.0
  C  C213  1  0.000900  0.027000  0.087300  1.0
  C  C214  1  0.527000  0.500900  0.587300  1.0
  C  C215  1  0.500900  0.587300  0.527000  1.0
  C  C216  1  0.587300  0.527000  0.500900  1.0
  C  C217  1  0.076400  0.048100  0.989200  1.0
  C  C218  1  0.989200  0.076400  0.048100  1.0
  C  C219  1  0.048100  0.989200  0.076400  1.0
  C  C220  1  0.489200  0.548100  0.576400  1.0
  C  C221  1  0.548100  0.576400  0.489200  1.0
  C  C222  1  0.576400  0.489200  0.548100  1.0
  C  C223  1  0.114300  0.057500  0.941300  1.0
  C  C224  1  0.941300  0.114300  0.057500  1.0
  C  C225  1  0.057500  0.941300  0.114300  1.0
  C  C226  1  0.441300  0.557500  0.614300  1.0
  C  C227  1  0.557500  0.614300  0.441300  1.0
  C  C228  1  0.614300  0.441300  0.557500  1.0
  H  H229  1  0.548300  0.138300  0.250900  1.0
  H  H230  1  0.250900  0.548300  0.138300  1.0
  H  H231  1  0.138300  0.250900  0.548300  1.0
  H  H232  1  0.750900  0.638300  0.048300  1.0
  H  H233  1  0.638300  0.048300  0.750900  1.0
  H  H234  1  0.048300  0.750900  0.638300  1.0
  H  H235  1  0.585800  0.170200  0.206700  1.0
  H  H236  1  0.206700  0.585800  0.170200  1.0
  H  H237  1  0.170200  0.206700  0.585800  1.0
  H  H238  1  0.706700  0.670200  0.085800  1.0
  H  H239  1  0.670200  0.085800  0.706700  1.0
  H  H240  1  0.085800  0.706700  0.670200  1.0
  H  H241  1  0.762100  0.170400  0.304100  1.0
  H  H242  1  0.304100  0.762100  0.170400  1.0
  H  H243  1  0.170400  0.304100  0.762100  1.0
  H  H244  1  0.804100  0.670400  0.262100  1.0
  H  H245  1  0.670400  0.262100  0.804100  1.0
  H  H246  1  0.262100  0.804100  0.670400  1.0
  H  H247  1  0.721100  0.118000  0.329400  1.0
  H  H248  1  0.329400  0.721100  0.118000  1.0
  H  H249  1  0.118000  0.329400  0.721100  1.0
  H  H250  1  0.829400  0.618000  0.221100  1.0
  H  H251  1  0.618000  0.221100  0.829400  1.0
  H  H252  1  0.221100  0.829400  0.618000  1.0
  H  H253  1  0.035800  0.430700  0.805100  1.0
  H  H254  1  0.805100  0.035800  0.430700  1.0
  H  H255  1  0.430700  0.805100  0.035800  1.0
  H  H256  1  0.305100  0.930700  0.535800  1.0
  H  H257  1  0.930700  0.535800  0.305100  1.0
  H  H258  1  0.535800  0.305100  0.930700  1.0
  H  H259  1  0.085000  0.467800  0.773700  1.0
  H  H260  1  0.773700  0.085000  0.467800  1.0
  H  H261  1  0.467800  0.773700  0.085000  1.0
  H  H262  1  0.273700  0.967800  0.585000  1.0
  H  H263  1  0.967800  0.585000  0.273700  1.0
  H  H264  1  0.585000  0.273700  0.967800  1.0
  H  H265  1  0.091500  0.640300  0.896500  1.0
  H  H266  1  0.896500  0.091500  0.640300  1.0
  H  H267  1  0.640300  0.896500  0.091500  1.0
  H  H268  1  0.396500  0.140300  0.591500  1.0
  H  H269  1  0.140300  0.591500  0.396500  1.0
  H  H270  1  0.591500  0.396500  0.140300  1.0
  H  H271  1  0.061000  0.589500  0.930400  1.0
  H  H272  1  0.930400  0.061000  0.589500  1.0
  H  H273  1  0.589500  0.930400  0.061000  1.0
  H  H274  1  0.430400  0.089500  0.561000  1.0
  H  H275  1  0.089500  0.561000  0.430400  1.0
  H  H276  1  0.561000  0.430400  0.089500  1.0
  H  H277  1  0.611300  0.327100  0.287100  1.0
  H  H278  1  0.287100  0.611300  0.327100  1.0
  H  H279  1  0.327100  0.287100  0.611300  1.0
  H  H280  1  0.787100  0.827100  0.111300  1.0
  H  H281  1  0.827100  0.111300  0.787100  1.0
  H  H282  1  0.111300  0.787100  0.827100  1.0
  H  H283  1  0.535300  0.389900  0.313200  1.0
  H  H284  1  0.313200  0.535300  0.389900  1.0
  H  H285  1  0.389900  0.313200  0.535300  1.0
  H  H286  1  0.813200  0.889900  0.035300  1.0
  H  H287  1  0.889900  0.035300  0.813200  1.0
  H  H288  1  0.035300  0.813200  0.889900  1.0
  H  H289  1  0.499000  0.284300  0.450000  1.0
  H  H290  1  0.450000  0.499000  0.284300  1.0
  H  H291  1  0.284300  0.450000  0.499000  1.0
  H  H292  1  0.950000  0.784300  0.999000  1.0
  H  H293  1  0.784300  0.999000  0.950000  1.0
  H  H294  1  0.999000  0.950000  0.784300  1.0
  H  H295  1  0.574500  0.223000  0.421400  1.0
  H  H296  1  0.421400  0.574500  0.223000  1.0
  H  H297  1  0.223000  0.421400  0.574500  1.0
  H  H298  1  0.921400  0.723000  0.074500  1.0
  H  H299  1  0.723000  0.074500  0.921400  1.0
  H  H300  1  0.074500  0.921400  0.723000  1.0
  H  H301  1  0.764000  0.345000  0.367900  1.0
  H  H302  1  0.367900  0.764000  0.345000  1.0
  H  H303  1  0.345000  0.367900  0.764000  1.0
  H  H304  1  0.867900  0.845000  0.264000  1.0
  H  H305  1  0.845000  0.264000  0.867900  1.0
  H  H306  1  0.264000  0.867900  0.845000  1.0
  H  H307  1  0.833400  0.421300  0.466400  1.0
  H  H308  1  0.466400  0.833400  0.421300  1.0
  H  H309  1  0.421300  0.466400  0.833400  1.0
  H  H310  1  0.966400  0.921300  0.333400  1.0
  H  H311  1  0.921300  0.333400  0.966400  1.0
  H  H312  1  0.333400  0.966400  0.921300  1.0
  H  H313  1  0.788300  0.276600  0.566200  1.0
  H  H314  1  0.566200  0.788300  0.276600  1.0
  H  H315  1  0.276600  0.566200  0.788300  1.0
  H  H316  1  0.066200  0.776600  0.288300  1.0
  H  H317  1  0.776600  0.288300  0.066200  1.0
  H  H318  1  0.288300  0.066200  0.776600  1.0
  H  H319  1  0.718400  0.207500  0.467300  1.0
  H  H320  1  0.467300  0.718400  0.207500  1.0
  H  H321  1  0.207500  0.467300  0.718400  1.0
  H  H322  1  0.967300  0.707500  0.218400  1.0
  H  H323  1  0.707500  0.218400  0.967300  1.0
  H  H324  1  0.218400  0.967300  0.707500  1.0
  H  H325  1  0.586600  0.063700  0.170500  1.0
  H  H326  1  0.170500  0.586600  0.063700  1.0
  H  H327  1  0.063700  0.170500  0.586600  1.0
  H  H328  1  0.670500  0.563700  0.086600  1.0
  H  H329  1  0.563700  0.086600  0.670500  1.0
  H  H330  1  0.086600  0.670500  0.563700  1.0
  H  H331  1  0.597200  0.053600  0.246200  1.0
  H  H332  1  0.246200  0.597200  0.053600  1.0
  H  H333  1  0.053600  0.246200  0.597200  1.0
  H  H334  1  0.746200  0.553600  0.097200  1.0
  H  H335  1  0.553600  0.097200  0.746200  1.0
  H  H336  1  0.097200  0.746200  0.553600  1.0
  H  H337  1  0.703300  0.063700  0.219700  1.0
  H  H338  1  0.219700  0.703300  0.063700  1.0
  H  H339  1  0.063700  0.219700  0.703300  1.0
  H  H340  1  0.719700  0.563700  0.203300  1.0
  H  H341  1  0.563700  0.203300  0.719700  1.0
  H  H342  1  0.203300  0.719700  0.563700  1.0
  H  H343  1  0.698200  0.132100  0.196600  1.0
  H  H344  1  0.196600  0.698200  0.132100  1.0
  H  H345  1  0.132100  0.196600  0.698200  1.0
  H  H346  1  0.696600  0.632100  0.198200  1.0
  H  H347  1  0.632100  0.198200  0.696600  1.0
  H  H348  1  0.198200  0.696600  0.632100  1.0
  H  H349  1  0.001900  0.525500  0.658100  1.0
  H  H350  1  0.658100  0.001900  0.525500  1.0
  H  H351  1  0.525500  0.658100  0.001900  1.0
  H  H352  1  0.158100  0.025500  0.501900  1.0
  H  H353  1  0.025500  0.501900  0.158100  1.0
  H  H354  1  0.501900  0.158100  0.025500  1.0
  H  H355  1  0.933400  0.457200  0.553700  1.0
  H  H356  1  0.553700  0.933400  0.457200  1.0
  H  H357  1  0.457200  0.553700  0.933400  1.0
  H  H358  1  0.053700  0.957200  0.433400  1.0
  H  H359  1  0.957200  0.433400  0.053700  1.0
  H  H360  1  0.433400  0.053700  0.957200  1.0
  H  H361  1  0.808000  0.369900  0.656900  1.0
  H  H362  1  0.656900  0.808000  0.369900  1.0
  H  H363  1  0.369900  0.656900  0.808000  1.0
  H  H364  1  0.156900  0.869900  0.308000  1.0
  H  H365  1  0.869900  0.308000  0.156900  1.0
  H  H366  1  0.308000  0.156900  0.869900  1.0
  H  H367  1  0.879800  0.439700  0.756200  1.0
  H  H368  1  0.756200  0.879800  0.439700  1.0
  H  H369  1  0.439700  0.756200  0.879800  1.0
  H  H370  1  0.256200  0.939700  0.379800  1.0
  H  H371  1  0.939700  0.379800  0.256200  1.0
  H  H372  1  0.379800  0.256200  0.939700  1.0
  H  H373  1  0.098700  0.474100  0.910000  1.0
  H  H374  1  0.910000  0.098700  0.474100  1.0
  H  H375  1  0.474100  0.910000  0.098700  1.0
  H  H376  1  0.410000  0.974100  0.598700  1.0
  H  H377  1  0.974100  0.598700  0.410000  1.0
  H  H378  1  0.598700  0.410000  0.974100  1.0
  H  H379  1  0.156900  0.473700  0.869900  1.0
  H  H380  1  0.869900  0.156900  0.473700  1.0
  H  H381  1  0.473700  0.869900  0.156900  1.0
  H  H382  1  0.369900  0.973700  0.656900  1.0
  H  H383  1  0.973700  0.656900  0.369900  1.0
  H  H384  1  0.656900  0.369900  0.973700  1.0
  H  H385  1  0.169100  0.585600  0.871200  1.0
  H  H386  1  0.871200  0.169100  0.585600  1.0
  H  H387  1  0.585600  0.871200  0.169100  1.0
  H  H388  1  0.371200  0.085600  0.669100  1.0
  H  H389  1  0.085600  0.669100  0.371200  1.0
  H  H390  1  0.669100  0.371200  0.085600  1.0
  H  H391  1  0.168400  0.580900  0.947100  1.0
  H  H392  1  0.947100  0.168400  0.580900  1.0
  H  H393  1  0.580900  0.947100  0.168400  1.0
  H  H394  1  0.447100  0.080900  0.668400  1.0
  H  H395  1  0.080900  0.668400  0.447100  1.0
  H  H396  1  0.668400  0.447100  0.080900  1.0
  H  H397  1  0.916400  0.593600  0.879500  1.0
  H  H398  1  0.879500  0.916400  0.593600  1.0
  H  H399  1  0.593600  0.879500  0.916400  1.0
  H  H400  1  0.379500  0.093600  0.416400  1.0
  H  H401  1  0.093600  0.416400  0.379500  1.0
  H  H402  1  0.416400  0.379500  0.093600  1.0
  H  H403  1  0.985800  0.647300  0.729700  1.0
  H  H404  1  0.729700  0.985800  0.647300  1.0
  H  H405  1  0.647300  0.729700  0.985800  1.0
  H  H406  1  0.229700  0.147300  0.485800  1.0
  H  H407  1  0.147300  0.485800  0.229700  1.0
  H  H408  1  0.485800  0.229700  0.147300  1.0
  H  H409  1  0.920600  0.725200  0.724500  1.0
  H  H410  1  0.724500  0.920600  0.725200  1.0
  H  H411  1  0.725200  0.724500  0.920600  1.0
  H  H412  1  0.224500  0.225200  0.420600  1.0
  H  H413  1  0.225200  0.420600  0.224500  1.0
  H  H414  1  0.420600  0.224500  0.225200  1.0
  H  H415  1  0.848100  0.669400  0.877100  1.0
  H  H416  1  0.877100  0.848100  0.669400  1.0
  H  H417  1  0.669400  0.877100  0.848100  1.0
  H  H418  1  0.377100  0.169400  0.348100  1.0
  H  H419  1  0.169400  0.348100  0.377100  1.0
  H  H420  1  0.348100  0.377100  0.169400  1.0
  H  H421  1  0.790400  0.613400  0.601100  1.0
  H  H422  1  0.601100  0.790400  0.613400  1.0
  H  H423  1  0.613400  0.601100  0.790400  1.0
  H  H424  1  0.101100  0.113400  0.290400  1.0
  H  H425  1  0.113400  0.290400  0.101100  1.0
  H  H426  1  0.290400  0.101100  0.113400  1.0
  H  H427  1  0.816300  0.526700  0.652900  1.0
  H  H428  1  0.652900  0.816300  0.526700  1.0
  H  H429  1  0.526700  0.652900  0.816300  1.0
  H  H430  1  0.152900  0.026700  0.316300  1.0
  H  H431  1  0.026700  0.316300  0.152900  1.0
  H  H432  1  0.316300  0.152900  0.026700  1.0
  H  H433  1  0.764000  0.503900  0.740600  1.0
  H  H434  1  0.740600  0.764000  0.503900  1.0
  H  H435  1  0.503900  0.740600  0.764000  1.0
  H  H436  1  0.240600  0.003900  0.264000  1.0
  H  H437  1  0.003900  0.264000  0.240600  1.0
  H  H438  1  0.264000  0.240600  0.003900  1.0
  H  H439  1  0.682400  0.555100  0.765000  1.0
  H  H440  1  0.765000  0.682400  0.555100  1.0
  H  H441  1  0.555100  0.765000  0.682400  1.0
  H  H442  1  0.265000  0.055100  0.182400  1.0
  H  H443  1  0.055100  0.182400  0.265000  1.0
  H  H444  1  0.182400  0.265000  0.055100  1.0
  H  H445  1  0.184900  0.028300  0.896600  1.0
  H  H446  1  0.896600  0.184900  0.028300  1.0
  H  H447  1  0.028300  0.896600  0.184900  1.0
  H  H448  1  0.396600  0.528300  0.684900  1.0
  H  H449  1  0.528300  0.684900  0.396600  1.0
  H  H450  1  0.684900  0.396600  0.528300  1.0
  H  H451  1  0.203900  0.949000  0.960200  1.0
  H  H452  1  0.960200  0.203900  0.949000  1.0
  H  H453  1  0.949000  0.960200  0.203900  1.0
  H  H454  1  0.460200  0.449000  0.703900  1.0
  H  H455  1  0.449000  0.703900  0.460200  1.0
  H  H456  1  0.703900  0.460200  0.449000  1.0
  H  H457  1  0.143300  0.930900  0.038300  1.0
  H  H458  1  0.038300  0.143300  0.930900  1.0
  H  H459  1  0.930900  0.038300  0.143300  1.0
  H  H460  1  0.538300  0.430900  0.643300  1.0
  H  H461  1  0.430900  0.643300  0.538300  1.0
  H  H462  1  0.643300  0.538300  0.430900  1.0
  H  H463  1  0.107500  0.090200  0.916300  1.0
  H  H464  1  0.916300  0.107500  0.090200  1.0
  H  H465  1  0.090200  0.916300  0.107500  1.0
  H  H466  1  0.416300  0.590200  0.607500  1.0
  H  H467  1  0.590200  0.607500  0.416300  1.0
  H  H468  1  0.607500  0.416300  0.590200  1.0
  N  N469  1  0.481200  0.264700  0.628400  1
  N  N470  1  0.628400  0.481200  0.264700  1
  N  N471  1  0.264700  0.628400  0.481200  1
  N  N472  1  0.128400  0.764700  0.981200  1
  N  N473  1  0.764700  0.981200  0.128400  1
  N  N474  1  0.981200  0.128400  0.764700  1
  N  N475  1  0.412100  0.032200  0.100800  1
  N  N476  1  0.100800  0.412100  0.032200  1
  N  N477  1  0.032200  0.100800  0.412100  1
  N  N478  1  0.600800  0.532200  0.912100  1
  N  N479  1  0.532200  0.912100  0.600800  1
  N  N480  1  0.912100  0.600800  0.532200  1
  N  N481  1  0.239800  0.126000  0.631400  1
  N  N482  1  0.631400  0.239800  0.126000  1
  N  N483  1  0.126000  0.631400  0.239800  1
  N  N484  1  0.131400  0.626000  0.739800  1
  N  N485  1  0.626000  0.739800  0.131400  1
  N  N486  1  0.739800  0.131400  0.626000  1
  N  N487  1  0.964000  0.307700  0.483600  1
  N  N488  1  0.483600  0.964000  0.307700  1
  N  N489  1  0.307700  0.483600  0.964000  1
  N  N490  1  0.983600  0.807700  0.464000  1
  N  N491  1  0.807700  0.464000  0.983600  1
  N  N492  1  0.464000  0.983600  0.807700  1
  N  N493  1  0.052200  0.376000  0.597400  1
  N  N494  1  0.597400  0.052200  0.376000  1
  N  N495  1  0.376000  0.597400  0.052200  1
  N  N496  1  0.097400  0.876000  0.552200  1
  N  N497  1  0.876000  0.552200  0.097400  1
  N  N498  1  0.552200  0.097400  0.876000  1
  N  N499  1  0.597800  0.267900  0.349600  1.0
  N  N500  1  0.349600  0.597800  0.267900  1.0
  N  N501  1  0.267900  0.349600  0.597800  1.0
  N  N502  1  0.849600  0.767900  0.097800  1.0
  N  N503  1  0.767900  0.097800  0.849600  1.0
  N  N504  1  0.097800  0.849600  0.767900  1.0
  N  N505  1  0.448480  0.428480  0.367380  1.0
  N  N506  1  0.367380  0.448480  0.428480  1.0
  N  N507  1  0.428480  0.367380  0.448480  1.0
  N  N508  1  0.867380  0.928480  0.948480  1.0
  N  N509  1  0.928480  0.948480  0.867380  1.0
  N  N510  1  0.948480  0.867380  0.928480  1.0
  N  N511  1  0.733200  0.270400  0.408200  1.0
  N  N512  1  0.408200  0.733200  0.270400  1.0
  N  N513  1  0.270400  0.408200  0.733200  1.0
  N  N514  1  0.908200  0.770400  0.233200  1.0
  N  N515  1  0.770400  0.233200  0.908200  1.0
  N  N516  1  0.233200  0.908200  0.770400  1.0
  N  N517  1  0.589800  0.148400  0.241000  1.0
  N  N518  1  0.241000  0.589800  0.148400  1.0
  N  N519  1  0.148400  0.241000  0.589800  1.0
  N  N520  1  0.741000  0.648400  0.089800  1.0
  N  N521  1  0.648400  0.089800  0.741000  1.0
  N  N522  1  0.089800  0.741000  0.648400  1.0
  N  N523  1  0.718800  0.146200  0.300500  1.0
  N  N524  1  0.300500  0.718800  0.146200  1.0
  N  N525  1  0.146200  0.300500  0.718800  1.0
  N  N526  1  0.800500  0.646200  0.218800  1.0
  N  N527  1  0.646200  0.218800  0.800500  1.0
  N  N528  1  0.218800  0.800500  0.646200  1.0
  N  N529  1  0.947800  0.486700  0.715600  1.0
  N  N530  1  0.715600  0.947800  0.486700  1.0
  N  N531  1  0.486700  0.715600  0.947800  1.0
  N  N532  1  0.215600  0.986700  0.447800  1.0
  N  N533  1  0.986700  0.447800  0.215600  1.0
  N  N534  1  0.447800  0.215600  0.986700  1.0
  N  N535  1  0.064600  0.472000  0.809100  1.0
  N  N536  1  0.809100  0.064600  0.472000  1.0
  N  N537  1  0.472000  0.809100  0.064600  1.0
  N  N538  1  0.309100  0.972000  0.564600  1.0
  N  N539  1  0.972000  0.564600  0.309100  1.0
  N  N540  1  0.564600  0.309100  0.972000  1.0
  N  N541  1  0.079700  0.594800  0.894700  1.0
  N  N542  1  0.894700  0.079700  0.594800  1.0
  N  N543  1  0.594800  0.894700  0.079700  1.0
  N  N544  1  0.394700  0.094800  0.579700  1.0
  N  N545  1  0.094800  0.579700  0.394700  1.0
  N  N546  1  0.579700  0.394700  0.094800  1.0
  N  N547  1  0.957800  0.614000  0.806000  1.0
  N  N548  1  0.806000  0.957800  0.614000  1.0
  N  N549  1  0.614000  0.806000  0.957800  1.0
  N  N550  1  0.306000  0.114000  0.457800  1.0
  N  N551  1  0.114000  0.457800  0.306000  1.0
  N  N552  1  0.457800  0.306000  0.114000  1.0
  N  N553  1  0.838500  0.790400  0.753100  1.0
  N  N554  1  0.753100  0.838500  0.790400  1.0
  N  N555  1  0.790400  0.753100  0.838500  1.0
  N  N556  1  0.253100  0.290400  0.338500  1.0
  N  N557  1  0.290400  0.338500  0.253100  1.0
  N  N558  1  0.338500  0.253100  0.290400  1.0
  O  O559  1  0.475100  0.234800  0.567500  1
  O  O560  1  0.567500  0.475100  0.234800  1
  O  O561  1  0.234800  0.567500  0.475100  1
  O  O562  1  0.067500  0.734800  0.975100  1
  O  O563  1  0.734800  0.975100  0.067500  1
  O  O564  1  0.975100  0.067500  0.734800  1
  O  O565  1  0.441000  0.250200  0.655200  1
  O  O566  1  0.655200  0.441000  0.250200  1
  O  O567  1  0.250200  0.655200  0.441000  1
  O  O568  1  0.155200  0.750200  0.941000  1
  O  O569  1  0.750200  0.941000  0.155200  1
  O  O570  1  0.941000  0.155200  0.750200  1
  O  O571  1  0.538100  0.313500  0.655300  1
  O  O572  1  0.655300  0.538100  0.313500  1
  O  O573  1  0.313500  0.655300  0.538100  1
  O  O574  1  0.155300  0.813500  0.038100  1
  O  O575  1  0.813500  0.038100  0.155300  1
  O  O576  1  0.038100  0.155300  0.813500  1
  O  O577  1  0.388600  0.988800  0.046200  1
  O  O578  1  0.046200  0.388600  0.988800  1
  O  O579  1  0.988800  0.046200  0.388600  1
  O  O580  1  0.546200  0.488800  0.888600  1
  O  O581  1  0.488800  0.888600  0.546200  1
  O  O582  1  0.888600  0.546200  0.488800  1
  O  O583  1  0.376700  0.033600  0.143200  1
  O  O584  1  0.143200  0.376700  0.033600  1
  O  O585  1  0.033600  0.143200  0.376700  1
  O  O586  1  0.643200  0.533600  0.876700  1
  O  O587  1  0.533600  0.876700  0.643200  1
  O  O588  1  0.876700  0.643200  0.533600  1
  O  O589  1  0.466100  0.072600  0.113800  1
  O  O590  1  0.113800  0.466100  0.072600  1
  O  O591  1  0.072600  0.113800  0.466100  1
  O  O592  1  0.613800  0.572600  0.966100  1
  O  O593  1  0.572600  0.966100  0.613800  1
  O  O594  1  0.966100  0.613800  0.572600  1
  O  O595  1  0.287200  0.175100  0.635400  1
  O  O596  1  0.635400  0.287200  0.175100  1
  O  O597  1  0.175100  0.635400  0.287200  1
  O  O598  1  0.135400  0.675100  0.787200  1
  O  O599  1  0.675100  0.787200  0.135400  1
  O  O600  1  0.787200  0.135400  0.675100  1
  O  O601  1  0.184300  0.118000  0.593500  1
  O  O602  1  0.593500  0.184300  0.118000  1
  O  O603  1  0.118000  0.593500  0.184300  1
  O  O604  1  0.093500  0.618000  0.684300  1
  O  O605  1  0.618000  0.684300  0.093500  1
  O  O606  1  0.684300  0.093500  0.618000  1
  O  O607  1  0.250100  0.084800  0.667700  1
  O  O608  1  0.667700  0.250100  0.084800  1
  O  O609  1  0.084800  0.667700  0.250100  1
  O  O610  1  0.167700  0.584800  0.750100  1
  O  O611  1  0.584800  0.750100  0.167700  1
  O  O612  1  0.750100  0.167700  0.584800  1
  O  O613  1  0.639600  0.280600  0.592100  1
  O  O614  1  0.592100  0.639600  0.280600  1
  O  O615  1  0.280600  0.592100  0.639600  1
  O  O616  1  0.092100  0.780600  0.139600  1
  O  O617  1  0.780600  0.139600  0.092100  1
  O  O618  1  0.139600  0.092100  0.780600  1
  O  O619  1  0.922600  0.459900  0.901700  1
  O  O620  1  0.901700  0.922600  0.459900  1
  O  O621  1  0.459900  0.901700  0.922600  1
  O  O622  1  0.401700  0.959900  0.422600  1
  O  O623  1  0.959900  0.422600  0.401700  1
  O  O624  1  0.422600  0.401700  0.959900  1
  O  O625  1  0.739300  0.305000  0.714600  1
  O  O626  1  0.714600  0.739300  0.305000  1
  O  O627  1  0.305000  0.714600  0.739300  1
  O  O628  1  0.214600  0.805000  0.239300  1
  O  O629  1  0.805000  0.239300  0.214600  1
  O  O630  1  0.239300  0.214600  0.805000  1
  O  O631  1  0.067600  0.293100  0.880900  1
  O  O632  1  0.880900  0.067600  0.293100  1
  O  O633  1  0.293100  0.880900  0.067600  1
  O  O634  1  0.380900  0.793100  0.567600  1
  O  O635  1  0.793100  0.567600  0.380900  1
  O  O636  1  0.567600  0.380900  0.793100  1
  O  O637  1  0.964400  0.356200  0.832800  1
  O  O638  1  0.832800  0.964400  0.356200  1
  O  O639  1  0.356200  0.832800  0.964400  1
  O  O640  1  0.332800  0.856200  0.464400  1
  O  O641  1  0.856200  0.464400  0.332800  1
  O  O642  1  0.464400  0.332800  0.856200  1
  O  O643  1  0.359500  0.224500  0.772300  1
  O  O644  1  0.772300  0.359500  0.224500  1
  O  O645  1  0.224500  0.772300  0.359500  1
  O  O646  1  0.272300  0.724500  0.859500  1
  O  O647  1  0.724500  0.859500  0.272300  1
  O  O648  1  0.859500  0.272300  0.724500  1
  O  O649  1  0.607600  0.140700  0.507500  1
  O  O650  1  0.507500  0.607600  0.140700  1
  O  O651  1  0.140700  0.507500  0.607600  1
  O  O652  1  0.007500  0.640700  0.107600  1
  O  O653  1  0.640700  0.107600  0.007500  1
  O  O654  1  0.107600  0.007500  0.640700  1
  O  O655  1  0.032600  0.545300  0.008100  1
  O  O656  1  0.008100  0.032600  0.545300  1
  O  O657  1  0.545300  0.008100  0.032600  1
  O  O658  1  0.508100  0.045300  0.532600  1
  O  O659  1  0.045300  0.532600  0.508100  1
  O  O660  1  0.532600  0.508100  0.045300  1
  O  O661  1  0.458000  0.119000  0.271700  1
  O  O662  1  0.271700  0.458000  0.119000  1
  O  O663  1  0.119000  0.271700  0.458000  1
  O  O664  1  0.771700  0.619000  0.958000  1
  O  O665  1  0.619000  0.958000  0.771700  1
  O  O666  1  0.958000  0.771700  0.619000  1
  O  O667  1  0.860800  0.197800  0.326500  1
  O  O668  1  0.326500  0.860800  0.197800  1
  O  O669  1  0.197800  0.326500  0.860800  1
  O  O670  1  0.826500  0.697800  0.360800  1
  O  O671  1  0.697800  0.360800  0.826500  1
  O  O672  1  0.360800  0.826500  0.697800  1
  O  O673  1  0.963500  0.309000  0.648100  1
  O  O674  1  0.648100  0.963500  0.309000  1
  O  O675  1  0.309000  0.648100  0.963500  1
  O  O676  1  0.148100  0.809000  0.463500  1
  O  O677  1  0.809000  0.463500  0.148100  1
  O  O678  1  0.463500  0.148100  0.809000  1
  O  O679  1  0.077900  0.409100  0.682900  1
  O  O680  1  0.682900  0.077900  0.409100  1
  O  O681  1  0.409100  0.682900  0.077900  1
  O  O682  1  0.182900  0.909100  0.577900  1
  O  O683  1  0.909100  0.577900  0.182900  1
  O  O684  1  0.577900  0.182900  0.909100  1
  O  O685  1  0.956500  0.297800  0.425100  1
  O  O686  1  0.425100  0.956500  0.297800  1
  O  O687  1  0.297800  0.425100  0.956500  1
  O  O688  1  0.925100  0.797800  0.456500  1
  O  O689  1  0.797800  0.456500  0.925100  1
  O  O690  1  0.456500  0.925100  0.797800  1
  O  O691  1  0.927300  0.272700  0.509400  1
  O  O692  1  0.509400  0.927300  0.272700  1
  O  O693  1  0.272700  0.509400  0.927300  1
  O  O694  1  0.009400  0.772700  0.427300  1
  O  O695  1  0.772700  0.427300  0.009400  1
  O  O696  1  0.427300  0.009400  0.772700  1
  O  O697  1  0.019600  0.345900  0.521800  1
  O  O698  1  0.521800  0.019600  0.345900  1
  O  O699  1  0.345900  0.521800  0.019600  1
  O  O700  1  0.021800  0.845900  0.519600  1
  O  O701  1  0.845900  0.519600  0.021800  1
  O  O702  1  0.519600  0.021800  0.845900  1
  O  O703  1  0.077000  0.393200  0.554200  1
  O  O704  1  0.554200  0.077000  0.393200  1
  O  O705  1  0.393200  0.554200  0.077000  1
  O  O706  1  0.054200  0.893200  0.577000  1
  O  O707  1  0.893200  0.577000  0.054200  1
  O  O708  1  0.577000  0.054200  0.893200  1
  O  O709  1  0.998300  0.327300  0.585700  1
  O  O710  1  0.585700  0.998300  0.327300  1
  O  O711  1  0.327300  0.585700  0.998300  1
  O  O712  1  0.085700  0.827300  0.498300  1
  O  O713  1  0.827300  0.498300  0.085700  1
  O  O714  1  0.498300  0.085700  0.827300  1
  O  O715  1  0.076000  0.405800  0.660800  1
  O  O716  1  0.660800  0.076000  0.405800  1
  O  O717  1  0.405800  0.660800  0.076000  1
  O  O718  1  0.160800  0.905800  0.576000  1
  O  O719  1  0.905800  0.576000  0.160800  1
  O  O720  1  0.576000  0.160800  0.905800  1
  Pt  Pt721  1  0.660683  0.210406  0.325209  1.0
  Pt  Pt722  1  0.325209  0.660683  0.210406  1.0
  Pt  Pt723  1  0.210406  0.325209  0.660683  1.0
  Pt  Pt724  1  0.825209  0.710406  0.160683  1.0
  Pt  Pt725  1  0.710406  0.160683  0.825209  1.0
  Pt  Pt726  1  0.160683  0.825209  0.710406  1.0
  Pt  Pt727  1  0.011099  0.543193  0.805343  1.0
  Pt  Pt728  1  0.805343  0.011099  0.543193  1.0
  Pt  Pt729  1  0.543193  0.805343  0.011099  1.0
  Pt  Pt730  1  0.305343  0.043193  0.511099  1.0
  Pt  Pt731  1  0.043193  0.511099  0.305343  1.0
  Pt  Pt732  1  0.511099  0.305343  0.043193  1.0
