# generated using pymatgen
data_Zn3H135Pd6C138N47O71
_symmetry_space_group_name_H-M   'P 1'
_cell_length_a   20.62670000
_cell_length_b   20.74420000
_cell_length_c   28.16310000
_cell_angle_alpha   72.88400000
_cell_angle_beta   74.06200000
_cell_angle_gamma   66.20700000
_symmetry_Int_Tables_number   1
_chemical_formula_structural   Zn3H135Pd6C138N47O71
_chemical_formula_sum   'Zn6 H270 Pd12 C276 N94 O142'
_cell_volume   10369.27891269
_cell_formula_units_Z   2
loop_
 _symmetry_equiv_pos_site_id
 _symmetry_equiv_pos_as_xyz
  1  'x, y, z'
loop_
 _atom_site_type_symbol
 _atom_site_label
 _atom_site_symmetry_multiplicity
 _atom_site_fract_x
 _atom_site_fract_y
 _atom_site_fract_z
 _atom_site_occupancy
  Zn  Zn1  1  0.591700  0.818830  0.598430  1
  Zn  Zn2  1  0.408300  0.181170  0.401570  1
  Zn  Zn3  1  0.597140  0.564880  0.892040  1
  Zn  Zn4  1  0.402860  0.435120  0.107960  1
  Zn  Zn5  1  0.511260  0.004810  0.861360  1
  Zn  Zn6  1  0.488740  0.995190  0.138640  1
  H  H7  1  0.871500  0.444200  0.843200  1
  H  H8  1  0.128500  0.555800  0.156800  1
  H  H9  1  0.856500  0.480200  0.922300  1
  H  H10  1  0.143500  0.519800  0.077700  1
  H  H11  1  0.804200  0.624600  0.932500  1
  H  H12  1  0.195800  0.375400  0.067500  1
  H  H13  1  0.738500  0.498300  0.057200  1
  H  H14  1  0.261500  0.501700  0.942800  1
  H  H15  1  0.811400  0.517300  0.099900  1
  H  H16  1  0.188600  0.482700  0.900100  1
  H  H17  1  0.884700  0.581600  0.052700  1
  H  H18  1  0.115300  0.418400  0.947300  1
  H  H19  1  0.561700  0.493200  0.742500  1
  H  H20  1  0.438300  0.506800  0.257500  1
  H  H21  1  0.693700  0.465500  0.728600  1
  H  H22  1  0.306300  0.534500  0.271400  1
  H  H23  1  0.846600  0.524400  0.749500  1
  H  H24  1  0.153400  0.475600  0.250500  1
  H  H25  1  0.787700  0.351900  0.781000  1
  H  H26  1  0.212300  0.648100  0.219000  1
  H  H27  1  0.885200  0.300500  0.725600  1
  H  H28  1  0.114800  0.699500  0.274400  1
  H  H29  1  0.958300  0.366500  0.677200  1
  H  H30  1  0.041700  0.633500  0.322800  1
  H  H31  1  0.333600  0.591600  0.976500  1
  H  H32  1  0.666400  0.408400  0.023500  1
  H  H33  1  0.350200  0.555500  0.897100  1
  H  H34  1  0.649800  0.444500  0.102900  1
  H  H35  1  0.388900  0.616300  0.778000  1
  H  H36  1  0.611100  0.383700  0.222000  1
  H  H37  1  0.469300  0.409400  0.845700  1
  H  H38  1  0.530700  0.590600  0.154300  1
  H  H39  1  0.389500  0.386100  0.811800  1
  H  H40  1  0.610500  0.613900  0.188200  1
  H  H41  1  0.310200  0.480900  0.766600  1
  H  H42  1  0.689800  0.519100  0.233400  1
  H  H43  1  0.631900  0.632500  0.041100  1
  H  H44  1  0.368100  0.367500  0.958900  1
  H  H45  1  0.500800  0.662000  0.054100  1
  H  H46  1  0.499200  0.338000  0.945900  1
  H  H47  1  0.331300  0.714800  0.977700  1
  H  H48  1  0.668700  0.285200  0.022300  1
  H  H49  1  0.429100  0.581500  0.089900  1
  H  H50  1  0.570900  0.418500  0.910100  1
  H  H51  1  0.330100  0.635100  0.147100  1
  H  H52  1  0.669900  0.364900  0.852900  1
  H  H53  1  0.228300  0.722500  0.116600  1
  H  H54  1  0.771700  0.277500  0.883400  1
  H  H55  1  0.456500  0.841900  0.031800  1
  H  H56  1  0.543500  0.158100  0.968200  1
  H  H57  1  0.586600  0.810800  0.018000  1
  H  H58  1  0.413400  0.189200  0.982000  1
  H  H59  1  0.764900  0.789600  0.917600  1
  H  H60  1  0.235100  0.210400  0.082400  1
  H  H61  1  0.649300  0.900000  0.024900  1
  H  H62  1  0.350700  0.100000  0.975100  1
  H  H63  1  0.734800  0.830500  0.074300  1
  H  H64  1  0.265200  0.169500  0.925700  1
  H  H65  1  0.840500  0.745000  0.041800  1
  H  H66  1  0.159500  0.255000  0.958200  1
  H  H67  1  0.775900  0.917400  0.882700  1
  H  H68  1  0.224100  0.082600  0.117300  1
  H  H69  1  0.769500  0.004600  0.800800  1
  H  H70  1  0.230500  0.995400  0.199200  1
  H  H71  1  0.751900  0.995800  0.712300  1
  H  H72  1  0.248100  0.004200  0.287700  1
  H  H73  1  0.646700  0.193600  0.736000  1
  H  H74  1  0.353300  0.806400  0.264000  1
  H  H75  1  0.732100  0.231200  0.675500  1
  H  H76  1  0.267900  0.768800  0.324500  1
  H  H77  1  0.823800  0.150500  0.632800  1
  H  H78  1  0.176200  0.849500  0.367200  1
  H  H79  1  0.571200  0.153000  0.684000  1
  H  H80  1  0.428800  0.847000  0.316000  1
  H  H81  1  0.442400  0.170800  0.693800  1
  H  H82  1  0.557600  0.829200  0.306200  1
  H  H83  1  0.293500  0.065800  0.760800  1
  H  H84  1  0.706500  0.934200  0.239200  1
  H  H85  1  0.332800  0.248300  0.743300  1
  H  H86  1  0.667200  0.751700  0.256700  1
  H  H87  1  0.246500  0.305100  0.689700  1
  H  H88  1  0.753500  0.694900  0.310300  1
  H  H89  1  0.186100  0.242100  0.675700  1
  H  H90  1  0.813900  0.757900  0.324300  1
  H  H91  1  0.246500  0.100900  0.844300  1
  H  H92  1  0.753500  0.899100  0.155700  1
  H  H93  1  0.247100  0.026600  0.931500  1
  H  H94  1  0.752900  0.973400  0.068500  1
  H  H95  1  0.292300  0.891900  0.960400  1
  H  H96  1  0.707700  0.108100  0.039600  1
  H  H97  1  0.346700  0.964800  0.054700  1
  H  H98  1  0.653300  0.035200  0.945300  1
  H  H99  1  0.267800  0.922600  0.118600  1
  H  H100  1  0.732200  0.077400  0.881400  1
  H  H101  1  0.202700  0.870600  0.102000  1
  H  H102  1  0.797300  0.129400  0.898000  1
  H  H103  1  0.869300  0.721100  0.556400  1
  H  H104  1  0.130700  0.278900  0.443600  1
  H  H105  1  0.839800  0.851900  0.549900  1
  H  H106  1  0.160200  0.148100  0.450100  1
  H  H107  1  0.774900  0.935100  0.620700  1
  H  H108  1  0.225100  0.064900  0.379300  1
  H  H109  1  0.711900  0.037900  0.486600  1
  H  H110  1  0.288100  0.962100  0.513400  1
  H  H111  1  0.782900  0.100500  0.472900  1
  H  H112  1  0.217100  0.899500  0.527100  1
  H  H113  1  0.853900  0.081600  0.533500  1
  H  H114  1  0.146100  0.918400  0.466500  1
  H  H115  1  0.592500  0.565500  0.616400  1
  H  H116  1  0.407500  0.434500  0.383600  1
  H  H117  1  0.720200  0.548600  0.604500  1
  H  H118  1  0.279800  0.451400  0.395500  1
  H  H119  1  0.849300  0.616200  0.640300  1
  H  H120  1  0.150700  0.383800  0.359700  1
  H  H121  1  0.813200  0.590300  0.516100  1
  H  H122  1  0.186800  0.409700  0.483900  1
  H  H123  1  0.922400  0.491900  0.513900  1
  H  H124  1  0.077600  0.508100  0.486100  1
  H  H125  1  0.991000  0.459200  0.575800  1
  H  H126  1  0.009000  0.540800  0.424200  1
  H  H127  1  0.320100  0.925000  0.591600  1
  H  H128  1  0.679900  0.075000  0.408400  1
  H  H129  1  0.351200  0.796600  0.598800  1
  H  H130  1  0.648800  0.203400  0.401200  1
  H  H131  1  0.394100  0.690500  0.677100  1
  H  H132  1  0.605900  0.309500  0.322900  1
  H  H133  1  0.502300  0.621300  0.549900  1
  H  H134  1  0.497700  0.378700  0.450100  1
  H  H135  1  0.430600  0.552100  0.565100  1
  H  H136  1  0.569400  0.447900  0.434900  1
  H  H137  1  0.338300  0.559900  0.633300  1
  H  H138  1  0.661700  0.440100  0.366700  1
  H  H139  1  0.590600  0.079500  0.564900  1
  H  H140  1  0.409400  0.920500  0.435100  1
  H  H141  1  0.468900  0.093400  0.576900  1
  H  H142  1  0.531100  0.906600  0.423100  1
  H  H143  1  0.324600  0.996900  0.661200  1
  H  H144  1  0.675400  0.003100  0.338800  1
  H  H145  1  0.381600  0.086600  0.515100  1
  H  H146  1  0.618400  0.913400  0.484900  1
  H  H147  1  0.272100  0.180600  0.523200  1
  H  H148  1  0.727900  0.819400  0.476800  1
  H  H149  1  0.192700  0.179200  0.596800  1
  H  H150  1  0.807300  0.820800  0.403200  1
  H  H151  1  0.939000  0.772300  0.887900  1
  H  H152  1  0.061000  0.227700  0.112100  1
  H  H153  1  0.944100  0.781100  0.936200  1
  H  H154  1  0.055900  0.218900  0.063800  1
  H  H155  1  0.016900  0.578800  0.960100  1
  H  H156  1  0.983100  0.421200  0.039900  1
  H  H157  1  0.986700  0.572700  0.921100  1
  H  H158  1  0.013300  0.427300  0.078900  1
  H  H159  1  0.059800  0.733800  0.881900  1
  H  H160  1  0.940200  0.266200  0.118100  1
  H  H161  1  0.054000  0.693300  0.939100  1
  H  H162  1  0.946000  0.306700  0.060900  1
  H  H163  1  0.091300  0.607600  0.890200  1
  H  H164  1  0.908700  0.392400  0.109800  1
  H  H165  1  0.026400  0.652800  0.861200  1
  H  H166  1  0.973600  0.347200  0.138800  1
  H  H167  1  0.094000  0.937600  0.016400  1
  H  H168  1  0.906000  0.062400  0.983600  1
  H  H169  1  0.126000  0.931700  0.964200  1
  H  H170  1  0.874000  0.068300  0.035800  1
  H  H171  1  0.162700  0.729400  0.989600  1
  H  H172  1  0.837300  0.270600  0.010400  1
  H  H173  1  0.109000  0.747700  0.034200  1
  H  H174  1  0.891000  0.252300  0.965800  1
  H  H175  1  0.042900  0.799900  0.974500  1
  H  H176  1  0.957100  0.200100  0.025500  1
  H  H177  1  0.104800  0.825000  0.937200  1
  H  H178  1  0.895200  0.175000  0.062800  1
  H  H179  1  0.020000  0.927600  0.966700  1
  H  H180  1  0.980000  0.072400  0.033300  1
  H  H181  1  0.017200  0.884700  0.023100  1
  H  H182  1  0.982800  0.115300  0.976900  1
  H  H183  1  0.089400  0.516900  0.611500  1
  H  H184  1  0.910600  0.483100  0.388500  1
  H  H185  1  0.037000  0.588400  0.616400  1
  H  H186  1  0.963000  0.411600  0.383600  1
  H  H187  1  0.015300  0.489600  0.751200  1
  H  H188  1  0.984700  0.510400  0.248800  1
  H  H189  1  0.044000  0.417200  0.741100  1
  H  H190  1  0.956000  0.582800  0.258900  1
  H  H191  1  0.140300  0.434800  0.685800  1
  H  H192  1  0.859700  0.565200  0.314200  1
  H  H193  1  0.134300  0.466500  0.731900  1
  H  H194  1  0.865700  0.533500  0.268100  1
  H  H195  1  0.138400  0.554700  0.656500  1
  H  H196  1  0.861600  0.445300  0.343500  1
  H  H197  1  0.063000  0.581400  0.691800  1
  H  H198  1  0.937000  0.418600  0.308200  1
  H  H199  1  0.179600  0.603900  0.789700  1
  H  H200  1  0.820400  0.396100  0.210300  1
  H  H201  1  0.199500  0.654800  0.803800  1
  H  H202  1  0.800500  0.345200  0.196200  1
  H  H203  1  0.210100  0.744400  0.666900  1
  H  H204  1  0.789900  0.255600  0.333100  1
  H  H205  1  0.210000  0.684700  0.649600  1
  H  H206  1  0.790000  0.315300  0.350400  1
  H  H207  1  0.096500  0.758100  0.693300  1
  H  H208  1  0.903500  0.241900  0.306700  1
  H  H209  1  0.113700  0.674900  0.702800  1
  H  H210  1  0.886300  0.325100  0.297200  1
  H  H211  1  0.083400  0.696800  0.778300  1
  H  H212  1  0.916600  0.303200  0.221700  1
  H  H213  1  0.126500  0.749300  0.763800  1
  H  H214  1  0.873500  0.250700  0.236200  1
  H  H215  1  0.956500  0.879900  0.602700  1
  H  H216  1  0.043500  0.120100  0.397300  1
  H  H217  1  0.977000  0.938000  0.566400  1
  H  H218  1  0.023000  0.062000  0.433600  1
  H  H219  1  0.955800  0.015900  0.675900  1
  H  H220  1  0.044200  0.984100  0.324100  1
  H  H221  1  0.925300  0.964200  0.712000  1
  H  H222  1  0.074700  0.035800  0.288000  1
  H  H223  1  0.054400  0.849300  0.628300  1
  H  H224  1  0.945600  0.150700  0.371700  1
  H  H225  1  0.060900  0.924600  0.601800  1
  H  H226  1  0.939100  0.075400  0.398200  1
  H  H227  1  0.051700  0.930000  0.671900  1
  H  H228  1  0.948300  0.070000  0.328100  1
  H  H229  1  0.011400  0.875100  0.694400  1
  H  H230  1  0.988600  0.124900  0.305600  1
  H  H231  1  0.138400  0.065900  0.794500  1
  H  H232  1  0.861600  0.934100  0.205500  1
  H  H233  1  0.096200  0.140700  0.775800  1
  H  H234  1  0.903800  0.859300  0.224200  1
  H  H235  1  0.095700  0.068400  0.671300  1
  H  H236  1  0.904300  0.931600  0.328700  1
  H  H237  1  0.156600  0.001400  0.679300  1
  H  H238  1  0.843400  0.998600  0.320700  1
  H  H239  1  0.018800  0.115300  0.754400  1
  H  H240  1  0.981200  0.884700  0.245600  1
  H  H241  1  0.035300  0.057600  0.804400  1
  H  H242  1  0.964700  0.942400  0.195600  1
  H  H243  1  0.116600  0.971300  0.759400  1
  H  H244  1  0.883400  0.028700  0.240600  1
  H  H245  1  0.046500  0.004700  0.735500  1
  H  H246  1  0.953500  0.995300  0.264500  1
  H  H247  1  0.739700  0.717800  0.163200  1
  H  H248  1  0.260300  0.282200  0.836800  1
  H  H249  1  0.791600  0.673100  0.123000  1
  H  H250  1  0.208400  0.326900  0.877000  1
  H  H251  1  0.848400  0.732100  0.147500  1
  H  H252  1  0.151600  0.267900  0.852500  1
  H  H253  1  0.888700  0.648500  0.159500  1
  H  H254  1  0.111300  0.351500  0.840500  1
  H  H255  1  0.837700  0.687900  0.202900  1
  H  H256  1  0.162300  0.312100  0.797100  1
  H  H257  1  0.677700  0.711600  0.404700  1
  H  H258  1  0.322300  0.288400  0.595300  1
  H  H259  1  0.613600  0.783700  0.404600  1
  H  H260  1  0.386400  0.216300  0.595400  1
  H  H261  1  0.651400  0.746000  0.474700  1
  H  H262  1  0.348600  0.254000  0.525300  1
  H  H263  1  0.639000  0.673100  0.484600  1
  H  H264  1  0.361000  0.326900  0.515400  1
  H  H265  1  0.573000  0.745400  0.484700  1
  H  H266  1  0.427000  0.254600  0.515300  1
  H  H267  1  0.484600  0.579700  0.285300  1
  H  H268  1  0.515400  0.420300  0.714700  1
  H  H269  1  0.529500  0.545300  0.328900  1
  H  H270  1  0.470500  0.454700  0.671100  1
  H  H271  1  0.534000  0.666667  0.288800  1
  H  H272  1  0.466000  0.333333  0.711200  1
  H  H273  1  0.498300  0.664700  0.345800  1
  H  H274  1  0.501700  0.335300  0.654200  1
  H  H275  1  0.450100  0.700000  0.304000  1
  H  H276  1  0.549900  0.300000  0.696000  1
  Pd  Pd277  1  0.901920  0.679910  0.954080  1
  Pd  Pd278  1  0.098080  0.320090  0.045920  1
  Pd  Pd279  1  0.190320  0.818020  0.018170  1
  Pd  Pd280  1  0.809680  0.181980  0.981830  1
  Pd  Pd281  1  0.981310  0.499780  0.670470  1
  Pd  Pd282  1  0.018690  0.500220  0.329530  1
  Pd  Pd283  1  0.275340  0.631720  0.721660  1
  Pd  Pd284  1  0.724660  0.368280  0.278340  1
  Pd  Pd285  1  0.880300  0.992640  0.632390  1
  Pd  Pd286  1  0.119700  0.007360  0.367610  1
  Pd  Pd287  1  0.182510  0.094260  0.702190  1
  Pd  Pd288  1  0.817490  0.905740  0.297810  1
  C  C289  1  0.758800  0.490200  0.850600  1
  C  C290  1  0.241200  0.509800  0.149400  1
  C  C291  1  0.828200  0.468200  0.862100  1
  C  C292  1  0.171800  0.531800  0.137900  1
  C  C293  1  0.820200  0.488300  0.905400  1
  C  C294  1  0.179800  0.511700  0.094600  1
  C  C295  1  0.743500  0.525100  0.920500  1
  C  C296  1  0.256500  0.474900  0.079500  1
  C  C297  1  0.713800  0.555900  0.962500  1
  C  C298  1  0.286200  0.444100  0.037500  1
  C  C299  1  0.763100  0.559700  0.991100  1
  C  C300  1  0.236900  0.440300  0.008900  1
  C  C301  1  0.806200  0.601600  0.966100  1
  C  C302  1  0.193800  0.398400  0.033900  1
  C  C303  1  0.765900  0.527200  0.040200  1
  C  C304  1  0.234100  0.472800  0.959800  1
  C  C305  1  0.810600  0.537000  0.065800  1
  C  C306  1  0.189400  0.463000  0.934200  1
  C  C307  1  0.852800  0.577200  0.037200  1
  C  C308  1  0.147200  0.422800  0.962800  1
  C  C309  1  0.557800  0.518900  0.812300  1
  C  C310  1  0.442200  0.481100  0.187700  1
  C  C311  1  0.587100  0.496600  0.763700  1
  C  C312  1  0.412900  0.503400  0.236300  1
  C  C313  1  0.659900  0.481800  0.756000  1
  C  C314  1  0.340100  0.518200  0.244000  1
  C  C315  1  0.674200  0.496300  0.799100  1
  C  C316  1  0.325800  0.503700  0.200900  1
  C  C317  1  0.743100  0.480300  0.808500  1
  C  C318  1  0.256900  0.519700  0.191500  1
  C  C319  1  0.806900  0.444500  0.771300  1
  C  C320  1  0.193100  0.555500  0.228700  1
  C  C321  1  0.853900  0.479600  0.744100  1
  C  C322  1  0.146100  0.520400  0.255900  1
  C  C323  1  0.819200  0.376200  0.763100  1
  C  C324  1  0.180800  0.623800  0.236900  1
  C  C325  1  0.875600  0.346400  0.730100  1
  C  C326  1  0.124400  0.653600  0.269900  1
  C  C327  1  0.920600  0.385800  0.701900  1
  C  C328  1  0.079400  0.614200  0.298100  1
  C  C329  1  0.442600  0.589300  0.951600  1
  C  C330  1  0.557400  0.410700  0.048400  1
  C  C331  1  0.374800  0.583200  0.951800  1
  C  C332  1  0.625200  0.416800  0.048200  1
  C  C333  1  0.384700  0.562700  0.908200  1
  C  C334  1  0.615300  0.437300  0.091800  1
  C  C335  1  0.456000  0.554100  0.882300  1
  C  C336  1  0.544000  0.445900  0.117700  1
  C  C337  1  0.485200  0.532500  0.837200  1
  C  C338  1  0.514800  0.467500  0.162800  1
  C  C339  1  0.438300  0.515800  0.814400  1
  C  C340  1  0.561700  0.484200  0.185600  1
  C  C341  1  0.389500  0.569400  0.785300  1
  C  C342  1  0.610500  0.430600  0.214700  1
  C  C343  1  0.438200  0.446400  0.825600  1
  C  C344  1  0.561800  0.553600  0.174400  1
  C  C345  1  0.389700  0.432500  0.806000  1
  C  C346  1  0.610300  0.567500  0.194000  1
  C  C347  1  0.343400  0.489400  0.778300  1
  C  C348  1  0.656600  0.510600  0.221700  1
  C  C349  1  0.638500  0.584600  0.982300  1
  C  C350  1  0.361500  0.415400  0.017700  1
  C  C351  1  0.607500  0.621500  0.023000  1
  C  C352  1  0.392500  0.378500  0.977000  1
  C  C353  1  0.535400  0.637600  0.030200  1
  C  C354  1  0.464600  0.362400  0.969800  1
  C  C355  1  0.522200  0.610200  0.994000  1
  C  C356  1  0.477800  0.389800  0.006000  1
  C  C357  1  0.454000  0.613700  0.990000  1
  C  C358  1  0.546000  0.386300  0.010000  1
  C  C359  1  0.390800  0.643100  0.026500  1
  C  C360  1  0.609200  0.356900  0.973500  1
  C  C361  1  0.331000  0.697000  0.012100  1
  C  C362  1  0.669000  0.303000  0.987900  1
  C  C363  1  0.389500  0.618900  0.078100  1
  C  C364  1  0.610500  0.381100  0.921900  1
  C  C365  1  0.329800  0.649800  0.112600  1
  C  C366  1  0.670200  0.350200  0.887400  1
  C  C367  1  0.269600  0.703100  0.094200  1
  C  C368  1  0.730400  0.296900  0.905800  1
  C  C369  1  0.457900  0.920900  0.962500  1
  C  C370  1  0.542100  0.079100  0.037500  1
  C  C371  1  0.484200  0.863200  0.004800  1
  C  C372  1  0.515800  0.136800  0.995200  1
  C  C373  1  0.555100  0.846700  0.997700  1
  C  C374  1  0.444900  0.153300  0.002300  1
  C  C375  1  0.573700  0.896000  0.952000  1
  C  C376  1  0.426300  0.104000  0.048000  1
  C  C377  1  0.644100  0.897300  0.932600  1
  C  C378  1  0.355900  0.102700  0.067400  1
  C  C379  1  0.699100  0.853600  0.964800  1
  C  C380  1  0.300900  0.146400  0.035200  1
  C  C381  1  0.759600  0.799500  0.948900  1
  C  C382  1  0.240400  0.200500  0.051100  1
  C  C383  1  0.690400  0.864500  0.012600  1
  C  C384  1  0.309600  0.135500  0.987400  1
  C  C385  1  0.741400  0.823800  0.041800  1
  C  C386  1  0.258600  0.176200  0.958200  1
  C  C387  1  0.804400  0.771300  0.022600  1
  C  C388  1  0.195600  0.228700  0.977400  1
  C  C389  1  0.664400  0.938200  0.886400  1
  C  C390  1  0.335600  0.061800  0.113600  1
  C  C391  1  0.735800  0.942200  0.867200  1
  C  C392  1  0.264200  0.057800  0.132800  1
  C  C393  1  0.732400  0.989700  0.821700  1
  C  C394  1  0.267600  0.010300  0.178300  1
  C  C395  1  0.660700  0.012200  0.812400  1
  C  C396  1  0.339300  0.987800  0.187600  1
  C  C397  1  0.636400  0.062300  0.768900  1
  C  C398  1  0.363600  0.937700  0.231100  1
  C  C399  1  0.689500  0.090200  0.729700  1
  C  C400  1  0.310500  0.909800  0.270300  1
  C  C401  1  0.747000  0.044100  0.704300  1
  C  C402  1  0.253000  0.955900  0.295700  1
  C  C403  1  0.684600  0.160900  0.718800  1
  C  C404  1  0.315400  0.839100  0.281200  1
  C  C405  1  0.735200  0.183400  0.682800  1
  C  C406  1  0.264800  0.816600  0.317200  1
  C  C407  1  0.790100  0.134800  0.657900  1
  C  C408  1  0.209900  0.865200  0.342100  1
  C  C409  1  0.565800  0.087200  0.760900  1
  C  C410  1  0.434200  0.912800  0.239100  1
  C  C411  1  0.542900  0.134500  0.712100  1
  C  C412  1  0.457100  0.865500  0.287900  1
  C  C413  1  0.471500  0.144500  0.718000  1
  C  C414  1  0.528500  0.855500  0.282000  1
  C  C415  1  0.449200  0.107500  0.768100  1
  C  C416  1  0.550800  0.892500  0.231900  1
  C  C417  1  0.380900  0.106500  0.787300  1
  C  C418  1  0.619100  0.893500  0.212700  1
  C  C419  1  0.327700  0.147200  0.755900  1
  C  C420  1  0.672300  0.852800  0.244100  1
  C  C421  1  0.285600  0.114100  0.746100  1
  C  C422  1  0.714400  0.885900  0.253900  1
  C  C423  1  0.310300  0.222400  0.736000  1
  C  C424  1  0.689700  0.777600  0.264000  1
  C  C425  1  0.257200  0.256500  0.704700  1
  C  C426  1  0.742800  0.743500  0.295300  1
  C  C427  1  0.220900  0.218400  0.696200  1
  C  C428  1  0.779100  0.781600  0.303800  1
  C  C429  1  0.358500  0.070500  0.837200  1
  C  C430  1  0.641500  0.929500  0.162800  1
  C  C431  1  0.286700  0.074500  0.859600  1
  C  C432  1  0.713300  0.925500  0.140400  1
  C  C433  1  0.286500  0.033100  0.907700  1
  C  C434  1  0.713500  0.966900  0.092300  1
  C  C435  1  0.359900  0.002300  0.913000  1
  C  C436  1  0.640100  0.997700  0.087000  1
  C  C437  1  0.384400  0.953200  0.956800  1
  C  C438  1  0.615600  0.046800  0.043200  1
  C  C439  1  0.330800  0.930900  0.999000  1
  C  C440  1  0.669200  0.069100  0.001000  1
  C  C441  1  0.288700  0.898100  0.992500  1
  C  C442  1  0.711300  0.101900  0.007500  1
  C  C443  1  0.321000  0.941400  0.048200  1
  C  C444  1  0.679000  0.058600  0.951800  1
  C  C445  1  0.273600  0.917200  0.085900  1
  C  C446  1  0.726400  0.082800  0.914100  1
  C  C447  1  0.235800  0.885800  0.075900  1
  C  C448  1  0.764200  0.114200  0.924100  1
  C  C449  1  0.755600  0.742800  0.575400  1
  C  C450  1  0.244400  0.257200  0.424600  1
  C  C451  1  0.823500  0.755500  0.561600  1
  C  C452  1  0.176500  0.244500  0.438400  1
  C  C453  1  0.807600  0.827800  0.557700  1
  C  C454  1  0.192400  0.172200  0.442300  1
  C  C455  1  0.728500  0.858600  0.568600  1
  C  C456  1  0.271500  0.141400  0.431400  1
  C  C457  1  0.688800  0.932300  0.567500  1
  C  C458  1  0.311200  0.067700  0.432500  1
  C  C459  1  0.733500  0.978400  0.557900  1
  C  C460  1  0.266500  0.021600  0.442100  1
  C  C461  1  0.775500  0.969500  0.590800  1
  C  C462  1  0.224500  0.030500  0.409200  1
  C  C463  1  0.738500  0.030600  0.510800  1
  C  C464  1  0.261500  0.969400  0.489200  1
  C  C465  1  0.780300  0.066700  0.502900  1
  C  C466  1  0.219700  0.933300  0.497100  1
  C  C467  1  0.823500  0.055900  0.539700  1
  C  C468  1  0.176500  0.944100  0.460300  1
  C  C469  1  0.572100  0.679200  0.601200  1
  C  C470  1  0.427900  0.320800  0.398800  1
  C  C471  1  0.612000  0.601600  0.608700  1
  C  C472  1  0.388000  0.398400  0.391300  1
  C  C473  1  0.681800  0.592100  0.602200  1
  C  C474  1  0.318200  0.407900  0.397800  1
  C  C475  1  0.685300  0.663700  0.590800  1
  C  C476  1  0.314700  0.336300  0.409200  1
  C  C477  1  0.750300  0.674900  0.583000  1
  C  C478  1  0.249700  0.325100  0.417000  1
  C  C479  1  0.819300  0.613900  0.578600  1
  C  C480  1  0.180700  0.386100  0.421400  1
  C  C481  1  0.863700  0.591200  0.614500  1
  C  C482  1  0.136300  0.408800  0.385500  1
  C  C483  1  0.841100  0.576800  0.540700  1
  C  C484  1  0.158900  0.423200  0.459300  1
  C  C485  1  0.906800  0.517600  0.539400  1
  C  C486  1  0.093200  0.482400  0.460600  1
  C  C487  1  0.947900  0.498200  0.576500  1
  C  C488  1  0.052100  0.501800  0.423500  1
  C  C489  1  0.430500  0.900900  0.592200  1
  C  C490  1  0.569500  0.099100  0.407800  1
  C  C491  1  0.365500  0.889700  0.593300  1
  C  C492  1  0.634500  0.110300  0.406700  1
  C  C493  1  0.382700  0.819300  0.597200  1
  C  C494  1  0.617300  0.180700  0.402800  1
  C  C495  1  0.458200  0.784700  0.598500  1
  C  C496  1  0.541800  0.215300  0.401500  1
  C  C497  1  0.496900  0.712500  0.603100  1
  C  C498  1  0.503100  0.287500  0.396900  1
  C  C499  1  0.453900  0.665300  0.611400  1
  C  C500  1  0.546100  0.334700  0.388600  1
  C  C501  1  0.400800  0.663800  0.653600  1
  C  C502  1  0.599200  0.336200  0.346400  1
  C  C503  1  0.465800  0.622600  0.578100  1
  C  C504  1  0.534200  0.377400  0.421900  1
  C  C505  1  0.422800  0.581600  0.586900  1
  C  C506  1  0.577200  0.418400  0.413100  1
  C  C507  1  0.368700  0.585400  0.628300  1
  C  C508  1  0.631300  0.414600  0.371700  1
  C  C509  1  0.617900  0.962700  0.571400  1
  C  C510  1  0.382100  0.037300  0.428600  1
  C  C511  1  0.573000  0.042900  0.569500  1
  C  C512  1  0.427000  0.957100  0.430500  1
  C  C513  1  0.507200  0.050000  0.575500  1
  C  C514  1  0.492800  0.950000  0.424500  1
  C  C515  1  0.499800  0.980700  0.579900  1
  C  C516  1  0.500200  0.019300  0.420100  1
  C  C517  1  0.436100  0.967900  0.586300  1
  C  C518  1  0.563900  0.032100  0.413700  1
  C  C519  1  0.366200  0.030300  0.588700  1
  C  C520  1  0.633800  0.969700  0.411300  1
  C  C521  1  0.314500  0.033500  0.632800  1
  C  C522  1  0.685500  0.966500  0.367200  1
  C  C523  1  0.349400  0.087000  0.545500  1
  C  C524  1  0.650600  0.913000  0.454500  1
  C  C525  1  0.283800  0.142400  0.550400  1
  C  C526  1  0.716200  0.857600  0.449600  1
  C  C527  1  0.236600  0.141400  0.594500  1
  C  C528  1  0.763400  0.858600  0.405500  1
  C  C529  1  0.034500  0.706000  0.908500  1
  C  C530  1  0.965500  0.294000  0.091500  1
  C  C531  1  0.041500  0.639900  0.893400  1
  C  C532  1  0.958500  0.360100  0.106600  1
  C  C533  1  0.080700  0.817800  0.972100  1
  C  C534  1  0.919300  0.182200  0.027900  1
  C  C535  1  0.048300  0.889800  0.990500  1
  C  C536  1  0.951700  0.110200  0.009500  1
  C  C537  1  0.110100  0.471200  0.705400  1
  C  C538  1  0.889900  0.528800  0.294600  1
  C  C539  1  0.094300  0.544900  0.672500  1
  C  C540  1  0.905700  0.455100  0.327500  1
  C  C541  1  0.129400  0.711100  0.706500  1
  C  C542  1  0.870600  0.288900  0.293500  1
  C  C543  1  0.127400  0.704500  0.758900  1
  C  C544  1  0.872600  0.295500  0.241100  1
  C  C545  1  0.028500  0.900800  0.624300  1
  C  C546  1  0.971500  0.099200  0.375700  1
  C  C547  1  0.012600  0.917800  0.668700  1
  C  C548  1  0.987400  0.082200  0.331300  1
  C  C549  1  0.056100  0.074600  0.770000  1
  C  C550  1  0.943900  0.925400  0.230000  1
  C  C551  1  0.085600  0.014900  0.740800  1
  C  C552  1  0.914400  0.985100  0.259200  1
  C  C553  1  0.782000  0.676000  0.158200  1
  C  C554  1  0.218000  0.324000  0.841800  1
  C  C555  1  0.845000  0.687100  0.167900  1
  C  C556  1  0.155000  0.312900  0.832100  1
  C  C557  1  0.627000  0.732000  0.417400  1
  C  C558  1  0.373000  0.268000  0.582600  1
  C  C559  1  0.622200  0.723500  0.469500  1
  C  C560  1  0.377800  0.276500  0.530500  1
  C  C561  1  0.486500  0.583400  0.318400  1
  C  C562  1  0.513500  0.416600  0.681600  1
  C  C563  1  0.492900  0.661900  0.313800  1
  C  C564  1  0.507100  0.338100  0.686200  1
  N  N565  1  0.707200  0.524600  0.887400  1
  N  N566  1  0.292800  0.475400  0.112600  1
  N  N567  1  0.850800  0.609500  0.989800  1
  N  N568  1  0.149200  0.390500  0.010200  1
  N  N569  1  0.610700  0.521200  0.830900  1
  N  N570  1  0.389300  0.478800  0.169100  1
  N  N571  1  0.911000  0.450000  0.709400  1
  N  N572  1  0.089000  0.550000  0.290600  1
  N  N573  1  0.492000  0.570000  0.910200  1
  N  N574  1  0.508000  0.430000  0.089800  1
  N  N575  1  0.343200  0.556500  0.767300  1
  N  N576  1  0.656800  0.443500  0.232700  1
  N  N577  1  0.585700  0.579800  0.964400  1
  N  N578  1  0.414300  0.420200  0.035600  1
  N  N579  1  0.270800  0.727000  0.044000  1
  N  N580  1  0.729200  0.273000  0.956000  1
  N  N581  1  0.513400  0.939000  0.931300  1
  N  N582  1  0.486600  0.061000  0.068700  1
  N  N583  1  0.812400  0.759300  0.977200  1
  N  N584  1  0.187600  0.240700  0.022800  1
  N  N585  1  0.619000  0.982500  0.852300  1
  N  N586  1  0.381000  0.017500  0.147700  1
  N  N587  1  0.797500  0.064700  0.668200  1
  N  N588  1  0.202500  0.935300  0.331800  1
  N  N589  1  0.507400  0.074200  0.792800  1
  N  N590  1  0.492600  0.925800  0.207200  1
  N  N591  1  0.234800  0.148700  0.716700  1
  N  N592  1  0.765200  0.851300  0.283300  1
  N  N593  1  0.402800  0.025000  0.871700  1
  N  N594  1  0.597200  0.975000  0.128300  1
  N  N595  1  0.243000  0.875000  0.030300  1
  N  N596  1  0.757000  0.125000  0.969700  1
  N  N597  1  0.698800  0.807600  0.578500  1
  N  N598  1  0.301200  0.192400  0.421500  1
  N  N599  1  0.817800  0.008400  0.581800  1
  N  N600  1  0.182200  0.991600  0.418200  1
  N  N601  1  0.619300  0.712600  0.591200  1
  N  N602  1  0.380700  0.287400  0.408800  1
  N  N603  1  0.925600  0.535400  0.613400  1
  N  N604  1  0.074400  0.464600  0.386600  1
  N  N605  1  0.487400  0.836000  0.594100  1
  N  N606  1  0.512600  0.164000  0.405900  1
  N  N607  1  0.358300  0.625000  0.661800  1
  N  N608  1  0.641700  0.375000  0.338200  1
  N  N609  1  0.569000  0.927600  0.578800  1
  N  N610  1  0.431000  0.072400  0.421200  1
  N  N611  1  0.251300  0.087100  0.635500  1
  N  N612  1  0.748700  0.912900  0.364500  1
  N  N613  1  0.953700  0.748600  0.917600  1
  N  N614  1  0.046300  0.251400  0.082400  1
  N  N615  1  0.994900  0.603600  0.933300  1
  N  N616  1  0.005100  0.396400  0.066700  1
  N  N617  1  0.109600  0.908300  0.994500  1
  N  N618  1  0.890400  0.091700  0.005500  1
  N  N619  1  0.132600  0.766000  0.004800  1
  N  N620  1  0.867400  0.234000  0.995200  1
  N  N621  1  0.057300  0.543400  0.633600  1
  N  N622  1  0.942700  0.456600  0.366400  1
  N  N623  1  0.038600  0.463600  0.727100  1
  N  N624  1  0.961400  0.536400  0.272900  1
  N  N625  1  0.189700  0.644700  0.778100  1
  N  N626  1  0.810300  0.355300  0.221900  1
  N  N627  1  0.203600  0.701700  0.677200  1
  N  N628  1  0.796400  0.298300  0.322800  1
  N  N629  1  0.966400  0.919600  0.599500  1
  N  N630  1  0.033600  0.080400  0.400500  1
  N  N631  1  0.946600  0.975500  0.679800  1
  N  N632  1  0.053400  0.024500  0.320200  1
  N  N633  1  0.114100  0.095900  0.769700  1
  N  N634  1  0.885900  0.904100  0.230300  1
  N  N635  1  0.126100  0.039500  0.692800  1
  N  N636  1  0.873900  0.960500  0.307200  1
  N  N637  1  0.993000  0.406000  0.940200  1
  N  N638  1  0.007000  0.594000  0.059800  1
  N  N639  1  0.703800  0.571700  0.313800  1
  N  N640  1  0.296200  0.428300  0.686200  1
  N  N641  1  0.121700  0.097500  0.018400  1
  N  N642  1  0.878300  0.902500  0.981600  1
  N  N643  1  0.788800  0.338800  0.089100  1
  N  N644  1  0.211200  0.661200  0.910900  1
  N  N645  1  0.978800  0.705500  0.217200  1
  N  N646  1  0.021200  0.294500  0.782800  1
  N  N647  1  0.106600  0.168900  0.200400  1
  N  N648  1  0.893400  0.831100  0.799600  1
  N  N649  1  0.197600  0.948000  0.859300  1
  N  N650  1  0.802400  0.052000  0.140700  1
  N  N651  1  0.858000  0.634000  0.404300  1
  N  N652  1  0.142000  0.366000  0.595700  1
  N  N653  1  0.802800  0.115300  0.362000  1
  N  N654  1  0.197200  0.884700  0.638000  1
  N  N655  1  0.670600  0.280200  0.788900  1
  N  N656  1  0.329400  0.719800  0.211100  1
  N  N657  1  0.997000  0.912800  0.482500  1
  N  N658  1  0.003000  0.087200  0.517500  1
  O  O659  1  0.581300  0.798500  0.676800  1
  O  O660  1  0.418700  0.201500  0.323200  1
  O  O661  1  0.583300  0.671400  0.852800  1
  O  O662  1  0.416700  0.328600  0.147200  1
  O  O663  1  0.532300  0.905800  0.823000  1
  O  O664  1  0.467700  0.094200  0.177000  1
  O  O665  1  0.492500  0.107300  0.894200  1
  O  O666  1  0.507500  0.892700  0.105800  1
  O  O667  1  0.011200  0.344500  0.965800  1
  O  O668  1  0.988800  0.655500  0.034200  1
  O  O669  1  0.972400  0.457300  0.961100  1
  O  O670  1  0.027600  0.542700  0.038900  1
  O  O671  1  0.998100  0.411800  0.893700  1
  O  O672  1  0.001900  0.588200  0.106300  1
  O  O673  1  0.680800  0.581500  0.357700  1
  O  O674  1  0.319200  0.418500  0.642300  1
  O  O675  1  0.685200  0.624000  0.281100  1
  O  O676  1  0.314800  0.376000  0.718900  1
  O  O677  1  0.735600  0.510100  0.308200  1
  O  O678  1  0.264400  0.489900  0.691800  1
  O  O679  1  0.088700  0.158500  0.998400  1
  O  O680  1  0.911300  0.841500  0.001600  1
  O  O681  1  0.130800  0.092400  0.060700  1
  O  O682  1  0.869200  0.907600  0.939300  1
  O  O683  1  0.137100  0.041900  0.003900  1
  O  O684  1  0.862900  0.958100  0.996100  1
  O  O685  1  0.802200  0.362700  0.044200  1
  O  O686  1  0.197800  0.637300  0.955800  1
  O  O687  1  0.783500  0.280300  0.099800  1
  O  O688  1  0.216500  0.719700  0.900200  1
  O  O689  1  0.781000  0.374200  0.120600  1
  O  O690  1  0.219000  0.625800  0.879400  1
  O  O691  1  0.934500  0.693200  0.255300  1
  O  O692  1  0.065500  0.306800  0.744700  1
  O  O693  1  0.015900  0.658600  0.193100  1
  O  O694  1  0.984100  0.341400  0.806900  1
  O  O695  1  0.984800  0.766500  0.203300  1
  O  O696  1  0.015200  0.233500  0.796700  1
  O  O697  1  0.044500  0.195800  0.194700  1
  O  O698  1  0.955500  0.804200  0.805300  1
  O  O699  1  0.142000  0.206000  0.175200  1
  O  O700  1  0.858000  0.794000  0.824800  1
  O  O701  1  0.124100  0.123400  0.240700  1
  O  O702  1  0.875900  0.876600  0.759300  1
  O  O703  1  0.230800  0.966300  0.815900  1
  O  O704  1  0.769200  0.033700  0.184100  1
  O  O705  1  0.239300  0.903500  0.887600  1
  O  O706  1  0.760700  0.096500  0.112400  1
  O  O707  1  0.137500  0.987900  0.880100  1
  O  O708  1  0.862500  0.012100  0.119900  1
  O  O709  1  0.819900  0.686000  0.424300  1
  O  O710  1  0.180100  0.314000  0.575700  1
  O  O711  1  0.914300  0.638100  0.379600  1
  O  O712  1  0.085700  0.361900  0.620400  1
  O  O713  1  0.851500  0.574100  0.423400  1
  O  O714  1  0.148500  0.425900  0.576600  1
  O  O715  1  0.810000  0.051800  0.382700  1
  O  O716  1  0.190000  0.948200  0.617300  1
  O  O717  1  0.810000  0.133300  0.317200  1
  O  O718  1  0.190000  0.866700  0.682800  1
  O  O719  1  0.785900  0.162400  0.386400  1
  O  O720  1  0.214100  0.837600  0.613600  1
  O  O721  1  0.601300  0.313300  0.785400  1
  O  O722  1  0.398700  0.686700  0.214600  1
  O  O723  1  0.717500  0.293100  0.759900  1
  O  O724  1  0.282500  0.706900  0.240100  1
  O  O725  1  0.669500  0.234200  0.829900  1
  O  O726  1  0.330500  0.765800  0.170100  1
  O  O727  1  0.122400  0.356900  0.154500  1
  O  O728  1  0.877600  0.643100  0.845500  1
  O  O729  1  0.856600  0.477600  0.185800  1
  O  O730  1  0.143400  0.522400  0.814200  1
  O  O731  1  0.005500  0.463400  0.179400  1
  O  O732  1  0.994500  0.536600  0.820600  1
  O  O733  1  0.892200  0.197300  0.848800  1
  O  O734  1  0.107800  0.802700  0.151200  1
  O  O735  1  0.976900  0.266600  0.910500  1
  O  O736  1  0.023100  0.733400  0.089500  1
  O  O737  1  0.813000  0.216000  0.178500  1
  O  O738  1  0.187000  0.784000  0.821500  1
  O  O739  1  0.933500  0.979700  0.863600  1
  O  O740  1  0.066500  0.020300  0.136400  1
  O  O741  1  0.085300  0.134800  0.899800  1
  O  O742  1  0.914700  0.865200  0.100200  1
  O  O743  1  0.077400  0.800100  0.323900  1
  O  O744  1  0.922600  0.199900  0.676100  1
  O  O745  1  0.299100  0.625100  0.328700  1
  O  O746  1  0.700900  0.374900  0.671300  1
  O  O747  1  0.438300  0.576600  0.451300  1
  O  O748  1  0.561700  0.423400  0.548700  1
  O  O749  1  0.692000  0.218000  0.104800  1
  O  O750  1  0.308000  0.782000  0.895200  1
  O  O751  1  0.965100  0.065200  0.904800  1
  O  O752  1  0.034900  0.934800  0.095200  1
  O  O753  1  0.051600  0.233800  0.365000  1
  O  O754  1  0.948400  0.766200  0.635000  1
  O  O755  1  0.681200  0.223100  0.254200  1
  O  O756  1  0.318800  0.776900  0.745800  1
  O  O757  1  0.788400  0.343600  0.413300  1
  O  O758  1  0.211600  0.656400  0.586700  1
  O  O759  1  0.579000  0.248000  0.158800  1
  O  O760  1  0.421000  0.752000  0.841200  1
  O  O761  1  0.944700  0.764200  0.337700  1
  O  O762  1  0.055300  0.235800  0.662300  1
  O  O763  1  0.544600  0.246500  0.869100  1
  O  O764  1  0.455400  0.753500  0.130900  1
  O  O765  1  0.149300  0.821000  0.230700  1
  O  O766  1  0.850700  0.179000  0.769300  1
  O  O767  1  0.115200  0.960500  0.230100  1
  O  O768  1  0.884800  0.039500  0.769900  1
  O  O769  1  0.086900  0.402700  0.226700  1
  O  O770  1  0.913100  0.597300  0.773300  1
  O  O771  1  0.035300  0.873300  0.820100  1
  O  O772  1  0.964700  0.126700  0.179900  1
  O  O773  1  0.742400  0.469300  0.430400  1
  O  O774  1  0.257600  0.530700  0.569600  1
  O  O775  1  0.237400  0.137500  0.285300  1
  O  O776  1  0.762600  0.862500  0.714700  1
  O  O777  1  0.524000  0.328000  0.555500  1
  O  O778  1  0.476000  0.672000  0.444500  1
  O  O779  1  0.486000  0.046000  0.281400  1
  O  O780  1  0.514000  0.954000  0.718600  1
  O  O781  1  0.609400  0.225500  0.569000  1
  O  O782  1  0.390600  0.774500  0.431000  1
  O  O783  1  0.694000  0.084000  0.259000  1
  O  O784  1  0.306000  0.916000  0.741000  1
  O  O785  1  0.992900  0.914200  0.361200  1
  O  O786  1  0.007100  0.085800  0.638800  1
  O  O787  1  0.175400  0.681200  0.390900  1
  O  O788  1  0.824600  0.318800  0.609100  1
  O  O789  1  0.766000  0.613200  0.188300  1
  O  O790  1  0.234000  0.386800  0.811700  1
  O  O791  1  0.591000  0.708500  0.388100  1
  O  O792  1  0.409000  0.291500  0.611900  1
  O  O793  1  0.421600  0.571900  0.354900  1
  O  O794  1  0.578400  0.428100  0.645100  1
  O  O795  1  0.043200  0.889900  0.446100  1
  O  O796  1  0.956800  0.110100  0.553900  1
  O  O797  1  0.976000  0.867000  0.513800  1
  O  O798  1  0.024000  0.133000  0.486200  1
  O  O799  1  0.002400  0.964900  0.494400  1
  O  O800  1  0.997600  0.035100  0.505600  1
