# generated using pymatgen
data_H112Pd2C144S18N14O27
_symmetry_space_group_name_H-M   'P 1'
_cell_length_a   16.17751944
_cell_length_b   16.17751944
_cell_length_c   27.39400000
_cell_angle_alpha   79.72089840
_cell_angle_beta   79.72089840
_cell_angle_gamma   86.79150342
_symmetry_Int_Tables_number   1
_chemical_formula_structural   H112Pd2C144S18N14O27
_chemical_formula_sum   'H224 Pd4 C288 S36 N28 O54'
_cell_volume   6938.90012474
_cell_formula_units_Z   2
loop_
 _symmetry_equiv_pos_site_id
 _symmetry_equiv_pos_as_xyz
  1  'x, y, z'
loop_
 _atom_site_type_symbol
 _atom_site_label
 _atom_site_symmetry_multiplicity
 _atom_site_fract_x
 _atom_site_fract_y
 _atom_site_fract_z
 _atom_site_occupancy
  C  C1  1  0.910500  0.707100  0.925700  1
  C  C2  1  0.707100  0.910500  0.425700  1
  C  C3  1  0.089500  0.292900  0.074300  1
  C  C4  1  0.292900  0.089500  0.574300  1
  C  C5  1  0.862200  0.731200  0.971700  1
  C  C6  1  0.731200  0.862200  0.471700  1
  C  C7  1  0.137800  0.268800  0.028300  1
  C  C8  1  0.268800  0.137800  0.528300  1
  C  C9  1  0.936100  0.592300  0.879800  1
  C  C10  1  0.592300  0.936100  0.379800  1
  C  C11  1  0.063900  0.407700  0.120200  1
  C  C12  1  0.407700  0.063900  0.620200  1
  C  C13  1  0.910500  0.507300  0.877200  1
  C  C14  1  0.507300  0.910500  0.377200  1
  C  C15  1  0.089500  0.492700  0.122800  1
  C  C16  1  0.492700  0.089500  0.622800  1
  C  C17  1  0.876700  0.478100  0.031200  1
  C  C18  1  0.478100  0.876700  0.531200  1
  C  C19  1  0.123300  0.521900  0.968800  1
  C  C20  1  0.521900  0.123300  0.468800  1
  C  C21  1  0.731600  0.490400  0.996900  1
  C  C22  1  0.490400  0.731600  0.496900  1
  C  C23  1  0.268400  0.509600  0.003100  1
  C  C24  1  0.509600  0.268400  0.503100  1
  C  C25  1  0.953800  0.257600  0.916500  1
  C  C26  1  0.257600  0.953800  0.416500  1
  C  C27  1  0.046200  0.742400  0.083500  1
  C  C28  1  0.742400  0.046200  0.583500  1
  C  C29  1  0.913700  0.160300  0.004700  1
  C  C30  1  0.160300  0.913700  0.504700  1
  C  C31  1  0.086300  0.839700  0.995300  1
  C  C32  1  0.839700  0.086300  0.495300  1
  C  C33  1  0.755000  0.012600  0.961100  1
  C  C34  1  0.012600  0.755000  0.461100  1
  C  C35  1  0.245000  0.987400  0.038900  1
  C  C36  1  0.987400  0.245000  0.538900  1
  C  C37  1  0.905300  0.977300  0.912400  1
  C  C38  1  0.977300  0.905300  0.412400  1
  C  C39  1  0.094700  0.022700  0.087600  1
  C  C40  1  0.022700  0.094700  0.587600  1
  C  C41  1  0.654900  0.498100  0.732600  1
  C  C42  1  0.498100  0.654900  0.232600  1
  C  C43  1  0.345100  0.501900  0.267400  1
  C  C44  1  0.501900  0.345100  0.767400  1
  C  C45  1  0.610200  0.622600  0.768800  1
  C  C46  1  0.622600  0.610200  0.268800  1
  C  C47  1  0.389800  0.377400  0.231200  1
  C  C48  1  0.377400  0.389800  0.731200  1
  C  C49  1  0.440900  0.672300  0.787600  1
  C  C50  1  0.672300  0.440900  0.287600  1
  C  C51  1  0.559100  0.327700  0.212400  1
  C  C52  1  0.327700  0.559100  0.712400  1
  C  C53  1  0.328600  0.633200  0.733300  1
  C  C54  1  0.633200  0.328600  0.233300  1
  C  C55  1  0.671400  0.366800  0.266700  1
  C  C56  1  0.366800  0.671400  0.766700  1
  C  C57  1  0.528100  0.573100  0.863500  1
  C  C58  1  0.573100  0.528100  0.363500  1
  C  C59  1  0.471900  0.426900  0.136500  1
  C  C60  1  0.426900  0.471900  0.636500  1
  C  C61  1  0.623400  0.551200  0.780200  1
  C  C62  1  0.551200  0.623400  0.280200  1
  C  C63  1  0.376600  0.448800  0.219800  1
  C  C64  1  0.448800  0.376600  0.719800  1
  C  C65  1  0.414000  0.332800  0.921800  1.0
  C  C66  1  0.332800  0.414000  0.421800  1.0
  C  C67  1  0.586000  0.667200  0.078200  1.0
  C  C68  1  0.667200  0.586000  0.578200  1.0
  C  C69  1  0.357800  0.349800  0.889700  1.0
  C  C70  1  0.349800  0.357800  0.389700  1.0
  C  C71  1  0.642200  0.650200  0.110300  1.0
  C  C72  1  0.650200  0.642200  0.610300  1.0
  C  C73  1  0.293000  0.295200  0.893100  1.0
  C  C74  1  0.295200  0.293000  0.393100  1.0
  C  C75  1  0.707000  0.704800  0.106900  1.0
  C  C76  1  0.704800  0.707000  0.606900  1.0
  C  C77  1  0.292500  0.221300  0.927200  1.0
  C  C78  1  0.221300  0.292500  0.427200  1.0
  C  C79  1  0.707500  0.778700  0.072800  1.0
  C  C80  1  0.778700  0.707500  0.572800  1.0
  C  C81  1  0.353700  0.207500  0.957000  1.0
  C  C82  1  0.207500  0.353700  0.457000  1.0
  C  C83  1  0.646300  0.792500  0.043000  1.0
  C  C84  1  0.792500  0.646300  0.543000  1.0
  C  C85  1  0.228300  0.314700  0.860200  1.0
  C  C86  1  0.314700  0.228300  0.360200  1.0
  C  C87  1  0.771700  0.685300  0.139800  1.0
  C  C88  1  0.685300  0.771700  0.639800  1.0
  C  C89  1  0.210900  0.398500  0.839400  1.0
  C  C90  1  0.398500  0.210900  0.339400  1.0
  C  C91  1  0.789100  0.601500  0.160600  1.0
  C  C92  1  0.601500  0.789100  0.660600  1.0
  C  C93  1  0.150200  0.418000  0.809200  1.0
  C  C94  1  0.418000  0.150200  0.309200  1.0
  C  C95  1  0.849800  0.582000  0.190800  1.0
  C  C96  1  0.582000  0.849800  0.690800  1.0
  C  C97  1  0.104600  0.351200  0.801100  1.0
  C  C98  1  0.351200  0.104600  0.301100  1.0
  C  C99  1  0.895400  0.648800  0.198900  1.0
  C  C100  1  0.648800  0.895400  0.698900  1.0
  C  C101  1  0.119200  0.269400  0.822000  1.0
  C  C102  1  0.269400  0.119200  0.322000  1.0
  C  C103  1  0.880800  0.730600  0.178000  1.0
  C  C104  1  0.730600  0.880800  0.678000  1.0
  C  C105  1  0.181700  0.251300  0.851300  1.0
  C  C106  1  0.251300  0.181700  0.351300  1.0
  C  C107  1  0.818300  0.748700  0.148700  1.0
  C  C108  1  0.748700  0.818300  0.648700  1.0
  C  C109  1  0.133600  0.506600  0.786500  1.0
  C  C110  1  0.506600  0.133600  0.286500  1.0
  C  C111  1  0.866400  0.493400  0.213500  1.0
  C  C112  1  0.493400  0.866400  0.713500  1.0
  C  C113  1  0.141600  0.573800  0.810600  1.0
  C  C114  1  0.573800  0.141600  0.310600  1.0
  C  C115  1  0.858400  0.426200  0.189400  1.0
  C  C116  1  0.426200  0.858400  0.689400  1.0
  C  C117  1  0.125100  0.656900  0.790200  1.0
  C  C118  1  0.656900  0.125100  0.290200  1.0
  C  C119  1  0.874900  0.343100  0.209800  1.0
  C  C120  1  0.343100  0.874900  0.709800  1.0
  C  C121  1  0.103200  0.673600  0.743100  1.0
  C  C122  1  0.673600  0.103200  0.243100  1.0
  C  C123  1  0.896800  0.326400  0.256900  1.0
  C  C124  1  0.326400  0.896800  0.756900  1.0
  C  C125  1  0.096000  0.609200  0.717600  1.0
  C  C126  1  0.609200  0.096000  0.217600  1.0
  C  C127  1  0.904000  0.390800  0.282400  1.0
  C  C128  1  0.390800  0.904000  0.782400  1.0
  C  C129  1  0.110400  0.527200  0.738500  1.0
  C  C130  1  0.527200  0.110400  0.238500  1.0
  C  C131  1  0.889600  0.472800  0.261500  1.0
  C  C132  1  0.472800  0.889600  0.761500  1.0
  C  C133  1  0.133900  0.728300  0.816300  1.0
  C  C134  1  0.728300  0.133900  0.316300  1.0
  C  C135  1  0.866100  0.271700  0.183700  1.0
  C  C136  1  0.271700  0.866100  0.683700  1.0
  C  C137  1  0.195200  0.725400  0.846400  1.0
  C  C138  1  0.725400  0.195200  0.346400  1.0
  C  C139  1  0.804800  0.274600  0.153600  1.0
  C  C140  1  0.274600  0.804800  0.653600  1.0
  C  C141  1  0.207600  0.792000  0.869800  1.0
  C  C142  1  0.792000  0.207600  0.369800  1.0
  C  C143  1  0.792400  0.208000  0.130200  1.0
  C  C144  1  0.208000  0.792400  0.630200  1.0
  C  C145  1  0.156100  0.863700  0.863200  1.0
  C  C146  1  0.863700  0.156100  0.363200  1.0
  C  C147  1  0.843900  0.136300  0.136800  1.0
  C  C148  1  0.136300  0.843900  0.636800  1.0
  C  C149  1  0.094000  0.867400  0.834400  1.0
  C  C150  1  0.867400  0.094000  0.334400  1.0
  C  C151  1  0.906000  0.132600  0.165600  1.0
  C  C152  1  0.132600  0.906000  0.665600  1.0
  C  C153  1  0.084000  0.801000  0.811300  1.0
  C  C154  1  0.801000  0.084000  0.311300  1.0
  C  C155  1  0.916000  0.199000  0.188700  1.0
  C  C156  1  0.199000  0.916000  0.688700  1.0
  C  C157  1  0.611600  0.291600  0.063000  1.0
  C  C158  1  0.291600  0.611600  0.563000  1.0
  C  C159  1  0.388400  0.708400  0.937000  1.0
  C  C160  1  0.708400  0.388400  0.437000  1.0
  C  C161  1  0.675800  0.288000  0.090200  1.0
  C  C162  1  0.288000  0.675800  0.590200  1.0
  C  C163  1  0.324200  0.712000  0.909800  1.0
  C  C164  1  0.712000  0.324200  0.409800  1.0
  C  C165  1  0.277900  0.785700  0.899300  1.0
  C  C166  1  0.785700  0.277900  0.399300  1.0
  C  C167  1  0.722100  0.214300  0.100700  1.0
  C  C168  1  0.214300  0.722100  0.600700  1.0
  C  C169  1  0.300700  0.855300  0.917200  1.0
  C  C170  1  0.855300  0.300700  0.417200  1.0
  C  C171  1  0.699300  0.144700  0.082800  1.0
  C  C172  1  0.144700  0.699300  0.582800  1.0
  C  C173  1  0.633400  0.152400  0.056100  1.0
  C  C174  1  0.152400  0.633400  0.556100  1.0
  C  C175  1  0.366600  0.847600  0.943900  1.0
  C  C176  1  0.847600  0.366600  0.443900  1.0
  C  C177  1  0.638900  0.324300  0.930500  1.0
  C  C178  1  0.324300  0.638900  0.430500  1.0
  C  C179  1  0.361100  0.675700  0.069500  1.0
  C  C180  1  0.675700  0.361100  0.569500  1.0
  C  C181  1  0.704200  0.338200  0.891100  1.0
  C  C182  1  0.338200  0.704200  0.391100  1.0
  C  C183  1  0.295800  0.661800  0.108900  1.0
  C  C184  1  0.661800  0.295800  0.608900  1.0
  C  C185  1  0.729000  0.278000  0.860600  1.0
  C  C186  1  0.278000  0.729000  0.360600  1.0
  C  C187  1  0.271000  0.722000  0.139400  1.0
  C  C188  1  0.722000  0.271000  0.639400  1.0
  C  C189  1  0.683800  0.206200  0.871800  1.0
  C  C190  1  0.206200  0.683800  0.371800  1.0
  C  C191  1  0.316200  0.793800  0.128200  1.0
  C  C192  1  0.793800  0.316200  0.628200  1.0
  C  C193  1  0.617800  0.196200  0.912300  1.0
  C  C194  1  0.196200  0.617800  0.412300  1.0
  C  C195  1  0.382200  0.803800  0.087700  1.0
  C  C196  1  0.803800  0.382200  0.587700  1.0
  C  C197  1  0.798500  0.293100  0.817200  1.0
  C  C198  1  0.293100  0.798500  0.317200  1.0
  C  C199  1  0.201500  0.706900  0.182800  1.0
  C  C200  1  0.706900  0.201500  0.682800  1.0
  C  C201  1  0.814400  0.372400  0.791300  1.0
  C  C202  1  0.372400  0.814400  0.291300  1.0
  C  C203  1  0.185600  0.627600  0.208700  1.0
  C  C204  1  0.627600  0.185600  0.708700  1.0
  C  C205  1  0.878200  0.388400  0.748700  1.0
  C  C206  1  0.388400  0.878200  0.248700  1.0
  C  C207  1  0.121800  0.611600  0.251300  1.0
  C  C208  1  0.611600  0.121800  0.751300  1.0
  C  C209  1  0.927400  0.318000  0.735400  1.0
  C  C210  1  0.318000  0.927400  0.235400  1.0
  C  C211  1  0.072600  0.682000  0.264600  1.0
  C  C212  1  0.682000  0.072600  0.764600  1.0
  C  C213  1  0.911100  0.237700  0.760600  1.0
  C  C214  1  0.237700  0.911100  0.260600  1.0
  C  C215  1  0.088900  0.762300  0.239400  1.0
  C  C216  1  0.762300  0.088900  0.739400  1.0
  C  C217  1  0.848500  0.224300  0.801700  1.0
  C  C218  1  0.224300  0.848500  0.301700  1.0
  C  C219  1  0.151500  0.775700  0.198300  1.0
  C  C220  1  0.775700  0.151500  0.698300  1.0
  C  C221  1  0.890300  0.477500  0.720500  1.0
  C  C222  1  0.477500  0.890300  0.220500  1.0
  C  C223  1  0.109700  0.522500  0.279500  1.0
  C  C224  1  0.522500  0.109700  0.779500  1.0
  C  C225  1  0.881100  0.631500  0.716300  1.0
  C  C226  1  0.631500  0.881100  0.216300  1.0
  C  C227  1  0.118900  0.368500  0.283700  1.0
  C  C228  1  0.368500  0.118900  0.783700  1.0
  C  C229  1  0.873100  0.548100  0.742900  1.0
  C  C230  1  0.548100  0.873100  0.242900  1.0
  C  C231  1  0.126900  0.451900  0.257100  1.0
  C  C232  1  0.451900  0.126900  0.757100  1.0
  C  C233  1  0.911000  0.641000  0.664600  1.0
  C  C234  1  0.641000  0.911000  0.164600  1.0
  C  C235  1  0.089000  0.359000  0.335400  1.0
  C  C236  1  0.359000  0.089000  0.835400  1.0
  C  C237  1  0.929600  0.573800  0.641600  1.0
  C  C238  1  0.573800  0.929600  0.141600  1.0
  C  C239  1  0.070400  0.426200  0.358400  1.0
  C  C240  1  0.426200  0.070400  0.858400  1.0
  C  C241  1  0.919700  0.489700  0.667300  1.0
  C  C242  1  0.489700  0.919700  0.167300  1.0
  C  C243  1  0.080300  0.510300  0.332700  1.0
  C  C244  1  0.510300  0.080300  0.832700  1.0
  C  C245  1  0.787100  0.773300  0.807200  1.0
  C  C246  1  0.773300  0.787100  0.307200  1.0
  C  C247  1  0.212900  0.226700  0.192800  1.0
  C  C248  1  0.226700  0.212900  0.692800  1.0
  C  C249  1  0.804700  0.702700  0.783500  1.0
  C  C250  1  0.702700  0.804700  0.283500  1.0
  C  C251  1  0.195300  0.297300  0.216500  1.0
  C  C252  1  0.297300  0.195300  0.716500  1.0
  C  C253  1  0.867000  0.705000  0.741600  1.0
  C  C254  1  0.705000  0.867000  0.241600  1.0
  C  C255  1  0.133000  0.295000  0.258400  1.0
  C  C256  1  0.295000  0.133000  0.758400  1.0
  C  C257  1  0.910700  0.779700  0.722800  1.0
  C  C258  1  0.779700  0.910700  0.222800  1.0
  C  C259  1  0.089300  0.220300  0.277200  1.0
  C  C260  1  0.220300  0.089300  0.777200  1.0
  C  C261  1  0.895300  0.848900  0.746600  1.0
  C  C262  1  0.848900  0.895300  0.246600  1.0
  C  C263  1  0.104700  0.151100  0.253400  1.0
  C  C264  1  0.151100  0.104700  0.753400  1.0
  C  C265  1  0.833700  0.847100  0.788500  1.0
  C  C266  1  0.847100  0.833700  0.288500  1.0
  C  C267  1  0.166300  0.152900  0.211500  1.0
  C  C268  1  0.152900  0.166300  0.711500  1.0
  C  C269  1  0.367700  0.301900  0.074100  1.0
  C  C270  1  0.301900  0.367700  0.574100  1.0
  C  C271  1  0.632300  0.698100  0.925900  1.0
  C  C272  1  0.698100  0.632300  0.425900  1.0
  C  C273  1  0.305600  0.301000  0.114300  1.0
  C  C274  1  0.301000  0.305600  0.614300  1.0
  C  C275  1  0.694400  0.699000  0.885700  1.0
  C  C276  1  0.699000  0.694400  0.385700  1.0
  C  C277  1  0.718600  0.770800  0.851600  1.0
  C  C278  1  0.770800  0.718600  0.351600  1.0
  C  C279  1  0.281400  0.229200  0.148400  1.0
  C  C280  1  0.229200  0.281400  0.648400  1.0
  C  C281  1  0.673500  0.841500  0.863700  1.0
  C  C282  1  0.841500  0.673500  0.363700  1.0
  C  C283  1  0.326500  0.158500  0.136300  1.0
  C  C284  1  0.158500  0.326500  0.636300  1.0
  C  C285  1  0.387300  0.162300  0.094500  1.0
  C  C286  1  0.162300  0.387300  0.594500  1.0
  C  C287  1  0.612700  0.837700  0.905500  1.0
  C  C288  1  0.837700  0.612700  0.405500  1.0
  H  H289  1  0.898800  0.748200  0.896200  1
  H  H290  1  0.748200  0.898800  0.396200  1
  H  H291  1  0.101200  0.251800  0.103800  1
  H  H292  1  0.251800  0.101200  0.603800  1
  H  H293  1  0.971300  0.708100  0.926800  1
  H  H294  1  0.708100  0.971300  0.426800  1
  H  H295  1  0.028700  0.291900  0.073200  1
  H  H296  1  0.291900  0.028700  0.573200  1
  H  H297  1  0.877800  0.787600  0.974400  1
  H  H298  1  0.787600  0.877800  0.474400  1
  H  H299  1  0.122200  0.212400  0.025600  1
  H  H300  1  0.212400  0.122200  0.525600  1
  H  H301  1  0.874500  0.691100  0.000900  1
  H  H302  1  0.691100  0.874500  0.500900  1
  H  H303  1  0.125500  0.308900  0.999100  1
  H  H304  1  0.308900  0.125500  0.499100  1
  H  H305  1  0.802100  0.730900  0.970400  1
  H  H306  1  0.730900  0.802100  0.470400  1
  H  H307  1  0.197900  0.269100  0.029600  1
  H  H308  1  0.269100  0.197900  0.529600  1
  H  H309  1  0.996400  0.590400  0.882800  1
  H  H310  1  0.590400  0.996400  0.382800  1
  H  H311  1  0.003600  0.409600  0.117200  1
  H  H312  1  0.409600  0.003600  0.617200  1
  H  H313  1  0.929400  0.630600  0.848200  1
  H  H314  1  0.630600  0.929400  0.348200  1
  H  H315  1  0.070600  0.369400  0.151800  1
  H  H316  1  0.369400  0.070600  0.651800  1
  H  H317  1  0.945100  0.487500  0.848100  1
  H  H318  1  0.487500  0.945100  0.348100  1
  H  H319  1  0.054900  0.512500  0.151900  1
  H  H320  1  0.512500  0.054900  0.651900  1
  H  H321  1  0.851200  0.509000  0.873600  1
  H  H322  1  0.509000  0.851200  0.373600  1
  H  H323  1  0.148800  0.491000  0.126400  1
  H  H324  1  0.491000  0.148800  0.626400  1
  H  H325  1  0.918300  0.468900  0.908100  1
  H  H326  1  0.468900  0.918300  0.408100  1
  H  H327  1  0.081700  0.531100  0.091900  1
  H  H328  1  0.531100  0.081700  0.591900  1
  H  H329  1  0.910800  0.489200  0.055400  1
  H  H330  1  0.489200  0.910800  0.555400  1
  H  H331  1  0.089200  0.510800  0.944600  1
  H  H332  1  0.510800  0.089200  0.444600  1
  H  H333  1  0.902400  0.504000  0.997200  1
  H  H334  1  0.504000  0.902400  0.497200  1
  H  H335  1  0.097600  0.496000  0.002800  1
  H  H336  1  0.496000  0.097600  0.502800  1
  H  H337  1  0.873700  0.417300  0.032900  1
  H  H338  1  0.417300  0.873700  0.532900  1
  H  H339  1  0.126300  0.582700  0.967100  1
  H  H340  1  0.582700  0.126300  0.467100  1
  H  H341  1  0.672900  0.509900  0.999200  1
  H  H342  1  0.509900  0.672900  0.499200  1
  H  H343  1  0.327100  0.490100  0.000800  1
  H  H344  1  0.490100  0.327100  0.500800  1
  H  H345  1  0.734700  0.429100  0.000100  1
  H  H346  1  0.429100  0.734700  0.500100  1
  H  H347  1  0.265300  0.570900  0.999900  1
  H  H348  1  0.570900  0.265300  0.499900  1
  H  H349  1  0.763500  0.515500  0.964200  1
  H  H350  1  0.515500  0.763500  0.464200  1
  H  H351  1  0.236500  0.484500  0.035800  1
  H  H352  1  0.484500  0.236500  0.535800  1
  H  H353  1  0.454900  0.373500  0.920300  1.0
  H  H354  1  0.373500  0.454900  0.420300  1.0
  H  H355  1  0.545100  0.626500  0.079700  1.0
  H  H356  1  0.626500  0.545100  0.579700  1.0
  H  H357  1  0.362800  0.399200  0.864900  1.0
  H  H358  1  0.399200  0.362800  0.364900  1.0
  H  H359  1  0.637200  0.600800  0.135100  1.0
  H  H360  1  0.600800  0.637200  0.635100  1.0
  H  H361  1  0.250700  0.180900  0.930100  1.0
  H  H362  1  0.180900  0.250700  0.430100  1.0
  H  H363  1  0.749300  0.819100  0.069900  1.0
  H  H364  1  0.819100  0.749300  0.569900  1.0
  H  H365  1  0.352700  0.156300  0.980200  1.0
  H  H366  1  0.156300  0.352700  0.480200  1.0
  H  H367  1  0.647300  0.843700  0.019800  1.0
  H  H368  1  0.843700  0.647300  0.519800  1.0
  H  H369  1  0.241300  0.442500  0.846200  1.0
  H  H370  1  0.442500  0.241300  0.346200  1.0
  H  H371  1  0.758700  0.557500  0.153800  1.0
  H  H372  1  0.557500  0.758700  0.653800  1.0
  H  H373  1  0.062300  0.363300  0.780600  1.0
  H  H374  1  0.363300  0.062300  0.280600  1.0
  H  H375  1  0.937700  0.636700  0.219400  1.0
  H  H376  1  0.636700  0.937700  0.719400  1.0
  H  H377  1  0.086900  0.225700  0.816400  1.0
  H  H378  1  0.225700  0.086900  0.316400  1.0
  H  H379  1  0.913100  0.774300  0.183600  1.0
  H  H380  1  0.774300  0.913100  0.683600  1.0
  H  H381  1  0.192700  0.194700  0.865400  1.0
  H  H382  1  0.194700  0.192700  0.365400  1.0
  H  H383  1  0.807300  0.805300  0.134600  1.0
  H  H384  1  0.805300  0.807300  0.634600  1.0
  H  H385  1  0.159100  0.562500  0.842500  1.0
  H  H386  1  0.562500  0.159100  0.342500  1.0
  H  H387  1  0.840900  0.437500  0.157500  1.0
  H  H388  1  0.437500  0.840900  0.657500  1.0
  H  H389  1  0.093000  0.730000  0.728100  1.0
  H  H390  1  0.730000  0.093000  0.228100  1.0
  H  H391  1  0.907000  0.270000  0.271900  1.0
  H  H392  1  0.270000  0.907000  0.771900  1.0
  H  H393  1  0.080900  0.621500  0.685100  1.0
  H  H394  1  0.621500  0.080900  0.185100  1.0
  H  H395  1  0.919100  0.378500  0.314900  1.0
  H  H396  1  0.378500  0.919100  0.814900  1.0
  H  H397  1  0.104600  0.483600  0.720400  1.0
  H  H398  1  0.483600  0.104600  0.220400  1.0
  H  H399  1  0.895400  0.516400  0.279600  1.0
  H  H400  1  0.516400  0.895400  0.779600  1.0
  H  H401  1  0.229800  0.676200  0.851000  1.0
  H  H402  1  0.676200  0.229800  0.351000  1.0
  H  H403  1  0.770200  0.323800  0.149000  1.0
  H  H404  1  0.323800  0.770200  0.649000  1.0
  H  H405  1  0.163800  0.910200  0.878600  1.0
  H  H406  1  0.910200  0.163800  0.378600  1.0
  H  H407  1  0.836200  0.089800  0.121400  1.0
  H  H408  1  0.089800  0.836200  0.621400  1.0
  H  H409  1  0.058200  0.915800  0.830600  1.0
  H  H410  1  0.915800  0.058200  0.330600  1.0
  H  H411  1  0.941800  0.084200  0.169400  1.0
  H  H412  1  0.084200  0.941800  0.669400  1.0
  H  H413  1  0.041500  0.804900  0.791100  1.0
  H  H414  1  0.804900  0.041500  0.291100  1.0
  H  H415  1  0.958500  0.195100  0.208900  1.0
  H  H416  1  0.195100  0.958500  0.708900  1.0
  H  H417  1  0.581900  0.343300  0.055900  1.0
  H  H418  1  0.343300  0.581900  0.555900  1.0
  H  H419  1  0.418100  0.656700  0.944100  1.0
  H  H420  1  0.656700  0.418100  0.444100  1.0
  H  H421  1  0.688600  0.336800  0.101900  1.0
  H  H422  1  0.336800  0.688600  0.601900  1.0
  H  H423  1  0.311400  0.663200  0.898100  1.0
  H  H424  1  0.663200  0.311400  0.398100  1.0
  H  H425  1  0.271200  0.907600  0.911100  1.0
  H  H426  1  0.907600  0.271200  0.411100  1.0
  H  H427  1  0.728800  0.092400  0.088900  1.0
  H  H428  1  0.092400  0.728800  0.588900  1.0
  H  H429  1  0.618400  0.104600  0.044200  1.0
  H  H430  1  0.104600  0.618400  0.544200  1.0
  H  H431  1  0.381600  0.895400  0.955800  1.0
  H  H432  1  0.895400  0.381600  0.455800  1.0
  H  H433  1  0.624500  0.366100  0.951100  1.0
  H  H434  1  0.366100  0.624500  0.451100  1.0
  H  H435  1  0.375500  0.633900  0.048900  1.0
  H  H436  1  0.633900  0.375500  0.548900  1.0
  H  H437  1  0.732900  0.389700  0.884400  1.0
  H  H438  1  0.389700  0.732900  0.384400  1.0
  H  H439  1  0.267100  0.610300  0.115600  1.0
  H  H440  1  0.610300  0.267100  0.615600  1.0
  H  H441  1  0.697500  0.163100  0.852000  1.0
  H  H442  1  0.163100  0.697500  0.352000  1.0
  H  H443  1  0.302500  0.836900  0.148000  1.0
  H  H444  1  0.836900  0.302500  0.648000  1.0
  H  H445  1  0.587600  0.145600  0.919700  1.0
  H  H446  1  0.145600  0.587600  0.419700  1.0
  H  H447  1  0.412400  0.854400  0.080300  1.0
  H  H448  1  0.854400  0.412400  0.580300  1.0
  H  H449  1  0.781400  0.418200  0.802300  1.0
  H  H450  1  0.418200  0.781400  0.302300  1.0
  H  H451  1  0.218600  0.581800  0.197700  1.0
  H  H452  1  0.581800  0.218600  0.697700  1.0
  H  H453  1  0.973200  0.326600  0.708100  1.0
  H  H454  1  0.326600  0.973200  0.208100  1.0
  H  H455  1  0.026800  0.673400  0.291900  1.0
  H  H456  1  0.673400  0.026800  0.791900  1.0
  H  H457  1  0.943400  0.191600  0.749500  1.0
  H  H458  1  0.191600  0.943400  0.249500  1.0
  H  H459  1  0.056600  0.808400  0.250500  1.0
  H  H460  1  0.808400  0.056600  0.750500  1.0
  H  H461  1  0.838200  0.169000  0.819800  1.0
  H  H462  1  0.169000  0.838200  0.319800  1.0
  H  H463  1  0.161800  0.831000  0.180200  1.0
  H  H464  1  0.831000  0.161800  0.680200  1.0
  H  H465  1  0.854900  0.540100  0.778300  1.0
  H  H466  1  0.540100  0.854900  0.278300  1.0
  H  H467  1  0.145100  0.459900  0.221700  1.0
  H  H468  1  0.459900  0.145100  0.721700  1.0
  H  H469  1  0.918600  0.695800  0.645400  1.0
  H  H470  1  0.695800  0.918600  0.145400  1.0
  H  H471  1  0.081400  0.304200  0.354600  1.0
  H  H472  1  0.304200  0.081400  0.854600  1.0
  H  H473  1  0.950500  0.583100  0.606400  1.0
  H  H474  1  0.583100  0.950500  0.106400  1.0
  H  H475  1  0.049500  0.416900  0.393600  1.0
  H  H476  1  0.416900  0.049500  0.893600  1.0
  H  H477  1  0.931900  0.443500  0.649900  1.0
  H  H478  1  0.443500  0.931900  0.149900  1.0
  H  H479  1  0.068100  0.556500  0.350100  1.0
  H  H480  1  0.556500  0.068100  0.850100  1.0
  H  H481  1  0.773700  0.653100  0.796400  1.0
  H  H482  1  0.653100  0.773700  0.296400  1.0
  H  H483  1  0.226300  0.346900  0.203600  1.0
  H  H484  1  0.346900  0.226300  0.703600  1.0
  H  H485  1  0.951700  0.782700  0.693000  1.0
  H  H486  1  0.782700  0.951700  0.193000  1.0
  H  H487  1  0.048300  0.217300  0.307000  1.0
  H  H488  1  0.217300  0.048300  0.807000  1.0
  H  H489  1  0.927200  0.898000  0.733900  1.0
  H  H490  1  0.898000  0.927200  0.233900  1.0
  H  H491  1  0.072800  0.102000  0.266100  1.0
  H  H492  1  0.102000  0.072800  0.766100  1.0
  H  H493  1  0.822800  0.894800  0.804700  1.0
  H  H494  1  0.894800  0.822800  0.304700  1.0
  H  H495  1  0.177200  0.105200  0.195300  1.0
  H  H496  1  0.105200  0.177200  0.695300  1.0
  H  H497  1  0.382700  0.354100  0.053100  1.0
  H  H498  1  0.354100  0.382700  0.553100  1.0
  H  H499  1  0.617300  0.645900  0.946900  1.0
  H  H500  1  0.645900  0.617300  0.446900  1.0
  H  H501  1  0.277100  0.352500  0.119400  1.0
  H  H502  1  0.352500  0.277100  0.619400  1.0
  H  H503  1  0.722900  0.647500  0.880600  1.0
  H  H504  1  0.647500  0.722900  0.380600  1.0
  H  H505  1  0.684900  0.894100  0.842300  1.0
  H  H506  1  0.894100  0.684900  0.342300  1.0
  H  H507  1  0.315100  0.105900  0.157700  1.0
  H  H508  1  0.105900  0.315100  0.657700  1.0
  H  H509  1  0.415800  0.111600  0.087600  1.0
  H  H510  1  0.111600  0.415800  0.587600  1.0
  H  H511  1  0.584200  0.888400  0.912400  1.0
  H  H512  1  0.888400  0.584200  0.412400  1.0
  N  N513  1  0.938700  0.877700  0.572400  1
  N  N514  1  0.877700  0.938700  0.072400  1
  N  N515  1  0.061300  0.122300  0.427600  1
  N  N516  1  0.122300  0.061300  0.927600  1
  N  N517  1  0.501900  0.498100  0.982500  1
  N  N518  1  0.498100  0.501900  0.482500  1
  N  N519  1  0.498100  0.501900  0.017500  1
  N  N520  1  0.501900  0.498100  0.517500  1
  N  N521  1  0.508500  0.933300  0.993300  1
  N  N522  1  0.933300  0.508500  0.493300  1
  N  N523  1  0.491500  0.066700  0.006700  1
  N  N524  1  0.066700  0.491500  0.506700  1
  N  N525  1  0.414600  0.261400  0.955500  1.0
  N  N526  1  0.261400  0.414600  0.455500  1.0
  N  N527  1  0.585400  0.738600  0.044500  1.0
  N  N528  1  0.738600  0.585400  0.544500  1.0
  N  N529  1  0.589600  0.225000  0.046400  1.0
  N  N530  1  0.225000  0.589600  0.546400  1.0
  N  N531  1  0.410400  0.775000  0.953600  1.0
  N  N532  1  0.775000  0.410400  0.453600  1.0
  N  N533  1  0.594900  0.254700  0.941100  1.0
  N  N534  1  0.254700  0.594900  0.441100  1.0
  N  N535  1  0.405100  0.745300  0.058900  1.0
  N  N536  1  0.745300  0.405100  0.558900  1.0
  N  N537  1  0.408600  0.232600  0.062900  1.0
  N  N538  1  0.232600  0.408600  0.562900  1.0
  N  N539  1  0.591400  0.767400  0.937100  1.0
  N  N540  1  0.767400  0.591400  0.437100  1.0
  O  O541  1  0.942000  0.922400  0.604500  1
  O  O542  1  0.922400  0.942000  0.104500  1
  O  O543  1  0.058000  0.077600  0.395500  1
  O  O544  1  0.077600  0.058000  0.895500  1
  O  O545  1  0.899000  0.899000  0.538100  1
  O  O546  1  0.899000  0.899000  0.038100  1
  O  O547  1  0.101000  0.101000  0.461900  1
  O  O548  1  0.101000  0.101000  0.961900  1
  O  O549  1  0.969400  0.807000  0.578000  1
  O  O550  1  0.807000  0.969400  0.078000  1
  O  O551  1  0.030600  0.193000  0.422000  1
  O  O552  1  0.193000  0.030600  0.922000  1
  O  O553  1  0.889200  0.624200  0.920400  1
  O  O554  1  0.624200  0.889200  0.420400  1
  O  O555  1  0.110800  0.375800  0.079600  1
  O  O556  1  0.375800  0.110800  0.579600  1
  O  O557  1  0.734400  0.468600  0.093800  1
  O  O558  1  0.468600  0.734400  0.593800  1
  O  O559  1  0.265600  0.531400  0.906200  1
  O  O560  1  0.531400  0.265600  0.406200  1
  O  O561  1  0.833900  0.307700  0.981200  1
  O  O562  1  0.307700  0.833900  0.481200  1
  O  O563  1  0.166100  0.692300  0.018800  1
  O  O564  1  0.692300  0.166100  0.518800  1
  O  O565  1  0.777700  0.012500  0.863200  1
  O  O566  1  0.012500  0.777700  0.363200  1
  O  O567  1  0.222300  0.987500  0.136800  1
  O  O568  1  0.987500  0.222300  0.636800  1
  O  O569  1  0.691000  0.531200  0.833000  1
  O  O570  1  0.531200  0.691000  0.333000  1
  O  O571  1  0.309000  0.468800  0.167000  1
  O  O572  1  0.468800  0.309000  0.667000  1
  O  O573  1  0.508400  0.516600  0.936400  1
  O  O574  1  0.516600  0.508400  0.436400  1
  O  O575  1  0.491600  0.483400  0.063600  1
  O  O576  1  0.483400  0.491600  0.563600  1
  O  O577  1  0.497700  0.434100  0.998500  1
  O  O578  1  0.434100  0.497700  0.498500  1
  O  O579  1  0.502300  0.565900  0.001500  1
  O  O580  1  0.565900  0.502300  0.501500  1
  O  O581  1  0.581000  0.985000  0.993800  1
  O  O582  1  0.985000  0.581000  0.493800  1
  O  O583  1  0.419000  0.015000  0.006200  1
  O  O584  1  0.015000  0.419000  0.506200  1
  O  O585  1  0.500000  0.000000  0.000000  1
  O  O586  1  0.000000  0.500000  0.500000  1
  O  O587  1  0.520500  0.995100  0.954600  1
  O  O588  1  0.995100  0.520500  0.454600  1
  O  O589  1  0.479500  0.004900  0.045400  1
  O  O590  1  0.004900  0.479500  0.545400  1
  O  O591  1  0.475600  0.564000  0.724600  1
  O  O592  1  0.564000  0.475600  0.224600  1
  O  O593  1  0.524400  0.436000  0.275400  1
  O  O594  1  0.436000  0.524400  0.775400  1
  Pd  Pd595  1  0.500970  0.239230  0.001750  1.0
  Pd  Pd596  1  0.239230  0.500970  0.501750  1.0
  Pd  Pd597  1  0.499030  0.760770  0.998250  1.0
  Pd  Pd598  1  0.760770  0.499030  0.498250  1.0
  S  S599  1  0.775120  0.520780  0.045800  1
  S  S600  1  0.520780  0.775120  0.545800  1
  S  S601  1  0.224880  0.479220  0.954200  1
  S  S602  1  0.479220  0.224880  0.454200  1
  S  S603  1  0.937200  0.264800  0.973400  1
  S  S604  1  0.264800  0.937200  0.473400  1
  S  S605  1  0.062800  0.735200  0.026600  1
  S  S606  1  0.735200  0.062800  0.526600  1
  S  S607  1  0.794500  0.961500  0.913780  1
  S  S608  1  0.961500  0.794500  0.413780  1
  S  S609  1  0.205500  0.038500  0.086220  1
  S  S610  1  0.038500  0.205500  0.586220  1
  S  S611  1  0.624400  0.532600  0.797700  1
  S  S612  1  0.532600  0.624400  0.297700  1
  S  S613  1  0.375600  0.467400  0.202300  1
  S  S614  1  0.467400  0.375600  0.702300  1
  S  S615  1  0.428600  0.647800  0.726500  1
  S  S616  1  0.647800  0.428600  0.226500  1
  S  S617  1  0.571400  0.352200  0.273500  1
  S  S618  1  0.352200  0.571400  0.773500  1
  S  S619  1  0.868030  0.232970  0.959360  1
  S  S620  1  0.232970  0.868030  0.459360  1
  S  S621  1  0.131970  0.767030  0.040640  1
  S  S622  1  0.767030  0.131970  0.540640  1
  S  S623  1  0.824700  0.026700  0.906100  1
  S  S624  1  0.026700  0.824700  0.406100  1
  S  S625  1  0.175300  0.973300  0.093900  1
  S  S626  1  0.973300  0.175300  0.593900  1
  S  S627  1  0.563900  0.470100  0.817000  1
  S  S628  1  0.470100  0.563900  0.317000  1
  S  S629  1  0.436100  0.529900  0.183000  1
  S  S630  1  0.529900  0.436100  0.683000  1
  S  S631  1  0.613500  0.530500  0.824700  1
  S  S632  1  0.530500  0.613500  0.324700  1
  S  S633  1  0.386500  0.469500  0.175300  1
  S  S634  1  0.469500  0.386500  0.675300  1
