# generated using pymatgen
data_P2H25PtC13S2N3(O4F3)2
_symmetry_space_group_name_H-M   'P 1'
_cell_length_a   15.58400000
_cell_length_b   23.54200000
_cell_length_c   24.02100000
_cell_angle_alpha   90.00000000
_cell_angle_beta   90.00000000
_cell_angle_gamma   105.14600000
_symmetry_Int_Tables_number   1
_chemical_formula_structural   P2H25PtC13S2N3(O4F3)2
_chemical_formula_sum   'P24 H300 Pt12 C156 S24 N36 O96 F72'
_cell_volume   8506.66079282
_cell_formula_units_Z   12
loop_
 _symmetry_equiv_pos_site_id
 _symmetry_equiv_pos_as_xyz
  1  'x, y, z'
loop_
 _atom_site_type_symbol
 _atom_site_label
 _atom_site_symmetry_multiplicity
 _atom_site_fract_x
 _atom_site_fract_y
 _atom_site_fract_z
 _atom_site_occupancy
  P  P1  1  0.712500  0.845100  0.944100  1
  P  P2  1  0.712500  0.345100  0.555900  1
  P  P3  1  0.287500  0.154900  0.055900  1
  P  P4  1  0.287500  0.654900  0.444100  1
  P  P5  1  0.611000  0.680300  0.644800  1
  P  P6  1  0.611000  0.180300  0.855200  1
  P  P7  1  0.389000  0.319700  0.355200  1
  P  P8  1  0.389000  0.819700  0.144800  1
  P  P9  1  0.674100  0.760600  0.529900  1
  P  P10  1  0.674100  0.260600  0.970100  1
  P  P11  1  0.325900  0.239400  0.470100  1
  P  P12  1  0.325900  0.739400  0.029900  1
  P  P13  1  0.895400  0.103600  0.547100  1
  P  P14  1  0.895400  0.603600  0.952900  1
  P  P15  1  0.104600  0.896400  0.452900  1
  P  P16  1  0.104600  0.396400  0.047100  1
  P  P17  1  0.964500  0.162600  0.669000  1
  P  P18  1  0.964500  0.662600  0.831000  1
  P  P19  1  0.035500  0.837400  0.331000  1
  P  P20  1  0.035500  0.337400  0.169000  1
  P  P21  1  0.828300  0.984200  0.943400  1
  P  P22  1  0.828300  0.484200  0.556600  1
  P  P23  1  0.171700  0.015800  0.056600  1
  P  P24  1  0.171700  0.515800  0.443400  1
  H  H25  1  0.845800  0.833300  0.803700  1
  H  H26  1  0.845800  0.333300  0.696300  1
  H  H27  1  0.154200  0.166700  0.196300  1
  H  H28  1  0.154200  0.666700  0.303700  1
  H  H29  1  0.812800  0.785600  0.715600  1
  H  H30  1  0.812800  0.285600  0.784400  1
  H  H31  1  0.187200  0.214400  0.284400  1
  H  H32  1  0.187200  0.714400  0.215600  1
  H  H33  1  0.579500  0.819300  0.717600  1
  H  H34  1  0.579500  0.319300  0.782400  1
  H  H35  1  0.420500  0.180700  0.282400  1
  H  H36  1  0.420500  0.680700  0.217600  1
  H  H37  1  0.607600  0.863700  0.802200  1
  H  H38  1  0.607600  0.363700  0.697800  1
  H  H39  1  0.392400  0.136300  0.197800  1
  H  H40  1  0.392400  0.636300  0.302200  1
  H  H41  1  0.631600  0.893500  0.614700  1
  H  H42  1  0.631600  0.393500  0.885300  1
  H  H43  1  0.368400  0.106500  0.385300  1
  H  H44  1  0.368400  0.606500  0.114700  1
  H  H45  1  0.702500  0.993600  0.618200  1
  H  H46  1  0.702500  0.493600  0.881800  1
  H  H47  1  0.297500  0.006400  0.381800  1
  H  H48  1  0.297500  0.506400  0.118200  1
  H  H49  1  0.934600  0.960000  0.613600  1
  H  H50  1  0.934600  0.460000  0.886400  1
  H  H51  1  0.065400  0.040000  0.386400  1
  H  H52  1  0.065400  0.540000  0.113600  1
  H  H53  1  0.866400  0.858200  0.604600  1
  H  H54  1  0.866400  0.358200  0.895400  1
  H  H55  1  0.133600  0.141800  0.395400  1
  H  H56  1  0.133600  0.641800  0.104600  1
  H  H57  1  0.750700  0.057300  0.729600  1
  H  H58  1  0.750700  0.557300  0.770400  1
  H  H59  1  0.249300  0.942700  0.270400  1
  H  H60  1  0.249300  0.442700  0.229600  1
  H  H61  1  0.712900  0.003100  0.809800  1
  H  H62  1  0.712900  0.503100  0.690200  1
  H  H63  1  0.287100  0.996900  0.190200  1
  H  H64  1  0.287100  0.496900  0.309800  1
  H  H65  1  0.932500  0.955800  0.804800  1
  H  H66  1  0.932500  0.455800  0.695200  1
  H  H67  1  0.067500  0.044200  0.195200  1
  H  H68  1  0.067500  0.544200  0.304800  1
  H  H69  1  0.980100  0.012600  0.725300  1
  H  H70  1  0.980100  0.512600  0.774700  1
  H  H71  1  0.019900  0.987400  0.274700  1
  H  H72  1  0.019900  0.487400  0.225300  1
  H  H73  1  0.696300  0.988000  0.986900  1
  H  H74  1  0.696300  0.488000  0.513100  1
  H  H75  1  0.303700  0.012000  0.013100  1
  H  H76  1  0.303700  0.512000  0.486900  1
  H  H77  1  0.729300  0.043100  0.946100  1
  H  H78  1  0.729300  0.543100  0.553900  1
  H  H79  1  0.270700  0.956900  0.053900  1
  H  H80  1  0.270700  0.456900  0.446100  1
  H  H81  1  0.775300  0.043000  0.005600  1
  H  H82  1  0.775300  0.543000  0.494400  1
  H  H83  1  0.224700  0.957000  0.994400  1
  H  H84  1  0.224700  0.457000  0.505600  1
  H  H85  1  0.952800  0.025400  0.897900  1
  H  H86  1  0.952800  0.525400  0.602100  1
  H  H87  1  0.047200  0.974600  0.102100  1
  H  H88  1  0.047200  0.474600  0.397900  1
  H  H89  1  0.937100  0.066400  0.948000  1
  H  H90  1  0.937100  0.566400  0.552000  1
  H  H91  1  0.062900  0.933600  0.052000  1
  H  H92  1  0.062900  0.433600  0.448000  1
  H  H93  1  0.881900  0.063400  0.891500  1
  H  H94  1  0.881900  0.563400  0.608500  1
  H  H95  1  0.118100  0.936600  0.108500  1
  H  H96  1  0.118100  0.436600  0.391500  1
  H  H97  1  0.914600  0.945400  0.997800  1
  H  H98  1  0.914600  0.445400  0.502200  1
  H  H99  1  0.085400  0.054600  0.002200  1
  H  H100  1  0.085400  0.554600  0.497800  1
  H  H101  1  0.818000  0.936700  0.024600  1
  H  H102  1  0.818000  0.436700  0.475400  1
  H  H103  1  0.182000  0.063300  0.975400  1
  H  H104  1  0.182000  0.563300  0.524600  1
  H  H105  1  0.889200  0.999400  0.028100  1
  H  H106  1  0.889200  0.499400  0.471900  1
  H  H107  1  0.110800  0.000600  0.971900  1
  H  H108  1  0.110800  0.500600  0.528100  1
  H  H109  1  0.617000  0.890600  0.989100  1
  H  H110  1  0.617000  0.390600  0.510900  1
  H  H111  1  0.383000  0.109400  0.010900  1
  H  H112  1  0.383000  0.609400  0.489100  1
  H  H113  1  0.703600  0.894700  0.026300  1
  H  H114  1  0.703600  0.394700  0.473700  1
  H  H115  1  0.296400  0.105300  0.973700  1
  H  H116  1  0.296400  0.605300  0.526300  1
  H  H117  1  0.626400  0.834600  0.023900  1
  H  H118  1  0.626400  0.334600  0.476100  1
  H  H119  1  0.373600  0.165400  0.976100  1
  H  H120  1  0.373600  0.665400  0.523900  1
  H  H121  1  0.840300  0.835000  0.990700  1
  H  H122  1  0.840300  0.335000  0.509300  1
  H  H123  1  0.159700  0.165000  0.009300  1
  H  H124  1  0.159700  0.665000  0.490700  1
  H  H125  1  0.810700  0.784500  0.944700  1
  H  H126  1  0.810700  0.284500  0.555300  1
  H  H127  1  0.189300  0.215500  0.055300  1
  H  H128  1  0.189300  0.715500  0.444700  1
  H  H129  1  0.758800  0.778900  0.002700  1
  H  H130  1  0.758800  0.278900  0.497300  1
  H  H131  1  0.241200  0.221100  0.997300  1
  H  H132  1  0.241200  0.721100  0.502700  1
  H  H133  1  0.577800  0.805700  0.900700  1
  H  H134  1  0.577800  0.305700  0.599300  1
  H  H135  1  0.422200  0.194300  0.099300  1
  H  H136  1  0.422200  0.694300  0.400700  1
  H  H137  1  0.598200  0.759800  0.944600  1
  H  H138  1  0.598200  0.259800  0.555400  1
  H  H139  1  0.401800  0.240200  0.055400  1
  H  H140  1  0.401800  0.740200  0.444600  1
  H  H141  1  0.646900  0.768300  0.885400  1
  H  H142  1  0.646900  0.268300  0.614600  1
  H  H143  1  0.353100  0.231700  0.114600  1
  H  H144  1  0.353100  0.731700  0.385400  1
  H  H145  1  0.481500  0.669000  0.592600  1
  H  H146  1  0.481500  0.169000  0.907400  1
  H  H147  1  0.518500  0.331000  0.407400  1
  H  H148  1  0.518500  0.831000  0.092600  1
  H  H149  1  0.476000  0.611000  0.628700  1
  H  H150  1  0.476000  0.111000  0.871300  1
  H  H151  1  0.524000  0.389000  0.371300  1
  H  H152  1  0.524000  0.889000  0.128700  1
  H  H153  1  0.533800  0.622400  0.572800  1
  H  H154  1  0.533800  0.122400  0.927200  1
  H  H155  1  0.466200  0.377600  0.427200  1
  H  H156  1  0.466200  0.877600  0.072800  1
  H  H157  1  0.725900  0.651600  0.675100  1
  H  H158  1  0.725900  0.151600  0.824900  1
  H  H159  1  0.274100  0.348400  0.324900  1
  H  H160  1  0.274100  0.848400  0.175100  1
  H  H161  1  0.689500  0.620300  0.617500  1
  H  H162  1  0.689500  0.120300  0.882500  1
  H  H163  1  0.310500  0.379700  0.382500  1
  H  H164  1  0.310500  0.879700  0.117500  1
  H  H165  1  0.637800  0.598300  0.674300  1
  H  H166  1  0.637800  0.098300  0.825700  1
  H  H167  1  0.362200  0.401700  0.325700  1
  H  H168  1  0.362200  0.901700  0.174300  1
  H  H169  1  0.584400  0.698800  0.734300  1
  H  H170  1  0.584400  0.198800  0.765700  1
  H  H171  1  0.415600  0.301200  0.265700  1
  H  H172  1  0.415600  0.801200  0.234300  1
  H  H173  1  0.516600  0.639200  0.713400  1
  H  H174  1  0.516600  0.139200  0.786600  1
  H  H175  1  0.483400  0.360800  0.286600  1
  H  H176  1  0.483400  0.860800  0.213400  1
  H  H177  1  0.501900  0.701500  0.695600  1
  H  H178  1  0.501900  0.201500  0.804400  1
  H  H179  1  0.498100  0.298500  0.304400  1
  H  H180  1  0.498100  0.798500  0.195600  1
  H  H181  1  0.771200  0.699000  0.537200  1
  H  H182  1  0.771200  0.199000  0.962800  1
  H  H183  1  0.228800  0.301000  0.462800  1
  H  H184  1  0.228800  0.801000  0.037200  1
  H  H185  1  0.706900  0.679800  0.484700  1
  H  H186  1  0.706900  0.179800  0.015300  1
  H  H187  1  0.293100  0.320200  0.515300  1
  H  H188  1  0.293100  0.820200  0.984700  1
  H  H189  1  0.670800  0.661200  0.546100  1
  H  H190  1  0.670800  0.161200  0.953900  1
  H  H191  1  0.329200  0.338800  0.453900  1
  H  H192  1  0.329200  0.838800  0.046100  1
  H  H193  1  0.533600  0.758500  0.518900  1
  H  H194  1  0.533600  0.258500  0.981100  1
  H  H195  1  0.466400  0.241500  0.481100  1
  H  H196  1  0.466400  0.741500  0.018900  1
  H  H197  1  0.553900  0.699100  0.497100  1
  H  H198  1  0.553900  0.199100  0.002900  1
  H  H199  1  0.446100  0.300900  0.502900  1
  H  H200  1  0.446100  0.800900  0.997100  1
  H  H201  1  0.582100  0.757700  0.460300  1
  H  H202  1  0.582100  0.257700  0.039700  1
  H  H203  1  0.417900  0.242300  0.539700  1
  H  H204  1  0.417900  0.742300  0.960300  1
  H  H205  1  0.814600  0.808200  0.512200  1
  H  H206  1  0.814600  0.308200  0.987800  1
  H  H207  1  0.185400  0.191800  0.487800  1
  H  H208  1  0.185400  0.691800  0.012200  1
  H  H209  1  0.747700  0.831300  0.473100  1
  H  H210  1  0.747700  0.331300  0.026900  1
  H  H211  1  0.252300  0.168700  0.526900  1
  H  H212  1  0.252300  0.668700  0.973100  1
  H  H213  1  0.769700  0.770000  0.459700  1
  H  H214  1  0.769700  0.270000  0.040300  1
  H  H215  1  0.230300  0.230000  0.540300  1
  H  H216  1  0.230300  0.730000  0.959700  1
  H  H217  1  0.800800  0.166100  0.553700  1
  H  H218  1  0.800800  0.666100  0.946300  1
  H  H219  1  0.199200  0.833900  0.446300  1
  H  H220  1  0.199200  0.333900  0.053700  1
  H  H221  1  0.858100  0.179700  0.497700  1
  H  H222  1  0.858100  0.679700  0.002300  1
  H  H223  1  0.141900  0.820300  0.502300  1
  H  H224  1  0.141900  0.320300  0.997700  1
  H  H225  1  0.902300  0.203900  0.556100  1
  H  H226  1  0.902300  0.703900  0.943900  1
  H  H227  1  0.097700  0.796100  0.443900  1
  H  H228  1  0.097700  0.296100  0.056100  1
  H  H229  1  0.039800  0.137900  0.537100  1
  H  H230  1  0.039800  0.637900  0.962900  1
  H  H231  1  0.960200  0.862100  0.462900  1
  H  H232  1  0.960200  0.362100  0.037100  1
  H  H233  1  0.988900  0.138400  0.479300  1
  H  H234  1  0.988900  0.638400  0.020700  1
  H  H235  1  0.011100  0.861600  0.520700  1
  H  H236  1  0.011100  0.361600  0.979300  1
  H  H237  1  0.003000  0.078000  0.503000  1
  H  H238  1  0.003000  0.578000  0.997000  1
  H  H239  1  0.997000  0.922000  0.497000  1
  H  H240  1  0.997000  0.422000  0.003000  1
  H  H241  1  0.754000  0.057700  0.527900  1
  H  H242  1  0.754000  0.557700  0.972100  1
  H  H243  1  0.246000  0.942300  0.472100  1
  H  H244  1  0.246000  0.442300  0.027900  1
  H  H245  1  0.820300  0.024200  0.500200  1
  H  H246  1  0.820300  0.524200  0.999800  1
  H  H247  1  0.179700  0.975800  0.499800  1
  H  H248  1  0.179700  0.475800  0.000200  1
  H  H249  1  0.807200  0.083100  0.472500  1
  H  H250  1  0.807200  0.583100  0.027500  1
  H  H251  1  0.192800  0.916900  0.527500  1
  H  H252  1  0.192800  0.416900  0.972500  1
  H  H253  1  0.864300  0.217100  0.653300  1
  H  H254  1  0.864300  0.717100  0.846700  1
  H  H255  1  0.135700  0.782900  0.346700  1
  H  H256  1  0.135700  0.282900  0.153300  1
  H  H257  1  0.934700  0.247700  0.699900  1
  H  H258  1  0.934700  0.747700  0.800100  1
  H  H259  1  0.065300  0.752300  0.300100  1
  H  H260  1  0.065300  0.252300  0.199900  1
  H  H261  1  0.854700  0.192000  0.715500  1
  H  H262  1  0.854700  0.692000  0.784500  1
  H  H263  1  0.145300  0.808000  0.284500  1
  H  H264  1  0.145300  0.308000  0.215500  1
  H  H265  1  0.096100  0.178300  0.615800  1
  H  H266  1  0.096100  0.678300  0.884200  1
  H  H267  1  0.903900  0.821700  0.384200  1
  H  H268  1  0.903900  0.321700  0.115800  1
  H  H269  1  0.098700  0.235200  0.652800  1
  H  H270  1  0.098700  0.735200  0.847200  1
  H  H271  1  0.901300  0.764800  0.347200  1
  H  H272  1  0.901300  0.264800  0.152800  1
  H  H273  1  0.040900  0.223500  0.596900  1
  H  H274  1  0.040900  0.723500  0.903100  1
  H  H275  1  0.959100  0.776500  0.403100  1
  H  H276  1  0.959100  0.276500  0.096900  1
  H  H277  1  0.066800  0.129500  0.730000  1
  H  H278  1  0.066800  0.629500  0.770000  1
  H  H279  1  0.933200  0.870500  0.270000  1
  H  H280  1  0.933200  0.370500  0.230000  1
  H  H281  1  0.981800  0.134400  0.765200  1
  H  H282  1  0.981800  0.634400  0.734800  1
  H  H283  1  0.018200  0.865600  0.234800  1
  H  H284  1  0.018200  0.365600  0.265200  1
  H  H285  1  0.058400  0.192500  0.750600  1
  H  H286  1  0.058400  0.692500  0.749400  1
  H  H287  1  0.941600  0.807500  0.249400  1
  H  H288  1  0.941600  0.307500  0.250600  1
  H  H289  1  0.670600  0.698800  0.251300  1
  H  H290  1  0.670600  0.198800  0.248700  1
  H  H291  1  0.329400  0.301200  0.748700  1
  H  H292  1  0.329400  0.801200  0.751300  1
  H  H293  1  0.714100  0.669900  0.300600  1
  H  H294  1  0.714100  0.169900  0.199400  1
  H  H295  1  0.285900  0.330100  0.699400  1
  H  H296  1  0.285900  0.830100  0.800600  1
  H  H297  1  0.763300  0.734100  0.278000  1
  H  H298  1  0.763300  0.234100  0.222000  1
  H  H299  1  0.236700  0.265900  0.722000  1
  H  H300  1  0.236700  0.765900  0.778000  1
  H  H301  1  0.086600  0.877700  0.618400  1
  H  H302  1  0.086600  0.377700  0.881600  1
  H  H303  1  0.913400  0.122300  0.381600  1
  H  H304  1  0.913400  0.622300  0.118400  1
  H  H305  1  0.020200  0.919200  0.621700  1
  H  H306  1  0.020200  0.419200  0.878300  1
  H  H307  1  0.979800  0.080800  0.378300  1
  H  H308  1  0.979800  0.580800  0.121700  1
  H  H309  1  0.981700  0.849200  0.623400  1
  H  H310  1  0.981700  0.349200  0.876600  1
  H  H311  1  0.018300  0.150800  0.376600  1
  H  H312  1  0.018300  0.650800  0.123400  1
  H  H313  1  0.492000  0.964900  0.620300  1
  H  H314  1  0.492000  0.464900  0.879700  1
  H  H315  1  0.508000  0.035100  0.379700  1
  H  H316  1  0.508000  0.535100  0.120300  1
  H  H317  1  0.557700  0.923100  0.625500  1
  H  H318  1  0.557700  0.423100  0.874500  1
  H  H319  1  0.442300  0.076900  0.374500  1
  H  H320  1  0.442300  0.576900  0.125500  1
  H  H321  1  0.596000  0.992900  0.630200  1
  H  H322  1  0.596000  0.492900  0.869800  1
  H  H323  1  0.404000  0.007100  0.369800  1
  H  H324  1  0.404000  0.507100  0.130200  1
  Pt  Pt325  1  0.773160  0.913450  0.879490  1
  Pt  Pt326  1  0.773160  0.413450  0.620510  1
  Pt  Pt327  1  0.226840  0.086550  0.120510  1
  Pt  Pt328  1  0.226840  0.586550  0.379490  1
  Pt  Pt329  1  0.679300  0.775100  0.622740  1
  Pt  Pt330  1  0.679300  0.275100  0.877260  1
  Pt  Pt331  1  0.320700  0.224900  0.377260  1
  Pt  Pt332  1  0.320700  0.724900  0.122740  1
  Pt  Pt333  1  0.890160  0.073610  0.636100  1
  Pt  Pt334  1  0.890160  0.573610  0.863900  1
  Pt  Pt335  1  0.109840  0.926390  0.363900  1
  Pt  Pt336  1  0.109840  0.426390  0.136100  1
  C  C337  1  0.790000  0.831200  0.786400  1
  C  C338  1  0.790000  0.331200  0.713600  1
  C  C339  1  0.210000  0.168800  0.213600  1
  C  C340  1  0.210000  0.668800  0.286400  1
  C  C341  1  0.770000  0.802200  0.732900  1
  C  C342  1  0.770000  0.302200  0.767100  1
  C  C343  1  0.230000  0.197800  0.267100  1
  C  C344  1  0.230000  0.697800  0.232900  1
  C  C345  1  0.635000  0.821900  0.734700  1
  C  C346  1  0.635000  0.321900  0.765300  1
  C  C347  1  0.365000  0.178100  0.265300  1
  C  C348  1  0.365000  0.678100  0.234700  1
  C  C349  1  0.652000  0.848700  0.784900  1
  C  C350  1  0.652000  0.348700  0.715100  1
  C  C351  1  0.348000  0.151300  0.215100  1
  C  C352  1  0.348000  0.651300  0.284900  1
  C  C353  1  0.695000  0.906300  0.613800  1
  C  C354  1  0.695000  0.406300  0.886200  1
  C  C355  1  0.305000  0.093700  0.386200  1
  C  C356  1  0.305000  0.593700  0.113800  1
  C  C357  1  0.737000  0.966100  0.615900  1
  C  C358  1  0.737000  0.466100  0.884100  1
  C  C359  1  0.263000  0.033900  0.384100  1
  C  C360  1  0.263000  0.533900  0.115900  1
  C  C361  1  0.872000  0.946400  0.612500  1
  C  C362  1  0.872000  0.446400  0.887500  1
  C  C363  1  0.128000  0.053600  0.387500  1
  C  C364  1  0.128000  0.553600  0.112500  1
  C  C365  1  0.831000  0.885300  0.608500  1
  C  C366  1  0.831000  0.385300  0.891500  1
  C  C367  1  0.169000  0.114700  0.391500  1
  C  C368  1  0.169000  0.614700  0.108500  1
  C  C369  1  0.790000  0.036500  0.744400  1
  C  C370  1  0.790000  0.536500  0.755600  1
  C  C371  1  0.210000  0.963500  0.255600  1
  C  C372  1  0.210000  0.463500  0.244400  1
  C  C373  1  0.768000  0.003800  0.792300  1
  C  C374  1  0.768000  0.503800  0.707700  1
  C  C375  1  0.232000  0.996200  0.207700  1
  C  C376  1  0.232000  0.496200  0.292300  1
  C  C377  1  0.895000  0.977300  0.789200  1
  C  C378  1  0.895000  0.477300  0.710800  1
  C  C379  1  0.105000  0.022700  0.210800  1
  C  C380  1  0.105000  0.522700  0.289200  1
  C  C381  1  0.923000  0.010500  0.741100  1
  C  C382  1  0.923000  0.510500  0.758900  1
  C  C383  1  0.077000  0.989500  0.258900  1
  C  C384  1  0.077000  0.489500  0.241100  1
  C  C385  1  0.748000  0.018500  0.974000  1
  C  C386  1  0.748000  0.518500  0.526000  1
  C  C387  1  0.252000  0.981500  0.026000  1
  C  C388  1  0.252000  0.481500  0.474000  1
  C  C389  1  0.908000  0.040800  0.917500  1
  C  C390  1  0.908000  0.540800  0.582500  1
  C  C391  1  0.092000  0.959200  0.082500  1
  C  C392  1  0.092000  0.459200  0.417500  1
  C  C393  1  0.867000  0.964300  0.005000  1
  C  C394  1  0.867000  0.464300  0.495000  1
  C  C395  1  0.133000  0.035700  0.995000  1
  C  C396  1  0.133000  0.535700  0.505000  1
  C  C397  1  0.659000  0.869000  0.002500  1
  C  C398  1  0.659000  0.369000  0.497500  1
  C  C399  1  0.341000  0.131000  0.997500  1
  C  C400  1  0.341000  0.631000  0.502500  1
  C  C401  1  0.790000  0.806000  0.974000  1
  C  C402  1  0.790000  0.306000  0.526000  1
  C  C403  1  0.210000  0.194000  0.026000  1
  C  C404  1  0.210000  0.694000  0.474000  1
  C  C405  1  0.624000  0.788300  0.915500  1
  C  C406  1  0.624000  0.288300  0.584500  1
  C  C407  1  0.376000  0.211700  0.084500  1
  C  C408  1  0.376000  0.711700  0.415500  1
  C  C409  1  0.514000  0.641200  0.605000  1
  C  C410  1  0.514000  0.141200  0.895000  1
  C  C411  1  0.486000  0.358800  0.395000  1
  C  C412  1  0.486000  0.858800  0.105000  1
  C  C413  1  0.672000  0.633000  0.654000  1
  C  C414  1  0.672000  0.133000  0.846000  1
  C  C415  1  0.328000  0.367000  0.346000  1
  C  C416  1  0.328000  0.867000  0.154000  1
  C  C417  1  0.547000  0.680000  0.703400  1
  C  C418  1  0.547000  0.180000  0.796600  1
  C  C419  1  0.453000  0.320000  0.296600  1
  C  C420  1  0.453000  0.820000  0.203400  1
  C  C421  1  0.710000  0.692100  0.524000  1
  C  C422  1  0.710000  0.192100  0.976000  1
  C  C423  1  0.290000  0.307900  0.476000  1
  C  C424  1  0.290000  0.807900  0.024000  1
  C  C425  1  0.576000  0.742000  0.498300  1
  C  C426  1  0.576000  0.242000  0.001700  1
  C  C427  1  0.424000  0.258000  0.501700  1
  C  C428  1  0.424000  0.758000  0.998300  1
  C  C429  1  0.761000  0.796000  0.489000  1
  C  C430  1  0.761000  0.296000  0.011000  1
  C  C431  1  0.239000  0.204000  0.511000  1
  C  C432  1  0.239000  0.704000  0.989000  1
  C  C433  1  0.860000  0.171100  0.537600  1
  C  C434  1  0.860000  0.671100  0.962400  1
  C  C435  1  0.140000  0.828900  0.462400  1
  C  C436  1  0.140000  0.328900  0.037600  1
  C  C437  1  0.992000  0.116000  0.513100  1
  C  C438  1  0.992000  0.616000  0.986900  1
  C  C439  1  0.008000  0.884000  0.486900  1
  C  C440  1  0.008000  0.384000  0.013100  1
  C  C441  1  0.810000  0.062800  0.507700  1
  C  C442  1  0.810000  0.562800  0.992300  1
  C  C443  1  0.190000  0.937200  0.492300  1
  C  C444  1  0.190000  0.437200  0.007700  1
  C  C445  1  0.897000  0.210200  0.686000  1
  C  C446  1  0.897000  0.710200  0.814000  1
  C  C447  1  0.103000  0.789800  0.314000  1
  C  C448  1  0.103000  0.289800  0.186000  1
  C  C449  1  0.061000  0.204800  0.629000  1
  C  C450  1  0.061000  0.704800  0.871000  1
  C  C451  1  0.939000  0.795200  0.371000  1
  C  C452  1  0.939000  0.295200  0.129000  1
  C  C453  1  0.025000  0.153700  0.737000  1
  C  C454  1  0.025000  0.653700  0.763000  1
  C  C455  1  0.975000  0.846300  0.263000  1
  C  C456  1  0.975000  0.346300  0.237000  1
  C  C457  1  0.538000  0.118000  0.636000  1
  C  C458  1  0.538000  0.618000  0.864000  1
  C  C459  1  0.462000  0.882000  0.364000  1
  C  C460  1  0.462000  0.382000  0.136000  1
  C  C461  1  0.756000  0.970000  0.368200  1
  C  C462  1  0.756000  0.470000  0.131800  1
  C  C463  1  0.244000  0.030000  0.631800  1
  C  C464  1  0.244000  0.530000  0.868200  1
  C  C465  1  0.423000  0.964900  0.893600  1
  C  C466  1  0.423000  0.464900  0.606400  1
  C  C467  1  0.577000  0.035100  0.106400  1
  C  C468  1  0.577000  0.535100  0.393600  1
  C  C469  1  0.676000  0.186100  0.387000  1
  C  C470  1  0.676000  0.686100  0.113000  1
  C  C471  1  0.324000  0.813900  0.613000  1
  C  C472  1  0.324000  0.313900  0.887000  1
  C  C473  1  0.869000  0.623500  0.388700  1
  C  C474  1  0.869000  0.123500  0.111300  1
  C  C475  1  0.131000  0.376500  0.611300  1
  C  C476  1  0.131000  0.876500  0.888700  1
  C  C477  1  0.026000  0.725100  0.603900  1
  C  C478  1  0.026000  0.225100  0.896100  1
  C  C479  1  0.974000  0.274900  0.396100  1
  C  C480  1  0.974000  0.774900  0.103900  1
  C  C481  1  0.705000  0.707000  0.286000  1
  C  C482  1  0.705000  0.207000  0.214000  1
  C  C483  1  0.295000  0.293000  0.714000  1
  C  C484  1  0.295000  0.793000  0.786000  1
  C  C485  1  0.031000  0.882300  0.634800  1
  C  C486  1  0.031000  0.382300  0.865200  1
  C  C487  1  0.969000  0.117700  0.365200  1
  C  C488  1  0.969000  0.617700  0.134800  1
  C  C489  1  0.545000  0.959000  0.638800  1
  C  C490  1  0.545000  0.459000  0.861200  1
  C  C491  1  0.455000  0.041000  0.361200  1
  C  C492  1  0.455000  0.541000  0.138800  1
  S  S493  1  0.653400  0.132800  0.645800  1
  S  S494  1  0.653400  0.632800  0.854200  1
  S  S495  1  0.346600  0.867200  0.354200  1
  S  S496  1  0.346600  0.367200  0.145800  1
  S  S497  1  0.861100  0.955300  0.374800  1
  S  S498  1  0.861100  0.455300  0.125200  1
  S  S499  1  0.138900  0.044700  0.625200  1
  S  S500  1  0.138900  0.544700  0.874800  1
  S  S501  1  0.519400  0.940300  0.882000  1
  S  S502  1  0.519400  0.440300  0.618000  1
  S  S503  1  0.480600  0.059700  0.118000  1
  S  S504  1  0.480600  0.559700  0.382000  1
  S  S505  1  0.573000  0.203800  0.384000  1
  S  S506  1  0.573000  0.703800  0.116000  1
  S  S507  1  0.427000  0.796200  0.616000  1
  S  S508  1  0.427000  0.296200  0.884000  1
  S  S509  1  0.979800  0.619500  0.393300  1
  S  S510  1  0.979800  0.119500  0.106700  1
  S  S511  1  0.020200  0.380500  0.606700  1
  S  S512  1  0.020200  0.880500  0.893300  1
  S  S513  1  0.919200  0.724100  0.630100  1
  S  S514  1  0.919200  0.224100  0.869900  1
  S  S515  1  0.080800  0.275900  0.369900  1
  S  S516  1  0.080800  0.775900  0.130100  1
  N  N517  1  0.731900  0.854700  0.811100  1
  N  N518  1  0.731900  0.354700  0.688900  1
  N  N519  1  0.268100  0.145300  0.188900  1
  N  N520  1  0.268100  0.645300  0.311100  1
  N  N521  1  0.694400  0.798500  0.708100  1
  N  N522  1  0.694400  0.298500  0.791900  1
  N  N523  1  0.305600  0.201500  0.291900  1
  N  N524  1  0.305600  0.701500  0.208100  1
  N  N525  1  0.743300  0.866600  0.610500  1
  N  N526  1  0.743300  0.366600  0.889500  1
  N  N527  1  0.256700  0.133400  0.389500  1
  N  N528  1  0.256700  0.633400  0.110500  1
  N  N529  1  0.822800  0.985400  0.614700  1
  N  N530  1  0.822800  0.485400  0.885300  1
  N  N531  1  0.177200  0.014600  0.385300  1
  N  N532  1  0.177200  0.514600  0.114700  1
  N  N533  1  0.868500  0.039200  0.718100  1
  N  N534  1  0.868500  0.539200  0.781900  1
  N  N535  1  0.131500  0.960800  0.281900  1
  N  N536  1  0.131500  0.460800  0.218100  1
  N  N537  1  0.817200  0.974300  0.814500  1
  N  N538  1  0.817200  0.474300  0.685500  1
  N  N539  1  0.182800  0.025700  0.185500  1
  N  N540  1  0.182800  0.525700  0.314500  1
  N  N541  1  0.657000  0.733400  0.327000  1
  N  N542  1  0.657000  0.233400  0.173000  1
  N  N543  1  0.343000  0.266600  0.673000  1
  N  N544  1  0.343000  0.766600  0.827000  1
  N  N545  1  0.039000  0.883400  0.696500  1
  N  N546  1  0.039000  0.383400  0.803500  1
  N  N547  1  0.961000  0.116600  0.303500  1
  N  N548  1  0.961000  0.616600  0.196500  1
  N  N549  1  0.531000  0.955800  0.700000  1
  N  N550  1  0.531000  0.455800  0.800000  1
  N  N551  1  0.469000  0.044200  0.300000  1
  N  N552  1  0.469000  0.544200  0.200000  1
  O  O553  1  0.672000  0.087800  0.671000  1
  O  O554  1  0.672000  0.587800  0.829000  1
  O  O555  1  0.328000  0.912200  0.329000  1
  O  O556  1  0.328000  0.412200  0.171000  1
  O  O557  1  0.679000  0.189600  0.669300  1
  O  O558  1  0.679000  0.689600  0.830700  1
  O  O559  1  0.321000  0.810400  0.330700  1
  O  O560  1  0.321000  0.310400  0.169300  1
  O  O561  1  0.683000  0.133000  0.594200  1
  O  O562  1  0.683000  0.633000  0.905800  1
  O  O563  1  0.317000  0.867000  0.405800  1
  O  O564  1  0.317000  0.367000  0.094200  1
  O  O565  1  0.846000  0.897800  0.368000  1
  O  O566  1  0.846000  0.397800  0.132000  1
  O  O567  1  0.154000  0.102200  0.632000  1
  O  O568  1  0.154000  0.602200  0.868000  1
  O  O569  1  0.897000  0.983000  0.424300  1
  O  O570  1  0.897000  0.483000  0.075700  1
  O  O571  1  0.103000  0.017000  0.575700  1
  O  O572  1  0.103000  0.517000  0.924300  1
  O  O573  1  0.904000  0.981000  0.330500  1
  O  O574  1  0.904000  0.481000  0.169500  1
  O  O575  1  0.096000  0.019000  0.669500  1
  O  O576  1  0.096000  0.519000  0.830500  1
  O  O577  1  0.585000  0.987800  0.873900  1
  O  O578  1  0.585000  0.487800  0.626100  1
  O  O579  1  0.415000  0.012200  0.126100  1
  O  O580  1  0.415000  0.512200  0.373900  1
  O  O581  1  0.495000  0.896100  0.841400  1
  O  O582  1  0.495000  0.396100  0.658600  1
  O  O583  1  0.505000  0.103900  0.158600  1
  O  O584  1  0.505000  0.603900  0.341400  1
  O  O585  1  0.531000  0.917000  0.930500  1
  O  O586  1  0.531000  0.417000  0.569500  1
  O  O587  1  0.469000  0.083000  0.069500  1
  O  O588  1  0.469000  0.583000  0.430500  1
  O  O589  1  0.553000  0.203900  0.330500  1
  O  O590  1  0.553000  0.703900  0.169500  1
  O  O591  1  0.447000  0.796100  0.669500  1
  O  O592  1  0.447000  0.296100  0.830500  1
  O  O593  1  0.581000  0.252700  0.418900  1
  O  O594  1  0.581000  0.752700  0.081100  1
  O  O595  1  0.419000  0.747300  0.581100  1
  O  O596  1  0.419000  0.247300  0.918900  1
  O  O597  1  0.516000  0.156700  0.404700  1
  O  O598  1  0.516000  0.656700  0.095300  1
  O  O599  1  0.484000  0.843300  0.595300  1
  O  O600  1  0.484000  0.343300  0.904700  1
  O  O601  1  0.033000  0.667400  0.372000  1
  O  O602  1  0.033000  0.167400  0.128000  1
  O  O603  1  0.967000  0.332600  0.628000  1
  O  O604  1  0.967000  0.832600  0.872000  1
  O  O605  1  0.988000  0.603000  0.449000  1
  O  O606  1  0.988000  0.103000  0.051000  1
  O  O607  1  0.012000  0.397000  0.551000  1
  O  O608  1  0.012000  0.897000  0.949000  1
  O  O609  1  0.983000  0.576000  0.360000  1
  O  O610  1  0.983000  0.076000  0.140000  1
  O  O611  1  0.017000  0.424000  0.640000  1
  O  O612  1  0.017000  0.924000  0.860000  1
  O  O613  1  0.881000  0.669000  0.644200  1
  O  O614  1  0.881000  0.169000  0.855800  1
  O  O615  1  0.119000  0.331000  0.355800  1
  O  O616  1  0.119000  0.831000  0.144200  1
  O  O617  1  0.884000  0.758000  0.593000  1
  O  O618  1  0.884000  0.258000  0.907000  1
  O  O619  1  0.116000  0.242000  0.407000  1
  O  O620  1  0.116000  0.742000  0.093000  1
  O  O621  1  0.942000  0.753000  0.677700  1
  O  O622  1  0.942000  0.253000  0.822300  1
  O  O623  1  0.058000  0.247000  0.322300  1
  O  O624  1  0.058000  0.747000  0.177700  1
  O  O625  1  0.709000  0.739000  0.366000  1
  O  O626  1  0.709000  0.239000  0.134000  1
  O  O627  1  0.291000  0.261000  0.634000  1
  O  O628  1  0.291000  0.761000  0.866000  1
  O  O629  1  0.586000  0.740000  0.310000  1
  O  O630  1  0.586000  0.240000  0.190000  1
  O  O631  1  0.414000  0.260000  0.690000  1
  O  O632  1  0.414000  0.760000  0.810000  1
  O  O633  1  0.966700  0.889400  0.709200  1
  O  O634  1  0.966700  0.389400  0.790800  1
  O  O635  1  0.033300  0.110600  0.290800  1
  O  O636  1  0.033300  0.610600  0.209200  1
  O  O637  1  0.112000  0.878000  0.712000  1
  O  O638  1  0.112000  0.378000  0.788000  1
  O  O639  1  0.888000  0.122000  0.288000  1
  O  O640  1  0.888000  0.622000  0.212000  1
  O  O641  1  0.599400  0.947800  0.716400  1
  O  O642  1  0.599400  0.447800  0.783600  1
  O  O643  1  0.400600  0.052200  0.283600  1
  O  O644  1  0.400600  0.552200  0.216400  1
  O  O645  1  0.456000  0.962000  0.712000  1
  O  O646  1  0.456000  0.462000  0.788000  1
  O  O647  1  0.544000  0.038000  0.288000  1
  O  O648  1  0.544000  0.538000  0.212000  1
  F  F649  1  0.517000  0.153100  0.609400  1
  F  F650  1  0.517000  0.653100  0.890600  1
  F  F651  1  0.483000  0.846900  0.390600  1
  F  F652  1  0.483000  0.346900  0.109400  1
  F  F653  1  0.501600  0.069500  0.625400  1
  F  F654  1  0.501600  0.569500  0.874600  1
  F  F655  1  0.498400  0.930500  0.374600  1
  F  F656  1  0.498400  0.430500  0.125400  1
  F  F657  1  0.500000  0.118600  0.684800  1
  F  F658  1  0.500000  0.618600  0.815200  1
  F  F659  1  0.500000  0.881400  0.315200  1
  F  F660  1  0.500000  0.381400  0.184800  1
  F  F661  1  0.711000  0.944000  0.334200  1
  F  F662  1  0.711000  0.444000  0.165800  1
  F  F663  1  0.289000  0.056000  0.665800  1
  F  F664  1  0.289000  0.556000  0.834200  1
  F  F665  1  0.758000  0.019300  0.369600  1
  F  F666  1  0.758000  0.519300  0.130400  1
  F  F667  1  0.242000  0.980700  0.630400  1
  F  F668  1  0.242000  0.480700  0.869600  1
  F  F669  1  0.715000  0.956500  0.416200  1
  F  F670  1  0.715000  0.456500  0.083800  1
  F  F671  1  0.285000  0.043500  0.583800  1
  F  F672  1  0.285000  0.543500  0.916200  1
  F  F673  1  0.397000  0.978000  0.852400  1
  F  F674  1  0.397000  0.478000  0.647600  1
  F  F675  1  0.603000  0.022000  0.147600  1
  F  F676  1  0.603000  0.522000  0.352400  1
  F  F677  1  0.426000  0.997100  0.930500  1
  F  F678  1  0.426000  0.497100  0.569500  1
  F  F679  1  0.574000  0.002900  0.069500  1
  F  F680  1  0.574000  0.502900  0.430500  1
  F  F681  1  0.363000  0.920900  0.915300  1
  F  F682  1  0.363000  0.420900  0.584700  1
  F  F683  1  0.637000  0.079100  0.084700  1
  F  F684  1  0.637000  0.579100  0.415300  1
  F  F685  1  0.735000  0.220700  0.367100  1
  F  F686  1  0.735000  0.720700  0.132900  1
  F  F687  1  0.265000  0.779300  0.632900  1
  F  F688  1  0.265000  0.279300  0.867100  1
  F  F689  1  0.673000  0.137300  0.375600  1
  F  F690  1  0.673000  0.637300  0.124400  1
  F  F691  1  0.327000  0.862700  0.624400  1
  F  F692  1  0.327000  0.362700  0.875600  1
  F  F693  1  0.699000  0.181400  0.439500  1
  F  F694  1  0.699000  0.681400  0.060500  1
  F  F695  1  0.301000  0.818600  0.560500  1
  F  F696  1  0.301000  0.318600  0.939500  1
  F  F697  1  0.851000  0.645000  0.349000  1
  F  F698  1  0.851000  0.145000  0.151000  1
  F  F699  1  0.149000  0.355000  0.651000  1
  F  F700  1  0.149000  0.855000  0.849000  1
  F  F701  1  0.819000  0.580700  0.405000  1
  F  F702  1  0.819000  0.080700  0.095000  1
  F  F703  1  0.181000  0.419300  0.595000  1
  F  F704  1  0.181000  0.919300  0.905000  1
  F  F705  1  0.853000  0.657000  0.429200  1
  F  F706  1  0.853000  0.157000  0.070800  1
  F  F707  1  0.147000  0.343000  0.570800  1
  F  F708  1  0.147000  0.843000  0.929200  1
  F  F709  1  0.073000  0.771700  0.603000  1
  F  F710  1  0.073000  0.271700  0.897000  1
  F  F711  1  0.927000  0.228300  0.397000  1
  F  F712  1  0.927000  0.728300  0.103000  1
  F  F713  1  0.029000  0.695600  0.565900  1
  F  F714  1  0.029000  0.195600  0.934100  1
  F  F715  1  0.971000  0.304400  0.434100  1
  F  F716  1  0.971000  0.804400  0.065900  1
  F  F717  1  0.061000  0.694000  0.637900  1
  F  F718  1  0.061000  0.194000  0.862100  1
  F  F719  1  0.939000  0.306000  0.362100  1
  F  F720  1  0.939000  0.806000  0.137900  1
