# generated using pymatgen
data_CuH24Pd(C12O5)2
_symmetry_space_group_name_H-M   'P 1'
_cell_length_a   28.97190156
_cell_length_b   28.97190156
_cell_length_c   28.97190156
_cell_angle_alpha   90.03203594
_cell_angle_beta   119.98150576
_cell_angle_gamma   119.98150576
_symmetry_Int_Tables_number   1
_chemical_formula_structural   CuH24Pd(C12O5)2
_chemical_formula_sum   'Cu12 Pd12.0 H288 C288 O120'
_cell_volume   17200.35131220
_cell_formula_units_Z   12
loop_
 _symmetry_equiv_pos_site_id
 _symmetry_equiv_pos_as_xyz
  1  'x, y, z'
loop_
 _atom_site_type_symbol
 _atom_site_label
 _atom_site_symmetry_multiplicity
 _atom_site_fract_x
 _atom_site_fract_y
 _atom_site_fract_z
 _atom_site_occupancy
  C  C1  1  0.116800  0.617200  0.239800  1.0
  C  C2  1  0.377400  0.500400  0.617200  1.0
  C  C3  1  0.883200  0.123000  0.500400  1.0
  C  C4  1  0.622600  0.239800  0.123000  1.0
  C  C5  1  0.883200  0.382800  0.760200  1.0
  C  C6  1  0.622600  0.499600  0.382800  1.0
  C  C7  1  0.116800  0.877000  0.499600  1.0
  C  C8  1  0.377400  0.760200  0.877000  1.0
  C  C9  1  0.171200  0.676000  0.269600  1.0
  C  C10  1  0.406400  0.504800  0.676000  1.0
  C  C11  1  0.828800  0.098400  0.504800  1.0
  C  C12  1  0.593600  0.269600  0.098400  1.0
  C  C13  1  0.828800  0.324000  0.730400  1.0
  C  C14  1  0.593600  0.495200  0.324000  1.0
  C  C15  1  0.171200  0.901600  0.495200  1.0
  C  C16  1  0.406400  0.730400  0.901600  1.0
  C  C17  1  0.195900  0.707900  0.241600  1.0
  C  C18  1  0.466300  0.512000  0.707900  1.0
  C  C19  1  0.804100  0.045700  0.512000  1.0
  C  C20  1  0.533700  0.241600  0.045700  1.0
  C  C21  1  0.804100  0.292100  0.758400  1.0
  C  C22  1  0.533700  0.488000  0.292100  1.0
  C  C23  1  0.195900  0.954300  0.488000  1.0
  C  C24  1  0.466300  0.758400  0.954300  1.0
  C  C25  1  0.254200  0.766400  0.275000  1.0
  C  C26  1  0.491400  0.512200  0.766400  1.0
  C  C27  1  0.745800  0.020800  0.512200  1.0
  C  C28  1  0.508600  0.275000  0.020800  1.0
  C  C29  1  0.745800  0.233600  0.725000  1.0
  C  C30  1  0.508600  0.487800  0.233600  1.0
  C  C31  1  0.254200  0.979200  0.487800  1.0
  C  C32  1  0.491400  0.725000  0.979200  1.0
  C  C33  1  0.276300  0.788300  0.326600  1.0
  C  C34  1  0.461700  0.512000  0.788300  1.0
  C  C35  1  0.723700  0.050300  0.512000  1.0
  C  C36  1  0.538300  0.326600  0.050300  1.0
  C  C37  1  0.723700  0.211700  0.673400  1.0
  C  C38  1  0.538300  0.488000  0.211700  1.0
  C  C39  1  0.276300  0.949700  0.488000  1.0
  C  C40  1  0.461700  0.673400  0.949700  1.0
  C  C41  1  0.250700  0.755200  0.353900  1.0
  C  C42  1  0.401300  0.504500  0.755200  1.0
  C  C43  1  0.749300  0.103200  0.504500  1.0
  C  C44  1  0.598700  0.353900  0.103200  1.0
  C  C45  1  0.749300  0.244800  0.646100  1.0
  C  C46  1  0.598700  0.495500  0.244800  1.0
  C  C47  1  0.250700  0.896800  0.495500  1.0
  C  C48  1  0.401300  0.646100  0.896800  1.0
  C  C49  1  0.199800  0.701200  0.325200  1.0
  C  C50  1  0.376000  0.501400  0.701200  1.0
  C  C51  1  0.800200  0.125400  0.501400  1.0
  C  C52  1  0.624000  0.325200  0.125400  1.0
  C  C53  1  0.800200  0.298800  0.674800  1.0
  C  C54  1  0.624000  0.498600  0.298800  1.0
  C  C55  1  0.199800  0.874600  0.498600  1.0
  C  C56  1  0.376000  0.674800  0.874600  1.0
  C  C57  1  0.286200  0.781800  0.416800  1.0
  C  C58  1  0.365000  0.495600  0.781800  1.0
  C  C59  1  0.713800  0.130600  0.495600  1.0
  C  C60  1  0.635000  0.416800  0.130600  1.0
  C  C61  1  0.713800  0.218200  0.583200  1.0
  C  C62  1  0.635000  0.504400  0.218200  1.0
  C  C63  1  0.286200  0.869400  0.504400  1.0
  C  C64  1  0.365000  0.583200  0.869400  1.0
  C  C65  1  0.938700  0.533600  0.146700  1.0
  C  C66  1  0.386900  0.594900  0.533600  1.0
  C  C67  1  0.061300  0.208000  0.594900  1.0
  C  C68  1  0.613100  0.146700  0.208000  1.0
  C  C69  1  0.061300  0.466400  0.853300  1.0
  C  C70  1  0.613100  0.405100  0.466400  1.0
  C  C71  1  0.938700  0.792000  0.405100  1.0
  C  C72  1  0.386900  0.853300  0.792000  1.0
  C  C73  1  0.889300  0.542800  0.118700  1.0
  C  C74  1  0.424100  0.653500  0.542800  1.0
  C  C75  1  0.110700  0.229400  0.653500  1.0
  C  C76  1  0.575900  0.118700  0.229400  1.0
  C  C77  1  0.110700  0.457200  0.881300  1.0
  C  C78  1  0.575900  0.346500  0.457200  1.0
  C  C79  1  0.889300  0.770600  0.346500  1.0
  C  C80  1  0.424100  0.881300  0.770600  1.0
  C  C81  1  0.871100  0.558400  0.069300  1.0
  C  C82  1  0.489100  0.687300  0.558400  1.0
  C  C83  1  0.128900  0.198200  0.687300  1.0
  C  C84  1  0.510900  0.069300  0.198200  1.0
  C  C85  1  0.128900  0.441600  0.930700  1.0
  C  C86  1  0.510900  0.312700  0.441600  1.0
  C  C87  1  0.871100  0.801800  0.312700  1.0
  C  C88  1  0.489100  0.930700  0.801800  1.0
  C  C89  1  0.828800  0.574900  0.043700  1.0
  C  C90  1  0.531200  0.746100  0.574900  1.0
  C  C91  1  0.171200  0.214900  0.746100  1.0
  C  C92  1  0.468800  0.043700  0.214900  1.0
  C  C93  1  0.171200  0.425100  0.956300  1.0
  C  C94  1  0.468800  0.253900  0.425100  1.0
  C  C95  1  0.828800  0.785100  0.253900  1.0
  C  C96  1  0.531200  0.956300  0.785100  1.0
  C  C97  1  0.790000  0.563200  0.067000  1.0
  C  C98  1  0.496200  0.773200  0.563200  1.0
  C  C99  1  0.210000  0.277000  0.773200  1.0
  C  C100  1  0.503800  0.067000  0.277000  1.0
  C  C101  1  0.210000  0.436800  0.933000  1.0
  C  C102  1  0.503800  0.226800  0.436800  1.0
  C  C103  1  0.790000  0.723000  0.226800  1.0
  C  C104  1  0.496200  0.933000  0.723000  1.0
  C  C105  1  0.802500  0.545000  0.113700  1.0
  C  C106  1  0.431300  0.742500  0.545000  1.0
  C  C107  1  0.197500  0.311200  0.742500  1.0
  C  C108  1  0.568700  0.113700  0.311200  1.0
  C  C109  1  0.197500  0.455000  0.886300  1.0
  C  C110  1  0.568700  0.257500  0.455000  1.0
  C  C111  1  0.802500  0.688800  0.257500  1.0
  C  C112  1  0.431300  0.886300  0.688800  1.0
  C  C113  1  0.853600  0.537600  0.140600  1.0
  C  C114  1  0.397000  0.684000  0.537600  1.0
  C  C115  1  0.146400  0.287000  0.684000  1.0
  C  C116  1  0.603000  0.140600  0.287000  1.0
  C  C117  1  0.146400  0.462400  0.859400  1.0
  C  C118  1  0.603000  0.316000  0.462400  1.0
  C  C119  1  0.853600  0.713000  0.316000  1.0
  C  C120  1  0.397000  0.859400  0.713000  1.0
  C  C121  1  0.767500  0.538800  0.138100  1.0
  C  C122  1  0.400700  0.771300  0.538800  1.0
  C  C123  1  0.232500  0.370600  0.771300  1.0
  C  C124  1  0.599300  0.138100  0.370600  1.0
  C  C125  1  0.232500  0.461200  0.861900  1.0
  C  C126  1  0.599300  0.228700  0.461200  1.0
  C  C127  1  0.767500  0.629400  0.228700  1.0
  C  C128  1  0.400700  0.861900  0.629400  1.0
  C  C129  1  0.932900  0.405500  0.141600  1.0
  C  C130  1  0.263900  0.472600  0.405500  1.0
  C  C131  1  0.067100  0.208700  0.472600  1.0
  C  C132  1  0.736100  0.141600  0.208700  1.0
  C  C133  1  0.067100  0.594500  0.858400  1.0
  C  C134  1  0.736100  0.527400  0.594500  1.0
  C  C135  1  0.932900  0.791300  0.527400  1.0
  C  C136  1  0.263900  0.858400  0.791300  1.0
  C  C137  1  0.875700  0.348500  0.110600  1.0
  C  C138  1  0.237900  0.472800  0.348500  1.0
  C  C139  1  0.124300  0.234900  0.472800  1.0
  C  C140  1  0.762100  0.110600  0.234900  1.0
  C  C141  1  0.124300  0.651500  0.889400  1.0
  C  C142  1  0.762100  0.527200  0.651500  1.0
  C  C143  1  0.875700  0.765100  0.527200  1.0
  C  C144  1  0.237900  0.889400  0.765100  1.0
  C  C145  1  0.858800  0.321200  0.061200  1.0
  C  C146  1  0.260000  0.462400  0.321200  1.0
  C  C147  1  0.141200  0.202400  0.462400  1.0
  C  C148  1  0.740000  0.061200  0.202400  1.0
  C  C149  1  0.141200  0.678800  0.938800  1.0
  C  C150  1  0.740000  0.537600  0.678800  1.0
  C  C151  1  0.858800  0.797600  0.537600  1.0
  C  C152  1  0.260000  0.938800  0.797600  1.0
  C  C153  1  0.806100  0.259900  0.031400  1.0
  C  C154  1  0.228500  0.453800  0.259900  1.0
  C  C155  1  0.193900  0.225300  0.453800  1.0
  C  C156  1  0.771500  0.031400  0.225300  1.0
  C  C157  1  0.193900  0.740100  0.968600  1.0
  C  C158  1  0.771500  0.546200  0.740100  1.0
  C  C159  1  0.806100  0.774700  0.546200  1.0
  C  C160  1  0.228500  0.968600  0.774700  1.0
  C  C161  1  0.770800  0.234100  0.054700  1.0
  C  C162  1  0.179400  0.463300  0.234100  1.0
  C  C163  1  0.229200  0.283900  0.463300  1.0
  C  C164  1  0.820600  0.054700  0.283900  1.0
  C  C165  1  0.229200  0.765900  0.945300  1.0
  C  C166  1  0.820600  0.536700  0.765900  1.0
  C  C167  1  0.770800  0.716100  0.536700  1.0
  C  C168  1  0.179400  0.945300  0.716100  1.0
  C  C169  1  0.785600  0.265000  0.104600  1.0
  C  C170  1  0.160400  0.479400  0.265000  1.0
  C  C171  1  0.214400  0.319000  0.479400  1.0
  C  C172  1  0.839600  0.104600  0.319000  1.0
  C  C173  1  0.214400  0.735000  0.895400  1.0
  C  C174  1  0.839600  0.520600  0.735000  1.0
  C  C175  1  0.785600  0.681000  0.520600  1.0
  C  C176  1  0.160400  0.895400  0.681000  1.0
  C  C177  1  0.840400  0.319700  0.132500  1.0
  C  C178  1  0.187200  0.479300  0.319700  1.0
  C  C179  1  0.159600  0.292100  0.479300  1.0
  C  C180  1  0.812800  0.132500  0.292100  1.0
  C  C181  1  0.159600  0.680300  0.867500  1.0
  C  C182  1  0.812800  0.520700  0.680300  1.0
  C  C183  1  0.840400  0.707900  0.520700  1.0
  C  C184  1  0.187200  0.867500  0.707900  1.0
  C  C185  1  0.747700  0.235300  0.127400  1.0
  C  C186  1  0.107900  0.487600  0.235300  1.0
  C  C187  1  0.252300  0.379700  0.487600  1.0
  C  C188  1  0.892100  0.127400  0.379700  1.0
  C  C189  1  0.252300  0.764700  0.872600  1.0
  C  C190  1  0.892100  0.512400  0.764700  1.0
  C  C191  1  0.747700  0.620300  0.512400  1.0
  C  C192  1  0.107900  0.872600  0.620300  1.0
  C  C193  1  0.278300  0.796800  0.239900  1.0
  C  C194  1  0.556900  0.518500  0.796800  1.0
  C  C195  1  0.721700  0.961600  0.518500  1.0
  C  C196  1  0.443100  0.239900  0.961600  1.0
  C  C197  1  0.721700  0.203200  0.760100  1.0
  C  C198  1  0.443100  0.481500  0.203200  1.0
  C  C199  1  0.278300  0.038400  0.481500  1.0
  C  C200  1  0.556900  0.760100  0.038400  1.0
  C  C201  1  0.231900  0.799800  0.187300  1.0
  C  C202  1  0.612500  0.567900  0.799800  1.0
  C  C203  1  0.768100  0.955400  0.567900  1.0
  C  C204  1  0.387500  0.187300  0.955400  1.0
  C  C205  1  0.768100  0.200200  0.812700  1.0
  C  C206  1  0.387500  0.432100  0.200200  1.0
  C  C207  1  0.231900  0.044600  0.432100  1.0
  C  C208  1  0.612500  0.812700  0.044600  1.0
  C  C209  1  0.296100  0.764400  0.217300  1.0
  C  C210  1  0.547100  0.468300  0.764400  1.0
  C  C211  1  0.703900  0.921200  0.468300  1.0
  C  C212  1  0.452900  0.217300  0.921200  1.0
  C  C213  1  0.703900  0.235600  0.782700  1.0
  C  C214  1  0.452900  0.531700  0.235600  1.0
  C  C215  1  0.296100  0.078800  0.531700  1.0
  C  C216  1  0.547100  0.782700  0.078800  1.0
  C  C217  1  0.811200  0.596300  0.992500  1.0
  C  C218  1  0.603800  0.785100  0.596300  1.0
  C  C219  1  0.188800  0.181300  0.785100  1.0
  C  C220  1  0.396200  0.992500  0.181300  1.0
  C  C221  1  0.188800  0.403700  0.007500  1.0
  C  C222  1  0.396200  0.214900  0.403700  1.0
  C  C223  1  0.811200  0.818700  0.214900  1.0
  C  C224  1  0.603800  0.007500  0.818700  1.0
  C  C225  1  0.859500  0.607200  0.980500  1.0
  C  C226  1  0.626700  0.747700  0.607200  1.0
  C  C227  1  0.140500  0.121000  0.747700  1.0
  C  C228  1  0.373300  0.980500  0.121000  1.0
  C  C229  1  0.140500  0.392800  0.019500  1.0
  C  C230  1  0.373300  0.252300  0.392800  1.0
  C  C231  1  0.859500  0.879000  0.252300  1.0
  C  C232  1  0.626700  0.019500  0.879000  1.0
  C  C233  1  0.811500  0.647900  0.005400  1.0
  C  C234  1  0.642500  0.836400  0.647900  1.0
  C  C235  1  0.188500  0.193900  0.836400  1.0
  C  C236  1  0.357500  0.005400  0.193900  1.0
  C  C237  1  0.188500  0.352100  0.994600  1.0
  C  C238  1  0.357500  0.163600  0.352100  1.0
  C  C239  1  0.811500  0.806100  0.163600  1.0
  C  C240  1  0.642500  0.994600  0.806100  1.0
  C  C241  1  0.748700  0.540800  0.944700  1.0
  C  C242  1  0.596100  0.792100  0.540800  1.0
  C  C243  1  0.251300  0.196000  0.792100  1.0
  C  C244  1  0.403900  0.944700  0.196000  1.0
  C  C245  1  0.251300  0.459200  0.055300  1.0
  C  C246  1  0.403900  0.207900  0.459200  1.0
  C  C247  1  0.748700  0.804000  0.207900  1.0
  C  C248  1  0.596100  0.055300  0.804000  1.0
  C  C249  1  0.780500  0.219600  0.975500  1.0
  C  C250  1  0.244100  0.439100  0.219600  1.0
  C  C251  1  0.219500  0.195000  0.439100  1.0
  C  C252  1  0.755900  0.975500  0.195000  1.0
  C  C253  1  0.219500  0.780400  0.024500  1.0
  C  C254  1  0.755900  0.560900  0.780400  1.0
  C  C255  1  0.780500  0.805000  0.560900  1.0
  C  C256  1  0.244100  0.024500  0.805000  1.0
  C  C257  1  0.835200  0.251900  0.967500  1.0
  C  C258  1  0.284400  0.416700  0.251900  1.0
  C  C259  1  0.164800  0.132300  0.416700  1.0
  C  C260  1  0.715600  0.967500  0.132300  1.0
  C  C261  1  0.164800  0.748100  0.032500  1.0
  C  C262  1  0.715600  0.583300  0.748100  1.0
  C  C263  1  0.835200  0.867700  0.583300  1.0
  C  C264  1  0.284400  0.032500  0.867700  1.0
  C  C265  1  0.718000  0.210000  0.937600  1.0
  C  C266  1  0.272400  0.492000  0.210000  1.0
  C  C267  1  0.282000  0.219600  0.492000  1.0
  C  C268  1  0.727600  0.937600  0.219600  1.0
  C  C269  1  0.282000  0.790000  0.062400  1.0
  C  C270  1  0.727600  0.508000  0.790000  1.0
  C  C271  1  0.718000  0.780400  0.508000  1.0
  C  C272  1  0.272400  0.062400  0.780400  1.0
  C  C273  1  0.784400  0.168600  0.983200  1.0
  C  C274  1  0.185400  0.384200  0.168600  1.0
  C  C275  1  0.215600  0.198800  0.384200  1.0
  C  C276  1  0.814600  0.983200  0.198800  1.0
  C  C277  1  0.215600  0.831400  0.016800  1.0
  C  C278  1  0.814600  0.615800  0.831400  1.0
  C  C279  1  0.784400  0.801200  0.615800  1.0
  C  C280  1  0.185400  0.016800  0.801200  1.0
  C  C281  1  0.340800  0.844900  0.278500  1.0
  C  C282  1  0.566400  0.504100  0.844900  1.0
  C  C283  1  0.659200  0.937700  0.504100  1.0
  C  C284  1  0.433600  0.278500  0.937700  1.0
  C  C285  1  0.659200  0.155100  0.721500  1.0
  C  C286  1  0.433600  0.495900  0.155100  1.0
  C  C287  1  0.340800  0.062300  0.495900  1.0
  C  C288  1  0.566400  0.721500  0.062300  1.0
  Cu  Cu289  1  0.020070  0.509580  0.230670  0.1111111111111111
  Pd  Pd290  1  0.020070  0.509580  0.230670  0.8888888888888888
  Cu  Cu291  1  0.278910  0.489510  0.509580  0.1111111111111111
  Pd  Pd292  1  0.278910  0.489510  0.509580  0.8888888888888888
  Cu  Cu293  1  0.979930  0.210600  0.489510  0.1111111111111111
  Pd  Pd294  1  0.979930  0.210600  0.489510  0.8888888888888888
  Cu  Cu295  1  0.721090  0.230670  0.210600  0.1111111111111111
  Pd  Pd296  1  0.721090  0.230670  0.210600  0.8888888888888888
  Cu  Cu297  1  0.979930  0.490420  0.769330  0.1111111111111111
  Pd  Pd298  1  0.979930  0.490420  0.769330  0.8888888888888888
  Cu  Cu299  1  0.721090  0.510490  0.490420  0.1111111111111111
  Pd  Pd300  1  0.721090  0.510490  0.490420  0.8888888888888888
  Cu  Cu301  1  0.020070  0.789400  0.510490  0.1111111111111111
  Pd  Pd302  1  0.020070  0.789400  0.510490  0.8888888888888888
  Cu  Cu303  1  0.278910  0.769330  0.789400  0.1111111111111111
  Pd  Pd304  1  0.278910  0.769330  0.789400  0.8888888888888888
  Cu  Cu305  1  0.297820  0.778980  0.518840  0.2
  Pd  Pd306  1  0.297820  0.778980  0.518840  0.8
  Cu  Cu307  1  0.260140  0.481160  0.778980  0.2
  Pd  Pd308  1  0.260140  0.481160  0.778980  0.8
  Cu  Cu309  1  0.702180  0.221020  0.481160  0.2
  Pd  Pd310  1  0.702180  0.221020  0.481160  0.8
  Cu  Cu311  1  0.739860  0.518840  0.221020  0.2
  Pd  Pd312  1  0.739860  0.518840  0.221020  0.8
  Cu  Cu313  1  0.392030  0.866870  0.525160  0.8
  Pd  Pd314  1  0.392030  0.866870  0.525160  0.2
  Cu  Cu315  1  0.341710  0.474840  0.866870  0.8
  Pd  Pd316  1  0.341710  0.474840  0.866870  0.2
  Cu  Cu317  1  0.607970  0.133130  0.474840  0.8
  Pd  Pd318  1  0.607970  0.133130  0.474840  0.2
  Cu  Cu319  1  0.658290  0.525160  0.133130  0.8
  Pd  Pd320  1  0.658290  0.525160  0.133130  0.2
  Cu  Cu321  1  0.027150  0.512730  0.146260  0.8888888888888888
  Pd  Pd322  1  0.027150  0.512730  0.146260  0.1111111111111111
  Cu  Cu323  1  0.366470  0.485580  0.512730  0.8888888888888888
  Pd  Pd324  1  0.366470  0.485580  0.512730  0.1111111111111111
  Cu  Cu325  1  0.972850  0.119110  0.485580  0.8888888888888888
  Pd  Pd326  1  0.972850  0.119110  0.485580  0.1111111111111111
  Cu  Cu327  1  0.633530  0.146260  0.119110  0.8888888888888888
  Pd  Pd328  1  0.633530  0.146260  0.119110  0.1111111111111111
  Cu  Cu329  1  0.972850  0.487270  0.853740  0.8888888888888888
  Pd  Pd330  1  0.972850  0.487270  0.853740  0.1111111111111111
  Cu  Cu331  1  0.633530  0.514420  0.487270  0.8888888888888888
  Pd  Pd332  1  0.633530  0.514420  0.487270  0.1111111111111111
  Cu  Cu333  1  0.027150  0.880890  0.514420  0.8888888888888888
  Pd  Pd334  1  0.027150  0.880890  0.514420  0.1111111111111111
  Cu  Cu335  1  0.366470  0.853740  0.880890  0.8888888888888888
  Pd  Pd336  1  0.366470  0.853740  0.880890  0.1111111111111111
  H  H337  1  0.176000  0.692600  0.202600  1.0
  H  H338  1  0.490000  0.516600  0.692600  1.0
  H  H339  1  0.824000  0.026600  0.516600  1.0
  H  H340  1  0.510000  0.202600  0.026600  1.0
  H  H341  1  0.824000  0.307400  0.797400  1.0
  H  H342  1  0.510000  0.483400  0.307400  1.0
  H  H343  1  0.176000  0.973400  0.483400  1.0
  H  H344  1  0.490000  0.797400  0.973400  1.0
  H  H345  1  0.310400  0.827500  0.346300  1.0
  H  H346  1  0.481200  0.517100  0.827500  1.0
  H  H347  1  0.689600  0.035900  0.517100  1.0
  H  H348  1  0.518800  0.346300  0.035900  1.0
  H  H349  1  0.689600  0.172500  0.653700  1.0
  H  H350  1  0.518800  0.482900  0.172500  1.0
  H  H351  1  0.310400  0.964100  0.482900  1.0
  H  H352  1  0.481200  0.653700  0.964100  1.0
  H  H353  1  0.182600  0.679500  0.344100  1.0
  H  H354  1  0.335400  0.496900  0.679500  1.0
  H  H355  1  0.817400  0.161500  0.496900  1.0
  H  H356  1  0.664600  0.344100  0.161500  1.0
  H  H357  1  0.817400  0.320500  0.655900  1.0
  H  H358  1  0.664600  0.503100  0.320500  1.0
  H  H359  1  0.182600  0.838500  0.503100  1.0
  H  H360  1  0.335400  0.655900  0.838500  1.0
  H  H361  1  0.890600  0.557700  0.051100  1.0
  H  H362  1  0.506600  0.667100  0.557700  1.0
  H  H363  1  0.109400  0.160500  0.667100  1.0
  H  H364  1  0.493400  0.051100  0.160500  1.0
  H  H365  1  0.109400  0.442300  0.948900  1.0
  H  H366  1  0.493400  0.332900  0.442300  1.0
  H  H367  1  0.890600  0.839500  0.332900  1.0
  H  H368  1  0.506600  0.948900  0.839500  1.0
  H  H369  1  0.755900  0.568400  0.049700  1.0
  H  H370  1  0.518700  0.812500  0.568400  1.0
  H  H371  1  0.244100  0.293800  0.812500  1.0
  H  H372  1  0.481300  0.049700  0.293800  1.0
  H  H373  1  0.244100  0.431600  0.950300  1.0
  H  H374  1  0.481300  0.187500  0.431600  1.0
  H  H375  1  0.755900  0.706200  0.187500  1.0
  H  H376  1  0.518700  0.950300  0.706200  1.0
  H  H377  1  0.864200  0.528900  0.174700  1.0
  H  H378  1  0.354200  0.664700  0.528900  1.0
  H  H379  1  0.135800  0.310500  0.664700  1.0
  H  H380  1  0.645800  0.174700  0.310500  1.0
  H  H381  1  0.135800  0.471100  0.825300  1.0
  H  H382  1  0.645800  0.335300  0.471100  1.0
  H  H383  1  0.864200  0.689500  0.335300  1.0
  H  H384  1  0.354200  0.825300  0.689500  1.0
  H  H385  1  0.881200  0.341800  0.045200  1.0
  H  H386  1  0.296600  0.460600  0.341800  1.0
  H  H387  1  0.118800  0.164000  0.460600  1.0
  H  H388  1  0.703400  0.045200  0.164000  1.0
  H  H389  1  0.118800  0.658200  0.954800  1.0
  H  H390  1  0.703400  0.539400  0.658200  1.0
  H  H391  1  0.881200  0.836000  0.539400  1.0
  H  H392  1  0.296600  0.954800  0.836000  1.0
  H  H393  1  0.736200  0.194900  0.036900  1.0
  H  H394  1  0.158000  0.458700  0.194900  1.0
  H  H395  1  0.263800  0.300700  0.458700  1.0
  H  H396  1  0.842000  0.036900  0.300700  1.0
  H  H397  1  0.263800  0.805100  0.963100  1.0
  H  H398  1  0.842000  0.541300  0.805100  1.0
  H  H399  1  0.736200  0.699300  0.541300  1.0
  H  H400  1  0.158000  0.963100  0.699300  1.0
  H  H401  1  0.854900  0.338900  0.168600  1.0
  H  H402  1  0.170300  0.484000  0.338900  1.0
  H  H403  1  0.145100  0.313700  0.484000  1.0
  H  H404  1  0.829700  0.168600  0.313700  1.0
  H  H405  1  0.145100  0.661100  0.831400  1.0
  H  H406  1  0.829700  0.516000  0.661100  1.0
  H  H407  1  0.854900  0.686300  0.516000  1.0
  H  H408  1  0.170300  0.831400  0.686300  1.0
  H  H409  1  0.188400  0.764300  0.167900  1.0
  H  H410  1  0.596400  0.575900  0.764300  1.0
  H  H411  1  0.811600  0.979500  0.575900  1.0
  H  H412  1  0.403600  0.167900  0.979500  1.0
  H  H413  1  0.811600  0.235700  0.832100  1.0
  H  H414  1  0.403600  0.424100  0.235700  1.0
  H  H415  1  0.188400  0.020500  0.424100  1.0
  H  H416  1  0.596400  0.832100  0.020500  1.0
  H  H417  1  0.246500  0.806100  0.162400  1.0
  H  H418  1  0.643700  0.559600  0.806100  1.0
  H  H419  1  0.753500  0.915900  0.559600  1.0
  H  H420  1  0.356300  0.162400  0.915900  1.0
  H  H421  1  0.753500  0.193900  0.837600  1.0
  H  H422  1  0.356300  0.440400  0.193900  1.0
  H  H423  1  0.246500  0.084100  0.440400  1.0
  H  H424  1  0.643700  0.837600  0.084100  1.0
  H  H425  1  0.230200  0.831100  0.196900  1.0
  H  H426  1  0.634200  0.600900  0.831100  1.0
  H  H427  1  0.769800  0.966700  0.600900  1.0
  H  H428  1  0.365800  0.196900  0.966700  1.0
  H  H429  1  0.769800  0.168900  0.803100  1.0
  H  H430  1  0.365800  0.399100  0.168900  1.0
  H  H431  1  0.230200  0.033300  0.399100  1.0
  H  H432  1  0.634200  0.803100  0.033300  1.0
  H  H433  1  0.328000  0.760700  0.248900  1.0
  H  H434  1  0.511800  0.432700  0.760700  1.0
  H  H435  1  0.672000  0.920900  0.432700  1.0
  H  H436  1  0.488200  0.248900  0.920900  1.0
  H  H437  1  0.672000  0.239300  0.751100  1.0
  H  H438  1  0.488200  0.567300  0.239300  1.0
  H  H439  1  0.328000  0.079100  0.567300  1.0
  H  H440  1  0.511800  0.751100  0.079100  1.0
  H  H441  1  0.314700  0.785100  0.197600  1.0
  H  H442  1  0.587500  0.470400  0.785100  1.0
  H  H443  1  0.685300  0.882900  0.470400  1.0
  H  H444  1  0.412500  0.197600  0.882900  1.0
  H  H445  1  0.685300  0.214900  0.802400  1.0
  H  H446  1  0.412500  0.529600  0.214900  1.0
  H  H447  1  0.314700  0.117100  0.529600  1.0
  H  H448  1  0.587500  0.802400  0.117100  1.0
  H  H449  1  0.256700  0.726700  0.190800  1.0
  H  H450  1  0.535900  0.470000  0.726700  1.0
  H  H451  1  0.743300  0.934100  0.470000  1.0
  H  H452  1  0.464100  0.190800  0.934100  1.0
  H  H453  1  0.743300  0.273300  0.809200  1.0
  H  H454  1  0.464100  0.530000  0.273300  1.0
  H  H455  1  0.256700  0.065900  0.530000  1.0
  H  H456  1  0.535900  0.809200  0.065900  1.0
  H  H457  1  0.871300  0.580500  0.990200  1.0
  H  H458  1  0.590300  0.709200  0.580500  1.0
  H  H459  1  0.128700  0.118900  0.709200  1.0
  H  H460  1  0.409700  0.990200  0.118900  1.0
  H  H461  1  0.128700  0.419500  0.009800  1.0
  H  H462  1  0.409700  0.290800  0.419500  1.0
  H  H463  1  0.871300  0.881100  0.290800  1.0
  H  H464  1  0.590300  0.009800  0.881100  1.0
  H  H465  1  0.898700  0.645900  0.003200  1.0
  H  H466  1  0.642700  0.747200  0.645900  1.0
  H  H467  1  0.101300  0.104500  0.747200  1.0
  H  H468  1  0.357300  0.003200  0.104500  1.0
  H  H469  1  0.101300  0.354100  0.996800  1.0
  H  H470  1  0.357300  0.252800  0.354100  1.0
  H  H471  1  0.898700  0.895500  0.252800  1.0
  H  H472  1  0.642700  0.996800  0.895500  1.0
  H  H473  1  0.840300  0.602200  0.940300  1.0
  H  H474  1  0.661900  0.761900  0.602200  1.0
  H  H475  1  0.159700  0.100000  0.761900  1.0
  H  H476  1  0.338100  0.940300  0.100000  1.0
  H  H477  1  0.159700  0.397800  0.059700  1.0
  H  H478  1  0.338100  0.238100  0.397800  1.0
  H  H479  1  0.840300  0.900000  0.238100  1.0
  H  H480  1  0.661900  0.059700  0.900000  1.0
  H  H481  1  0.780100  0.637700  0.014600  1.0
  H  H482  1  0.623100  0.857600  0.637700  1.0
  H  H483  1  0.219900  0.234500  0.857600  1.0
  H  H484  1  0.376900  0.014600  0.234500  1.0
  H  H485  1  0.219900  0.362300  0.985400  1.0
  H  H486  1  0.376900  0.142400  0.362300  1.0
  H  H487  1  0.780100  0.765500  0.142400  1.0
  H  H488  1  0.623100  0.985400  0.765500  1.0
  H  H489  1  0.799400  0.660300  0.972300  1.0
  H  H490  1  0.688000  0.860900  0.660300  1.0
  H  H491  1  0.200600  0.172900  0.860900  1.0
  H  H492  1  0.312000  0.972300  0.172900  1.0
  H  H493  1  0.200600  0.339700  0.027700  1.0
  H  H494  1  0.312000  0.139100  0.339700  1.0
  H  H495  1  0.799400  0.827100  0.139100  1.0
  H  H496  1  0.688000  0.027700  0.827100  1.0
  H  H497  1  0.855300  0.678700  0.037600  1.0
  H  H498  1  0.641100  0.823400  0.678700  1.0
  H  H499  1  0.144700  0.182300  0.823400  1.0
  H  H500  1  0.358900  0.037600  0.182300  1.0
  H  H501  1  0.144700  0.321300  0.962400  1.0
  H  H502  1  0.358900  0.176600  0.321300  1.0
  H  H503  1  0.855300  0.817700  0.176600  1.0
  H  H504  1  0.641100  0.962400  0.817700  1.0
  H  H505  1  0.757500  0.512300  0.944600  1.0
  H  H506  1  0.567700  0.754800  0.512300  1.0
  H  H507  1  0.242500  0.187100  0.754800  1.0
  H  H508  1  0.432300  0.944600  0.187100  1.0
  H  H509  1  0.242500  0.487700  0.055400  1.0
  H  H510  1  0.432300  0.245200  0.487700  1.0
  H  H511  1  0.757500  0.812900  0.245200  1.0
  H  H512  1  0.567700  0.055400  0.812900  1.0
  H  H513  1  0.734400  0.547300  0.908300  1.0
  H  H514  1  0.639000  0.812900  0.547300  1.0
  H  H515  1  0.265600  0.173900  0.812900  1.0
  H  H516  1  0.361000  0.908300  0.173900  1.0
  H  H517  1  0.265600  0.452700  0.091700  1.0
  H  H518  1  0.361000  0.187100  0.452700  1.0
  H  H519  1  0.734400  0.826100  0.187100  1.0
  H  H520  1  0.639000  0.091700  0.826100  1.0
  H  H521  1  0.714300  0.527400  0.950700  1.0
  H  H522  1  0.576700  0.813100  0.527400  1.0
  H  H523  1  0.285700  0.236400  0.813100  1.0
  H  H524  1  0.423300  0.950700  0.236400  1.0
  H  H525  1  0.285700  0.472600  0.049300  1.0
  H  H526  1  0.423300  0.186900  0.472600  1.0
  H  H527  1  0.714300  0.763600  0.186900  1.0
  H  H528  1  0.576700  0.049300  0.763600  1.0
  H  H529  1  0.874700  0.256700  0.999000  1.0
  H  H530  1  0.257700  0.382000  0.256700  1.0
  H  H531  1  0.125300  0.124300  0.382000  1.0
  H  H532  1  0.742300  0.999000  0.124300  1.0
  H  H533  1  0.125300  0.743300  0.001000  1.0
  H  H534  1  0.742300  0.618000  0.743300  1.0
  H  H535  1  0.874700  0.875700  0.618000  1.0
  H  H536  1  0.257700  0.001000  0.875700  1.0
  H  H537  1  0.843900  0.289100  0.966400  1.0
  H  H538  1  0.322700  0.445200  0.289100  1.0
  H  H539  1  0.156100  0.122500  0.445200  1.0
  H  H540  1  0.677300  0.966400  0.122500  1.0
  H  H541  1  0.156100  0.710900  0.033600  1.0
  H  H542  1  0.677300  0.554800  0.710900  1.0
  H  H543  1  0.843900  0.877500  0.554800  1.0
  H  H544  1  0.322700  0.033600  0.877500  1.0
  H  H545  1  0.822000  0.230500  0.931900  1.0
  H  H546  1  0.298600  0.408500  0.230500  1.0
  H  H547  1  0.178000  0.109900  0.408500  1.0
  H  H548  1  0.701400  0.931900  0.109900  1.0
  H  H549  1  0.178000  0.769500  0.068100  1.0
  H  H550  1  0.701400  0.591500  0.769500  1.0
  H  H551  1  0.822000  0.890100  0.591500  1.0
  H  H552  1  0.298600  0.068100  0.890100  1.0
  H  H553  1  0.691100  0.192300  0.951800  1.0
  H  H554  1  0.240500  0.501200  0.192300  1.0
  H  H555  1  0.308900  0.260700  0.501200  1.0
  H  H556  1  0.759500  0.951800  0.260700  1.0
  H  H557  1  0.308900  0.807700  0.048200  1.0
  H  H558  1  0.759500  0.498800  0.807700  1.0
  H  H559  1  0.691100  0.739300  0.498800  1.0
  H  H560  1  0.240500  0.048200  0.739300  1.0
  H  H561  1  0.696000  0.184900  0.900100  1.0
  H  H562  1  0.284800  0.488900  0.184900  1.0
  H  H563  1  0.304000  0.204100  0.488900  1.0
  H  H564  1  0.715200  0.900100  0.204100  1.0
  H  H565  1  0.304000  0.815100  0.099900  1.0
  H  H566  1  0.715200  0.511100  0.815100  1.0
  H  H567  1  0.696000  0.795900  0.511100  1.0
  H  H568  1  0.284800  0.099900  0.795900  1.0
  H  H569  1  0.724200  0.246200  0.935000  1.0
  H  H570  1  0.311200  0.522000  0.246200  1.0
  H  H571  1  0.275800  0.210800  0.522000  1.0
  H  H572  1  0.688800  0.935000  0.210800  1.0
  H  H573  1  0.275800  0.753800  0.065000  1.0
  H  H574  1  0.688800  0.478000  0.753800  1.0
  H  H575  1  0.724200  0.789200  0.478000  1.0
  H  H576  1  0.311200  0.065000  0.789200  1.0
  H  H577  1  0.751100  0.141800  0.988700  1.0
  H  H578  1  0.153100  0.390700  0.141800  1.0
  H  H579  1  0.248900  0.237600  0.390700  1.0
  H  H580  1  0.846900  0.988700  0.237600  1.0
  H  H581  1  0.248900  0.858200  0.011300  1.0
  H  H582  1  0.846900  0.609300  0.858200  1.0
  H  H583  1  0.751100  0.762400  0.609300  1.0
  H  H584  1  0.153100  0.011300  0.762400  1.0
  H  H585  1  0.827700  0.181700  0.016200  1.0
  H  H586  1  0.165500  0.354000  0.181700  1.0
  H  H587  1  0.172300  0.188500  0.354000  1.0
  H  H588  1  0.834500  0.016200  0.188500  1.0
  H  H589  1  0.172300  0.818300  0.983800  1.0
  H  H590  1  0.834500  0.646000  0.818300  1.0
  H  H591  1  0.827700  0.811500  0.646000  1.0
  H  H592  1  0.165500  0.983800  0.811500  1.0
  H  H593  1  0.776600  0.149800  0.949400  1.0
  H  H594  1  0.200400  0.373200  0.149800  1.0
  H  H595  1  0.223400  0.172800  0.373200  1.0
  H  H596  1  0.799600  0.949400  0.172800  1.0
  H  H597  1  0.223400  0.850200  0.050600  1.0
  H  H598  1  0.799600  0.626800  0.850200  1.0
  H  H599  1  0.776600  0.827200  0.626800  1.0
  H  H600  1  0.200400  0.050600  0.827200  1.0
  H  H601  1  0.362300  0.837500  0.313400  1.0
  H  H602  1  0.524100  0.475200  0.837500  1.0
  H  H603  1  0.637700  0.951100  0.475200  1.0
  H  H604  1  0.475900  0.313400  0.951100  1.0
  H  H605  1  0.637700  0.162500  0.686600  1.0
  H  H606  1  0.475900  0.524800  0.162500  1.0
  H  H607  1  0.362300  0.048900  0.524800  1.0
  H  H608  1  0.524100  0.686600  0.048900  1.0
  H  H609  1  0.338300  0.876100  0.287000  1.0
  H  H610  1  0.589100  0.537800  0.876100  1.0
  H  H611  1  0.661700  0.948700  0.537800  1.0
  H  H612  1  0.410900  0.287000  0.948700  1.0
  H  H613  1  0.661700  0.123900  0.713000  1.0
  H  H614  1  0.410900  0.462200  0.123900  1.0
  H  H615  1  0.338300  0.051300  0.462200  1.0
  H  H616  1  0.589100  0.713000  0.051300  1.0
  H  H617  1  0.366000  0.855400  0.262400  1.0
  H  H618  1  0.593000  0.489400  0.855400  1.0
  H  H619  1  0.634000  0.896400  0.489400  1.0
  H  H620  1  0.407000  0.262400  0.896400  1.0
  H  H621  1  0.634000  0.144600  0.737600  1.0
  H  H622  1  0.407000  0.510600  0.144600  1.0
  H  H623  1  0.366000  0.103600  0.510600  1.0
  H  H624  1  0.593000  0.737600  0.103600  1.0
  O  O625  1  0.017500  0.505500  0.305000  1
  O  O626  1  0.200500  0.488000  0.505500  1
  O  O627  1  0.982500  0.287500  0.488000  1
  O  O628  1  0.799500  0.305000  0.287500  1
  O  O629  1  0.982500  0.494500  0.695000  1
  O  O630  1  0.799500  0.512000  0.494500  1
  O  O631  1  0.017500  0.712500  0.512000  1
  O  O632  1  0.200500  0.695000  0.712500  1
  O  O633  1  0.218800  0.701400  0.517400  1
  O  O634  1  0.184000  0.482600  0.701400  1
  O  O635  1  0.781200  0.298600  0.482600  1
  O  O636  1  0.816000  0.517400  0.298600  1
  O  O637  1  0.471700  0.939700  0.532000  1.0
  O  O638  1  0.407700  0.468000  0.939700  1.0
  O  O639  1  0.528300  0.060300  0.468000  1.0
  O  O640  1  0.592300  0.532000  0.060300  1.0
  O  O641  1  0.097900  0.594560  0.190660  1.0
  O  O642  1  0.403900  0.496660  0.594560  1.0
  O  O643  1  0.902100  0.092760  0.496660  1.0
  O  O644  1  0.596100  0.190660  0.092760  1.0
  O  O645  1  0.902100  0.405440  0.809340  1.0
  O  O646  1  0.596100  0.503340  0.405440  1.0
  O  O647  1  0.097900  0.907240  0.503340  1.0
  O  O648  1  0.403900  0.809340  0.907240  1.0
  O  O649  1  0.091560  0.590920  0.265520  1.0
  O  O650  1  0.325400  0.499360  0.590920  1.0
  O  O651  1  0.908440  0.173960  0.499360  1.0
  O  O652  1  0.674600  0.265520  0.173960  1.0
  O  O653  1  0.908440  0.409080  0.734480  1.0
  O  O654  1  0.674600  0.500640  0.409080  1.0
  O  O655  1  0.091560  0.826040  0.500640  1.0
  O  O656  1  0.325400  0.734480  0.826040  1.0
  O  O657  1  0.338820  0.829720  0.442900  1.0
  O  O658  1  0.386820  0.490900  0.829720  1.0
  O  O659  1  0.661180  0.104080  0.490900  1.0
  O  O660  1  0.613180  0.442900  0.104080  1.0
  O  O661  1  0.661180  0.170280  0.557100  1.0
  O  O662  1  0.613180  0.509100  0.170280  1.0
  O  O663  1  0.338820  0.895920  0.509100  1.0
  O  O664  1  0.386820  0.557100  0.895920  1.0
  O  O665  1  0.256840  0.750820  0.436560  1.0
  O  O666  1  0.314260  0.493980  0.750820  1.0
  O  O667  1  0.743160  0.179720  0.493980  1.0
  O  O668  1  0.685740  0.436560  0.179720  1.0
  O  O669  1  0.743160  0.249180  0.563440  1.0
  O  O670  1  0.685740  0.506020  0.249180  1.0
  O  O671  1  0.256840  0.820280  0.506020  1.0
  O  O672  1  0.314260  0.563440  0.820280  1.0
  O  O673  1  0.954420  0.526920  0.191340  1.0
  O  O674  1  0.335580  0.572500  0.526920  1.0
  O  O675  1  0.045580  0.236920  0.572500  1.0
  O  O676  1  0.664420  0.191340  0.236920  1.0
  O  O677  1  0.045580  0.473080  0.808660  1.0
  O  O678  1  0.664420  0.427500  0.473080  1.0
  O  O679  1  0.954420  0.763080  0.427500  1.0
  O  O680  1  0.335580  0.808660  0.763080  1.0
  O  O681  1  0.961300  0.529810  0.118110  1.0
  O  O682  1  0.411700  0.568510  0.529810  1.0
  O  O683  1  0.038700  0.156810  0.568510  1.0
  O  O684  1  0.588300  0.118110  0.156810  1.0
  O  O685  1  0.038700  0.470190  0.881890  1.0
  O  O686  1  0.588300  0.431490  0.470190  1.0
  O  O687  1  0.961300  0.843190  0.431490  1.0
  O  O688  1  0.411700  0.881890  0.843190  1.0
  O  O689  1  0.714610  0.535040  0.106850  1.0
  O  O690  1  0.428190  0.820430  0.535040  1.0
  O  O691  1  0.285390  0.392240  0.820430  1.0
  O  O692  1  0.571810  0.106850  0.392240  1.0
  O  O693  1  0.285390  0.464960  0.893150  1.0
  O  O694  1  0.571810  0.179570  0.464960  1.0
  O  O695  1  0.714610  0.607760  0.179570  1.0
  O  O696  1  0.428190  0.893150  0.607760  1.0
  O  O697  1  0.788450  0.532420  0.186290  1.0
  O  O698  1  0.346130  0.743970  0.532420  1.0
  O  O699  1  0.211550  0.397840  0.743970  1.0
  O  O700  1  0.653870  0.186290  0.397840  1.0
  O  O701  1  0.211550  0.467580  0.813710  1.0
  O  O702  1  0.653870  0.256030  0.467580  1.0
  O  O703  1  0.788450  0.602160  0.256030  1.0
  O  O704  1  0.346130  0.813710  0.602160  1.0
  O  O705  1  0.956400  0.428610  0.115210  1.0
  O  O706  1  0.313400  0.472210  0.428610  1.0
  O  O707  1  0.043600  0.158810  0.472210  1.0
  O  O708  1  0.686600  0.115210  0.158810  1.0
  O  O709  1  0.043600  0.571390  0.884790  1.0
  O  O710  1  0.686600  0.527790  0.571390  1.0
  O  O711  1  0.956400  0.841190  0.527790  1.0
  O  O712  1  0.313400  0.884790  0.841190  1.0
  O  O713  1  0.948270  0.427840  0.188970  1.0
  O  O714  1  0.238870  0.479570  0.427840  1.0
  O  O715  1  0.051730  0.240700  0.479570  1.0
  O  O716  1  0.761130  0.188970  0.240700  1.0
  O  O717  1  0.051730  0.572160  0.811030  1.0
  O  O718  1  0.761130  0.520430  0.572160  1.0
  O  O719  1  0.948270  0.759300  0.520430  1.0
  O  O720  1  0.238870  0.811030  0.759300  1.0
  O  O721  1  0.770230  0.262500  0.176470  1.0
  O  O722  1  0.086030  0.492270  0.262500  1.0
  O  O723  1  0.229770  0.406240  0.492270  1.0
  O  O724  1  0.913970  0.176470  0.406240  1.0
  O  O725  1  0.229770  0.737500  0.823530  1.0
  O  O726  1  0.913970  0.507730  0.737500  1.0
  O  O727  1  0.770230  0.593760  0.507730  1.0
  O  O728  1  0.086030  0.823530  0.593760  1.0
  O  O729  1  0.694500  0.187850  0.095350  1.0
  O  O730  1  0.092500  0.493350  0.187850  1.0
  O  O731  1  0.305500  0.400850  0.493350  1.0
  O  O732  1  0.907500  0.095350  0.400850  1.0
  O  O733  1  0.305500  0.812150  0.904650  1.0
  O  O734  1  0.907500  0.506650  0.812150  1.0
  O  O735  1  0.694500  0.599150  0.506650  1.0
  O  O736  1  0.092500  0.904650  0.599150  1.0
  O  O737  1  0.030300  0.515800  0.074700  1.0
  O  O738  1  0.441100  0.485500  0.515800  1.0
  O  O739  1  0.969700  0.044400  0.485500  1.0
  O  O740  1  0.558900  0.074700  0.044400  1.0
  O  O741  1  0.969700  0.484200  0.925300  1.0
  O  O742  1  0.558900  0.514500  0.484200  1.0
  O  O743  1  0.030300  0.955600  0.514500  1.0
  O  O744  1  0.441100  0.925300  0.955600  1.0
