# generated using pymatgen
data_ZnH95C80(N4O)2
_symmetry_space_group_name_H-M   'P 1'
_cell_length_a   11.67600000
_cell_length_b   16.84900000
_cell_length_c   17.47800000
_cell_angle_alpha   116.30700000
_cell_angle_beta   100.20500000
_cell_angle_gamma   95.90400000
_symmetry_Int_Tables_number   1
_chemical_formula_structural   ZnH95C80(N4O)2
_chemical_formula_sum   'Zn2 H190 C160 N16 O4'
_cell_volume   2968.75501618
_cell_formula_units_Z   2
loop_
 _symmetry_equiv_pos_site_id
 _symmetry_equiv_pos_as_xyz
  1  'x, y, z'
loop_
 _atom_site_type_symbol
 _atom_site_label
 _atom_site_symmetry_multiplicity
 _atom_site_fract_x
 _atom_site_fract_y
 _atom_site_fract_z
 _atom_site_occupancy
  Zn  Zn1  1  0.302570  0.456320  0.162210  1.0
  Zn  Zn2  1  0.697430  0.543680  0.837790  1.0
  H  H3  1  0.065900  0.773200  0.709600  1
  H  H4  1  0.934100  0.226800  0.290400  1
  H  H5  1  0.164600  0.738100  0.664300  1
  H  H6  1  0.835400  0.261900  0.335700  1
  H  H7  1  0.268900  0.883700  0.736500  1
  H  H8  1  0.731100  0.116300  0.263500  1
  H  H9  1  0.166900  0.848700  0.653400  1
  H  H10  1  0.833100  0.151300  0.346600  1
  H  H11  1  0.095700  0.959900  0.703300  1
  H  H12  1  0.904300  0.040100  0.296700  1
  H  H13  1  0.226600  0.002400  0.761300  1
  H  H14  1  0.773400  0.997600  0.238700  1
  H  H15  1  0.128000  0.974500  0.800200  1
  H  H16  1  0.872000  0.025500  0.199800  1
  H  H17  1  0.589500  0.981000  0.890000  1
  H  H18  1  0.410500  0.019000  0.110000  1
  H  H19  1  0.674500  0.916100  0.852800  1
  H  H20  1  0.325500  0.083900  0.147200  1
  H  H21  1  0.652800  0.989200  0.025800  1
  H  H22  1  0.347200  0.010800  0.974200  1
  H  H23  1  0.742700  0.927500  0.991200  1
  H  H24  1  0.257300  0.072500  0.008800  1
  H  H25  1  0.489900  0.863600  0.933400  1
  H  H26  1  0.510100  0.136400  0.066600  1
  H  H27  1  0.579600  0.801700  0.897900  1
  H  H28  1  0.420400  0.198300  0.102100  1
  H  H29  1  0.526000  0.765200  0.993600  1
  H  H30  1  0.474000  0.234800  0.006400  1
  H  H31  1  0.529900  0.865300  0.060800  1
  H  H32  1  0.470100  0.134700  0.939200  1
  H  H33  1  0.698600  0.776400  0.080100  1
  H  H34  1  0.301400  0.223600  0.919900  1
  H  H35  1  0.715800  0.881800  0.133900  1
  H  H36  1  0.284200  0.118200  0.866100  1
  H  H37  1  0.758900  0.838600  0.047000  1
  H  H38  1  0.241100  0.161400  0.953000  1
  H  H39  1  0.642000  0.215400  0.542200  1
  H  H40  1  0.358000  0.784600  0.457800  1
  H  H41  1  0.680600  0.153200  0.457400  1
  H  H42  1  0.319400  0.846800  0.542600  1
  H  H43  1  0.559700  0.065100  0.501100  1
  H  H44  1  0.440300  0.934900  0.498900  1
  H  H45  1  0.454900  0.112600  0.488700  1
  H  H46  1  0.545100  0.887400  0.511300  1
  H  H47  1  0.543400  0.005300  0.348600  1
  H  H48  1  0.456600  0.994700  0.651400  1
  H  H49  1  0.426500  0.042100  0.342000  1
  H  H50  1  0.573500  0.957900  0.658000  1
  H  H51  1  0.460900  0.901900  0.381100  1
  H  H52  1  0.539100  0.098100  0.618900  1
  H  H53  1  0.350700  0.946600  0.397200  1
  H  H54  1  0.649300  0.053400  0.602800  1
  H  H55  1  0.299100  0.815400  0.269500  1
  H  H56  1  0.700900  0.184600  0.730500  1
  H  H57  1  0.394200  0.851500  0.233200  1
  H  H58  1  0.605800  0.148500  0.766800  1
  H  H59  1  0.283500  0.896200  0.249500  1
  H  H60  1  0.716500  0.103800  0.750500  1
  H  H61  1  0.873500  0.991900  0.408100  1.0
  H  H62  1  0.126500  0.008100  0.591900  1.0
  H  H63  1  0.930100  0.206300  0.560900  1.0
  H  H64  1  0.069900  0.793700  0.439100  1.0
  H  H65  1  0.544700  0.734700  0.177000  1.0
  H  H66  1  0.455300  0.265300  0.823000  1.0
  H  H67  1  0.384300  0.676100  0.040900  1.0
  H  H68  1  0.615700  0.323900  0.959100  1.0
  H  H69  1  0.050200  0.373200  0.852600  1.0
  H  H70  1  0.949800  0.626800  0.147400  1.0
  H  H71  1  0.960000  0.254100  0.883500  1.0
  H  H72  1  0.040000  0.745900  0.116500  1.0
  H  H73  1  0.058500  0.179900  0.151300  1.0
  H  H74  1  0.941500  0.820100  0.848700  1.0
  H  H75  1  0.234700  0.220800  0.270600  1.0
  H  H76  1  0.765300  0.779200  0.729400  1.0
  H  H77  1  0.638100  0.471000  0.407200  1.0
  H  H78  1  0.361900  0.529000  0.592800  1.0
  H  H79  1  0.708800  0.601800  0.389600  1.0
  H  H80  1  0.291200  0.398200  0.610400  1.0
  H  H81  1  0.766400  0.648900  0.221100  1.0
  H  H82  1  0.233600  0.351100  0.778900  1.0
  H  H83  1  0.906800  0.778900  0.275200  1.0
  H  H84  1  0.093200  0.221100  0.724800  1.0
  H  H85  1  0.720100  0.914400  0.443200  1.0
  H  H86  1  0.279900  0.085600  0.556800  1.0
  H  H87  1  0.580400  0.783200  0.392100  1.0
  H  H88  1  0.419600  0.216800  0.607900  1.0
  H  H89  1  0.204100  0.014700  0.348200  1.0
  H  H90  1  0.795900  0.985300  0.651800  1.0
  H  H91  1  0.284800  0.158100  0.372900  1.0
  H  H92  1  0.715200  0.841900  0.627100  1.0
  H  H93  1  0.193300  0.277800  0.452100  1.0
  H  H94  1  0.806700  0.722200  0.547900  1.0
  H  H95  1  0.875400  0.262200  0.701600  1.0
  H  H96  1  0.124600  0.737800  0.298400  1.0
  H  H97  1  0.212600  0.634800  0.201600  1.0
  H  H98  1  0.787400  0.365200  0.798400  1.0
  H  H99  1  0.218900  0.497400  0.330800  1.0
  H  H100  1  0.781100  0.502600  0.669200  1.0
  H  H101  1  0.872200  0.407200  0.570300  1.0
  H  H102  1  0.127800  0.592800  0.429700  1.0
  H  H103  1  0.376300  0.546300  0.898500  1.0
  H  H104  1  0.623700  0.453700  0.101500  1.0
  H  H105  1  0.336000  0.593200  0.794500  1.0
  H  H106  1  0.664000  0.406800  0.205500  1.0
  H  H107  1  0.995600  0.576000  0.804600  1.0
  H  H108  1  0.004400  0.424000  0.195400  1.0
  H  H109  1  0.035300  0.531400  0.910700  1.0
  H  H110  1  0.964700  0.468600  0.089300  1.0
  H  H111  1  0.837200  0.267700  0.016600  1.0
  H  H112  1  0.162800  0.732300  0.983400  1.0
  H  H113  1  0.676200  0.152500  0.952500  1.0
  H  H114  1  0.323800  0.847500  0.047500  1.0
  H  H115  1  0.886800  0.973700  0.899800  1.0
  H  H116  1  0.113200  0.026300  0.100200  1.0
  H  H117  1  0.049000  0.089200  0.969600  1.0
  H  H118  1  0.951000  0.910800  0.030400  1.0
  H  H119  1  0.432200  0.396100  0.464500  1.0
  H  H120  1  0.567800  0.603900  0.535500  1.0
  H  H121  1  0.511700  0.320500  0.535500  1.0
  H  H122  1  0.488300  0.679500  0.464500  1.0
  H  H123  1  0.594600  0.150100  0.318800  1.0
  H  H124  1  0.405400  0.849900  0.681200  1.0
  H  H125  1  0.514400  0.224200  0.245100  1.0
  H  H126  1  0.485600  0.775800  0.754900  1.0
  H  H127  1  0.052100  0.615600  0.701100  1.0
  H  H128  1  0.947900  0.384400  0.298900  1.0
  H  H129  1  0.176500  0.604600  0.680300  1.0
  H  H130  1  0.823500  0.395400  0.319700  1.0
  H  H131  1  0.142600  0.761700  0.823700  1.0
  H  H132  1  0.857400  0.238300  0.176300  1.0
  H  H133  1  0.264200  0.750800  0.798600  1.0
  H  H134  1  0.735800  0.249200  0.201400  1.0
  H  H135  1  0.066400  0.769500  0.696400  1.0
  H  H136  1  0.933600  0.230500  0.303600  1.0
  H  H137  1  0.188100  0.757800  0.670400  1.0
  H  H138  1  0.811900  0.242200  0.329600  1.0
  H  H139  1  0.253500  0.896400  0.830700  1.0
  H  H140  1  0.746500  0.103600  0.169300  1.0
  H  H141  1  0.241200  0.906600  0.744300  1.0
  H  H142  1  0.758800  0.093400  0.255700  1.0
  H  H143  1  0.038800  0.901600  0.736000  1.0
  H  H144  1  0.961200  0.098400  0.264000  1.0
  H  H145  1  0.118300  0.986500  0.820500  1.0
  H  H146  1  0.881700  0.013500  0.179500  1.0
  H  H147  1  0.060300  0.902700  0.827700  1.0
  H  H148  1  0.939700  0.097300  0.172300  1.0
  H  H149  1  0.592200  0.997100  0.834200  1.0
  H  H150  1  0.407800  0.002900  0.165800  1.0
  H  H151  1  0.667400  0.921900  0.821400  1.0
  H  H152  1  0.332600  0.078100  0.178600  1.0
  H  H153  1  0.511400  0.917800  0.893800  1.0
  H  H154  1  0.488600  0.082200  0.106200  1.0
  H  H155  1  0.586200  0.007900  0.974500  1.0
  H  H156  1  0.413800  0.992100  0.025500  1.0
  H  H157  1  0.672300  0.842500  0.914400  1.0
  H  H158  1  0.327700  0.157500  0.085600  1.0
  H  H159  1  0.738600  0.932200  0.999300  1.0
  H  H160  1  0.261400  0.067800  0.000700  1.0
  H  H161  1  0.518800  0.837400  0.984400  1.0
  H  H162  1  0.481200  0.162600  0.015600  1.0
  H  H163  1  0.600000  0.919300  0.070700  1.0
  H  H164  1  0.400000  0.080700  0.929300  1.0
  H  H165  1  0.644200  0.738900  0.990800  1.0
  H  H166  1  0.355800  0.261100  0.009200  1.0
  H  H167  1  0.635700  0.793700  0.088500  1.0
  H  H168  1  0.364300  0.206300  0.911500  1.0
  H  H169  1  0.748100  0.819200  0.060100  1.0
  H  H170  1  0.251900  0.180800  0.939900  1.0
  H  H171  1  0.574800  0.181800  0.526600  1.0
  H  H172  1  0.425200  0.818200  0.473400  1.0
  H  H173  1  0.697000  0.200900  0.506300  1.0
  H  H174  1  0.303000  0.799100  0.493700  1.0
  H  H175  1  0.640600  0.063000  0.371800  1.0
  H  H176  1  0.359400  0.937000  0.628200  1.0
  H  H177  1  0.638500  0.044000  0.451400  1.0
  H  H178  1  0.361500  0.956000  0.548600  1.0
  H  H179  1  0.435600  0.047500  0.343500  1.0
  H  H180  1  0.564400  0.952500  0.656500  1.0
  H  H181  1  0.436600  0.023000  0.420000  1.0
  H  H182  1  0.563400  0.977000  0.580000  1.0
  H  H183  1  0.498300  0.917100  0.264100  1.0
  H  H184  1  0.501700  0.082900  0.735900  1.0
  H  H185  1  0.505000  0.893100  0.341200  1.0
  H  H186  1  0.495000  0.106900  0.658800  1.0
  H  H187  1  0.341800  0.806800  0.231600  1.0
  H  H188  1  0.658200  0.193200  0.768400  1.0
  H  H189  1  0.296400  0.893300  0.237600  1.0
  H  H190  1  0.703600  0.106700  0.762400  1.0
  H  H191  1  0.302500  0.870200  0.315600  1.0
  H  H192  1  0.697500  0.129800  0.684400  1.0
  C  C193  1  0.183000  0.869600  0.716000  1
  C  C194  1  0.817000  0.130400  0.284000  1
  C  C195  1  0.156000  0.959200  0.748000  1
  C  C196  1  0.844000  0.040800  0.252000  1
  C  C197  1  0.667000  0.968100  0.904900  1
  C  C198  1  0.333000  0.031900  0.095100  1
  C  C199  1  0.665000  0.939000  0.974300  1
  C  C200  1  0.335000  0.061000  0.025700  1
  C  C201  1  0.568000  0.852400  0.949400  1
  C  C202  1  0.432000  0.147600  0.050600  1
  C  C203  1  0.571000  0.827000  0.019900  1
  C  C204  1  0.429000  0.173000  0.980100  1
  C  C205  1  0.699000  0.831000  0.076000  1
  C  C206  1  0.301000  0.169000  0.924000  1
  C  C207  1  0.521800  0.090900  0.466100  1
  C  C208  1  0.478200  0.909100  0.533900  1
  C  C209  1  0.406500  0.932100  0.360400  1
  C  C210  1  0.593500  0.067900  0.639600  1
  C  C211  1  0.556500  0.620500  0.256800  1.0
  C  C212  1  0.443500  0.379500  0.743200  1.0
  C  C213  1  0.480200  0.613600  0.181600  1.0
  C  C214  1  0.519800  0.386400  0.818400  1.0
  C  C215  1  0.489200  0.680500  0.150900  1.0
  C  C216  1  0.510800  0.319500  0.849100  1.0
  C  C217  1  0.400100  0.648200  0.076000  1.0
  C  C218  1  0.599900  0.351800  0.924000  1.0
  C  C219  1  0.334500  0.562800  0.061000  1.0
  C  C220  1  0.665500  0.437200  0.939000  1.0
  C  C221  1  0.238900  0.507300  0.989200  1.0
  C  C222  1  0.761100  0.492700  0.010800  1.0
  C  C223  1  0.166500  0.428800  0.979700  1.0
  C  C224  1  0.833500  0.571200  0.020300  1.0
  C  C225  1  0.073000  0.368500  0.903900  1.0
  C  C226  1  0.927000  0.631500  0.096100  1.0
  C  C227  1  0.023100  0.302400  0.920500  1.0
  C  C228  1  0.976900  0.697600  0.079500  1.0
  C  C229  1  0.089300  0.323500  0.007500  1.0
  C  C230  1  0.910700  0.676500  0.992500  1.0
  C  C231  1  0.068800  0.269600  0.048700  1.0
  C  C232  1  0.931200  0.730400  0.951300  1.0
  C  C233  1  0.143000  0.279800  0.125700  1.0
  C  C234  1  0.857000  0.720200  0.874300  1.0
  C  C235  1  0.125500  0.224400  0.167500  1.0
  C  C236  1  0.874500  0.775600  0.832500  1.0
  C  C237  1  0.221400  0.247300  0.233900  1.0
  C  C238  1  0.778600  0.752700  0.766100  1.0
  C  C239  1  0.300700  0.322200  0.236900  1.0
  C  C240  1  0.699300  0.677800  0.763100  1.0
  C  C241  1  0.411900  0.363100  0.295300  1.0
  C  C242  1  0.588100  0.636900  0.704700  1.0
  C  C243  1  0.486600  0.441200  0.305600  1.0
  C  C244  1  0.513400  0.558800  0.694400  1.0
  C  C245  1  0.598800  0.487700  0.367200  1.0
  C  C246  1  0.401200  0.512300  0.632800  1.0
  C  C247  1  0.638100  0.559500  0.357600  1.0
  C  C248  1  0.361900  0.440500  0.642400  1.0
  C  C249  1  0.550500  0.558400  0.289000  1.0
  C  C250  1  0.449500  0.441600  0.711000  1.0
  C  C251  1  0.658000  0.701500  0.300000  1.0
  C  C252  1  0.342000  0.298500  0.700000  1.0
  C  C253  1  0.756600  0.702300  0.266100  1.0
  C  C254  1  0.243400  0.297700  0.733900  1.0
  C  C255  1  0.840000  0.780000  0.297500  1.0
  C  C256  1  0.160000  0.220000  0.702500  1.0
  C  C257  1  0.824200  0.861400  0.363100  1.0
  C  C258  1  0.175800  0.138600  0.636900  1.0
  C  C259  1  0.729100  0.860900  0.398000  1.0
  C  C260  1  0.270900  0.139100  0.602000  1.0
  C  C261  1  0.645100  0.782200  0.367600  1.0
  C  C262  1  0.354900  0.217800  0.632400  1.0
  C  C263  1  0.017900  0.957500  0.390300  1.0
  C  C264  1  0.982100  0.042500  0.609700  1.0
  C  C265  1  0.074000  0.049700  0.407500  1.0
  C  C266  1  0.926000  0.950300  0.592500  1.0
  C  C267  1  0.170300  0.063400  0.378500  1.0
  C  C268  1  0.829700  0.936600  0.621500  1.0
  C  C269  1  0.219000  0.148000  0.393000  1.0
  C  C270  1  0.781000  0.852000  0.607000  1.0
  C  C271  1  0.164200  0.218900  0.440100  1.0
  C  C272  1  0.835800  0.781100  0.559900  1.0
  C  C273  1  0.068600  0.200100  0.467700  1.0
  C  C274  1  0.931400  0.799900  0.532300  1.0
  C  C275  1  0.014700  0.279000  0.522200  1.0
  C  C276  1  0.985300  0.721000  0.477800  1.0
  C  C277  1  0.888100  0.324600  0.627200  1.0
  C  C278  1  0.111900  0.675400  0.372800  1.0
  C  C279  1  0.859100  0.311900  0.694800  1.0
  C  C280  1  0.140900  0.688100  0.305200  1.0
  C  C281  1  0.194600  0.626000  0.247400  1.0
  C  C282  1  0.805400  0.374000  0.752600  1.0
  C  C283  1  0.197200  0.545600  0.323400  1.0
  C  C284  1  0.802800  0.454400  0.676600  1.0
  C  C285  1  0.857000  0.397500  0.616300  1.0
  C  C286  1  0.143000  0.602500  0.383700  1.0
  C  C287  1  0.209900  0.533100  0.918400  1.0
  C  C288  1  0.790100  0.466900  0.081600  1.0
  C  C289  1  0.299500  0.552800  0.880600  1.0
  C  C290  1  0.700500  0.447200  0.119400  1.0
  C  C291  1  0.275200  0.581300  0.818200  1.0
  C  C292  1  0.724800  0.418700  0.181800  1.0
  C  C293  1  0.163200  0.592900  0.789600  1.0
  C  C294  1  0.836800  0.407100  0.210400  1.0
  C  C295  1  0.072700  0.571400  0.824400  1.0
  C  C296  1  0.927300  0.428600  0.175600  1.0
  C  C297  1  0.096700  0.543600  0.887700  1.0
  C  C298  1  0.903300  0.456400  0.112300  1.0
  C  C299  1  0.963500  0.193200  0.003200  1.0
  C  C300  1  0.036500  0.806800  0.996800  1.0
  C  C301  1  0.848600  0.208600  0.995000  1.0
  C  C302  1  0.151400  0.791400  0.005000  1.0
  C  C303  1  0.751400  0.138800  0.955700  1.0
  C  C304  1  0.248600  0.861200  0.044300  1.0
  C  C305  1  0.759900  0.048500  0.920600  1.0
  C  C306  1  0.240100  0.951500  0.079400  1.0
  C  C307  1  0.875800  0.032900  0.925200  1.0
  C  C308  1  0.124200  0.967100  0.074800  1.0
  C  C309  1  0.973600  0.102700  0.966300  1.0
  C  C310  1  0.026400  0.897300  0.033700  1.0
  C  C311  1  0.462400  0.318800  0.346300  1.0
  C  C312  1  0.537600  0.681200  0.653700  1.0
  C  C313  1  0.463900  0.346200  0.434000  1.0
  C  C314  1  0.536100  0.653800  0.566000  1.0
  C  C315  1  0.511900  0.300600  0.476700  1.0
  C  C316  1  0.488100  0.699400  0.523300  1.0
  C  C317  1  0.560900  0.225500  0.433700  1.0
  C  C318  1  0.439100  0.774500  0.566300  1.0
  C  C319  1  0.561200  0.199300  0.348400  1.0
  C  C320  1  0.438800  0.800700  0.651600  1.0
  C  C321  1  0.513000  0.244100  0.303700  1.0
  C  C322  1  0.487000  0.755900  0.696300  1.0
  C  C323  1  0.137000  0.631400  0.727400  1.0
  C  C324  1  0.863000  0.368600  0.272600  1.0
  C  C325  1  0.178800  0.736200  0.774500  1.0
  C  C326  1  0.821200  0.263800  0.225500  1.0
  C  C327  1  0.151700  0.781400  0.719700  1.0
  C  C328  1  0.848300  0.218600  0.280300  1.0
  C  C329  1  0.199400  0.883000  0.775600  1.0
  C  C330  1  0.800600  0.117000  0.224400  1.0
  C  C331  1  0.095400  0.921700  0.791300  1.0
  C  C332  1  0.904600  0.078300  0.208700  1.0
  C  C333  1  0.647400  0.975200  0.864900  1.0
  C  C334  1  0.352600  0.024800  0.135100  1.0
  C  C335  1  0.591700  0.952100  0.925400  1.0
  C  C336  1  0.408300  0.047900  0.074600  1.0
  C  C337  1  0.660600  0.895700  0.963400  1.0
  C  C338  1  0.339400  0.104300  0.036600  1.0
  C  C339  1  0.600700  0.866400  0.016800  1.0
  C  C340  1  0.399300  0.133600  0.983200  1.0
  C  C341  1  0.663500  0.797600  0.041500  1.0
  C  C342  1  0.336500  0.202400  0.958500  1.0
  C  C343  1  0.613100  0.174200  0.479600  1.0
  C  C344  1  0.386900  0.825800  0.520400  1.0
  C  C345  1  0.599300  0.070200  0.417300  1.0
  C  C346  1  0.400700  0.929800  0.582700  1.0
  C  C347  1  0.476200  0.018700  0.374400  1.0
  C  C348  1  0.523800  0.981300  0.625600  1.0
  C  C349  1  0.461400  0.921200  0.310800  1.0
  C  C350  1  0.538600  0.078800  0.689200  1.0
  C  C351  1  0.340200  0.868300  0.270500  1.0
  C  C352  1  0.659800  0.131700  0.729500  1.0
  N  N353  1  0.383900  0.544800  0.127000  1.0
  N  N354  1  0.616100  0.455200  0.873000  1.0
  N  N355  1  0.176700  0.400900  0.042100  1.0
  N  N356  1  0.823300  0.599100  0.957900  1.0
  N  N357  1  0.249300  0.341800  0.173600  1.0
  N  N358  1  0.750700  0.658200  0.826400  1.0
  N  N359  1  0.457700  0.486000  0.257700  1.0
  N  N360  1  0.542300  0.514000  0.742300  1.0
  N  N361  1  0.903500  0.944200  0.389900  1.0
  N  N362  1  0.096500  0.055800  0.610100  1.0
  N  N363  1  0.020400  0.117600  0.453500  1.0
  N  N364  1  0.979600  0.882400  0.546500  1.0
  N  N365  1  0.943200  0.260600  0.568100  1.0
  N  N366  1  0.056800  0.739400  0.431900  1.0
  N  N367  1  0.221300  0.553900  0.254800  1.0
  N  N368  1  0.778700  0.446100  0.745200  1.0
  O  O369  1  0.079300  0.897500  0.375300  1.0
  O  O370  1  0.920700  0.102500  0.624700  1.0
  O  O371  1  0.035200  0.350600  0.521300  1.0
  O  O372  1  0.964800  0.649400  0.478700  1.0
