# generated using pymatgen
data_Zn2H106C81N7O4
_symmetry_space_group_name_H-M   'P 1'
_cell_length_a   13.07600000
_cell_length_b   17.59880000
_cell_length_c   40.23840000
_cell_angle_alpha   97.43020000
_cell_angle_beta   90.00000000
_cell_angle_gamma   90.00000000
_symmetry_Int_Tables_number   1
_chemical_formula_structural   Zn2H106C81N7O4
_chemical_formula_sum   'Zn8 H424 C324 N28 O16'
_cell_volume   9181.98467629
_cell_formula_units_Z   4
loop_
 _symmetry_equiv_pos_site_id
 _symmetry_equiv_pos_as_xyz
  1  'x, y, z'
loop_
 _atom_site_type_symbol
 _atom_site_label
 _atom_site_symmetry_multiplicity
 _atom_site_fract_x
 _atom_site_fract_y
 _atom_site_fract_z
 _atom_site_occupancy
  Zn  Zn1  1  0.373030  0.792186  0.908256  1.0
  Zn  Zn2  1  0.873030  0.207814  0.591744  1.0
  Zn  Zn3  1  0.626970  0.207814  0.091744  1.0
  Zn  Zn4  1  0.126970  0.792186  0.408256  1.0
  Zn  Zn5  1  0.410150  0.345014  0.833576  1.0
  Zn  Zn6  1  0.910150  0.654986  0.666424  1.0
  Zn  Zn7  1  0.589850  0.654986  0.166424  1.0
  Zn  Zn8  1  0.089850  0.345014  0.333576  1.0
  H  H9  1  0.890800  0.677500  0.757600  1
  H  H10  1  0.390800  0.322500  0.742400  1
  H  H11  1  0.109200  0.322500  0.242400  1
  H  H12  1  0.609200  0.677500  0.257600  1
  H  H13  1  0.790900  0.686200  0.735400  1
  H  H14  1  0.290900  0.313800  0.764600  1
  H  H15  1  0.209100  0.313800  0.264600  1
  H  H16  1  0.709100  0.686200  0.235400  1
  H  H17  1  0.843600  0.604000  0.735200  1
  H  H18  1  0.343600  0.396000  0.764800  1
  H  H19  1  0.156400  0.396000  0.264800  1
  H  H20  1  0.656400  0.604000  0.235200  1
  H  H21  1  0.848000  0.297000  0.929100  1
  H  H22  1  0.348000  0.703000  0.570900  1
  H  H23  1  0.152000  0.703000  0.070900  1
  H  H24  1  0.652000  0.297000  0.429100  1
  H  H25  1  0.950500  0.340700  0.920900  1
  H  H26  1  0.450500  0.659300  0.579100  1
  H  H27  1  0.049500  0.659300  0.079100  1
  H  H28  1  0.549500  0.340700  0.420900  1
  H  H29  1  0.956800  0.257100  0.932400  1
  H  H30  1  0.456800  0.742900  0.567600  1
  H  H31  1  0.043200  0.742900  0.067600  1
  H  H32  1  0.543200  0.257100  0.432400  1
  H  H33  1  0.834400  0.284900  0.841300  1
  H  H34  1  0.334400  0.715100  0.658700  1
  H  H35  1  0.165600  0.715100  0.158700  1
  H  H36  1  0.665600  0.284900  0.341300  1
  H  H37  1  0.848600  0.356000  0.870000  1
  H  H38  1  0.348600  0.644000  0.630000  1
  H  H39  1  0.151400  0.644000  0.130000  1
  H  H40  1  0.651400  0.356000  0.370000  1
  H  H41  1  0.763300  0.292500  0.873900  1
  H  H42  1  0.263300  0.707500  0.626100  1
  H  H43  1  0.236700  0.707500  0.126100  1
  H  H44  1  0.736700  0.292500  0.373900  1
  H  H45  1  0.842900  0.158100  0.858900  1
  H  H46  1  0.342900  0.841900  0.641100  1
  H  H47  1  0.157100  0.841900  0.141100  1
  H  H48  1  0.657100  0.158100  0.358900  1
  H  H49  1  0.824000  0.168700  0.898600  1
  H  H50  1  0.324000  0.831300  0.601400  1
  H  H51  1  0.176000  0.831300  0.101400  1
  H  H52  1  0.676000  0.168700  0.398600  1
  H  H53  1  0.932800  0.139700  0.883700  1
  H  H54  1  0.432800  0.860300  0.616300  1
  H  H55  1  0.067200  0.860300  0.116300  1
  H  H56  1  0.567200  0.139700  0.383700  1
  H  H57  1  0.733700  0.004400  0.878000  1.0
  H  H58  1  0.233700  0.995600  0.622000  1.0
  H  H59  1  0.266300  0.995600  0.122000  1.0
  H  H60  1  0.766300  0.004400  0.378000  1.0
  H  H61  1  0.714700  0.784500  0.837400  1.0
  H  H62  1  0.214700  0.215500  0.662600  1.0
  H  H63  1  0.285300  0.215500  0.162600  1.0
  H  H64  1  0.785300  0.784500  0.337400  1.0
  H  H65  1  0.584100  0.708500  0.846800  1.0
  H  H66  1  0.084100  0.291500  0.653200  1.0
  H  H67  1  0.415900  0.291500  0.153200  1.0
  H  H68  1  0.915900  0.708500  0.346800  1.0
  H  H69  1  0.552000  0.592700  0.844500  1.0
  H  H70  1  0.052000  0.407300  0.655500  1.0
  H  H71  1  0.448000  0.407300  0.155500  1.0
  H  H72  1  0.948000  0.592700  0.344500  1.0
  H  H73  1  0.212200  0.557500  0.875800  1.0
  H  H74  1  0.712200  0.442500  0.624200  1.0
  H  H75  1  0.787800  0.442500  0.124200  1.0
  H  H76  1  0.287800  0.557500  0.375800  1.0
  H  H77  1  0.141000  0.655500  0.893300  1.0
  H  H78  1  0.641000  0.344500  0.606700  1.0
  H  H79  1  0.859000  0.344500  0.106700  1.0
  H  H80  1  0.359000  0.655500  0.393300  1.0
  H  H81  1  0.994000  0.697800  0.918800  1.0
  H  H82  1  0.494000  0.302200  0.581200  1.0
  H  H83  1  0.006000  0.302200  0.081200  1.0
  H  H84  1  0.506000  0.697800  0.418800  1.0
  H  H85  1  0.946100  0.918500  0.953800  1.0
  H  H86  1  0.446100  0.081500  0.546200  1.0
  H  H87  1  0.053900  0.081500  0.046200  1.0
  H  H88  1  0.553900  0.918500  0.453800  1.0
  H  H89  1  0.436300  0.088700  0.919700  1.0
  H  H90  1  0.936300  0.911300  0.580300  1.0
  H  H91  1  0.563700  0.911300  0.080300  1.0
  H  H92  1  0.063700  0.088700  0.419700  1.0
  H  H93  1  0.417100  0.001800  0.903800  1.0
  H  H94  1  0.917100  0.998200  0.596200  1.0
  H  H95  1  0.582900  0.998200  0.096200  1.0
  H  H96  1  0.082900  0.001800  0.403800  1.0
  H  H97  1  0.471200  0.060300  0.882100  1.0
  H  H98  1  0.971200  0.939700  0.617900  1.0
  H  H99  1  0.528800  0.939700  0.117900  1.0
  H  H100  1  0.028800  0.060300  0.382100  1.0
  H  H101  1  0.610400  0.136700  0.931900  1.0
  H  H102  1  0.110400  0.863300  0.568100  1.0
  H  H103  1  0.389600  0.863300  0.068100  1.0
  H  H104  1  0.889600  0.136700  0.431900  1.0
  H  H105  1  0.648200  0.105200  0.894800  1.0
  H  H106  1  0.148200  0.894800  0.605200  1.0
  H  H107  1  0.351800  0.894800  0.105200  1.0
  H  H108  1  0.851800  0.105200  0.394800  1.0
  H  H109  1  0.706900  0.080500  0.926700  1.0
  H  H110  1  0.206900  0.919500  0.573300  1.0
  H  H111  1  0.293100  0.919500  0.073300  1.0
  H  H112  1  0.793100  0.080500  0.426700  1.0
  H  H113  1  0.625200  0.987700  0.961000  1.0
  H  H114  1  0.125200  0.012300  0.539000  1.0
  H  H115  1  0.374800  0.012300  0.039000  1.0
  H  H116  1  0.874800  0.987700  0.461000  1.0
  H  H117  1  0.507400  0.965900  0.954800  1.0
  H  H118  1  0.007400  0.034100  0.545200  1.0
  H  H119  1  0.492600  0.034100  0.045200  1.0
  H  H120  1  0.992600  0.965900  0.454800  1.0
  H  H121  1  0.539000  0.052300  0.968100  1.0
  H  H122  1  0.039000  0.947700  0.531900  1.0
  H  H123  1  0.461000  0.947700  0.031900  1.0
  H  H124  1  0.961000  0.052300  0.468100  1.0
  H  H125  1  0.814600  0.017900  0.828400  1.0
  H  H126  1  0.314600  0.982100  0.671600  1.0
  H  H127  1  0.185400  0.982100  0.171600  1.0
  H  H128  1  0.685400  0.017900  0.328400  1.0
  H  H129  1  0.771800  0.957800  0.798300  1.0
  H  H130  1  0.271800  0.042200  0.701700  1.0
  H  H131  1  0.228200  0.042200  0.201700  1.0
  H  H132  1  0.728200  0.957800  0.298300  1.0
  H  H133  1  0.891800  0.974900  0.801300  1.0
  H  H134  1  0.391800  0.025100  0.698700  1.0
  H  H135  1  0.108200  0.025100  0.198700  1.0
  H  H136  1  0.608200  0.974900  0.301300  1.0
  H  H137  1  0.989500  0.936100  0.848500  1.0
  H  H138  1  0.489500  0.063900  0.651500  1.0
  H  H139  1  0.010500  0.063900  0.151500  1.0
  H  H140  1  0.510500  0.936100  0.348500  1.0
  H  H141  1  0.939300  0.882300  0.873200  1.0
  H  H142  1  0.439300  0.117700  0.626800  1.0
  H  H143  1  0.060700  0.117700  0.126800  1.0
  H  H144  1  0.560700  0.882300  0.373200  1.0
  H  H145  1  0.908000  0.970800  0.876100  1.0
  H  H146  1  0.408000  0.029200  0.623900  1.0
  H  H147  1  0.092000  0.029200  0.123900  1.0
  H  H148  1  0.592000  0.970800  0.376100  1.0
  H  H149  1  0.811400  0.821200  0.795400  1.0
  H  H150  1  0.311400  0.178800  0.704600  1.0
  H  H151  1  0.188600  0.178800  0.204600  1.0
  H  H152  1  0.688600  0.821200  0.295400  1.0
  H  H153  1  0.873400  0.788800  0.824800  1.0
  H  H154  1  0.373400  0.211200  0.675200  1.0
  H  H155  1  0.126600  0.211200  0.175200  1.0
  H  H156  1  0.626600  0.788800  0.324800  1.0
  H  H157  1  0.930900  0.839200  0.800200  1.0
  H  H158  1  0.430900  0.160800  0.699800  1.0
  H  H159  1  0.069100  0.160800  0.199800  1.0
  H  H160  1  0.569100  0.839200  0.300200  1.0
  H  H161  1  0.873900  0.804200  0.999700  1.0
  H  H162  1  0.373900  0.195800  0.500300  1.0
  H  H163  1  0.126100  0.195800  0.000300  1.0
  H  H164  1  0.626100  0.804200  0.499700  1.0
  H  H165  1  0.891900  0.716700  0.984300  1.0
  H  H166  1  0.391900  0.283300  0.515700  1.0
  H  H167  1  0.108100  0.283300  0.015700  1.0
  H  H168  1  0.608100  0.716700  0.484300  1.0
  H  H169  1  0.778100  0.748500  0.991100  1.0
  H  H170  1  0.278100  0.251500  0.508900  1.0
  H  H171  1  0.221900  0.251500  0.008900  1.0
  H  H172  1  0.721900  0.748500  0.491100  1.0
  H  H173  1  0.729500  0.706100  0.931200  1.0
  H  H174  1  0.229500  0.293900  0.568800  1.0
  H  H175  1  0.270500  0.293900  0.068800  1.0
  H  H176  1  0.770500  0.706100  0.431200  1.0
  H  H177  1  0.842200  0.672300  0.924300  1.0
  H  H178  1  0.342200  0.327700  0.575700  1.0
  H  H179  1  0.157800  0.327700  0.075700  1.0
  H  H180  1  0.657800  0.672300  0.424300  1.0
  H  H181  1  0.796800  0.732300  0.901500  1.0
  H  H182  1  0.296800  0.267700  0.598500  1.0
  H  H183  1  0.203200  0.267700  0.098500  1.0
  H  H184  1  0.703200  0.732300  0.401500  1.0
  H  H185  1  0.701400  0.835500  0.952700  1.0
  H  H186  1  0.201400  0.164500  0.547300  1.0
  H  H187  1  0.298600  0.164500  0.047300  1.0
  H  H188  1  0.798600  0.835500  0.452700  1.0
  H  H189  1  0.773400  0.869200  0.926000  1.0
  H  H190  1  0.273400  0.130800  0.574000  1.0
  H  H191  1  0.226600  0.130800  0.074000  1.0
  H  H192  1  0.726600  0.869200  0.426000  1.0
  H  H193  1  0.792000  0.893200  0.965200  1.0
  H  H194  1  0.292000  0.106800  0.534800  1.0
  H  H195  1  0.208000  0.106800  0.034800  1.0
  H  H196  1  0.708000  0.893200  0.465200  1.0
  H  H197  1  0.223900  0.978100  0.901400  1.0
  H  H198  1  0.723900  0.021900  0.598600  1.0
  H  H199  1  0.776100  0.021900  0.098600  1.0
  H  H200  1  0.276100  0.978100  0.401400  1.0
  H  H201  1  0.182000  0.063100  0.912400  1.0
  H  H202  1  0.682000  0.936900  0.587600  1.0
  H  H203  1  0.818000  0.936900  0.087600  1.0
  H  H204  1  0.318000  0.063100  0.412400  1.0
  H  H205  1  0.109700  0.000100  0.892000  1.0
  H  H206  1  0.609700  0.999900  0.608000  1.0
  H  H207  1  0.890300  0.999900  0.108000  1.0
  H  H208  1  0.390300  0.000100  0.392000  1.0
  H  H209  1  0.979000  0.029700  0.938800  1.0
  H  H210  1  0.479000  0.970300  0.561200  1.0
  H  H211  1  0.021000  0.970300  0.061200  1.0
  H  H212  1  0.521000  0.029700  0.438800  1.0
  H  H213  1  0.060200  0.092100  0.954700  1.0
  H  H214  1  0.560200  0.907900  0.545300  1.0
  H  H215  1  0.939800  0.907900  0.045300  1.0
  H  H216  1  0.439800  0.092100  0.454700  1.0
  H  H217  1  0.016000  0.030100  0.976700  1.0
  H  H218  1  0.516000  0.969900  0.523300  1.0
  H  H219  1  0.984000  0.969900  0.023300  1.0
  H  H220  1  0.484000  0.030100  0.476700  1.0
  H  H221  1  0.182700  0.982600  0.990100  1.0
  H  H222  1  0.682700  0.017400  0.509900  1.0
  H  H223  1  0.817300  0.017400  0.009900  1.0
  H  H224  1  0.317300  0.982600  0.490100  1.0
  H  H225  1  0.235600  0.046500  0.970900  1.0
  H  H226  1  0.735600  0.953500  0.529100  1.0
  H  H227  1  0.764400  0.953500  0.029100  1.0
  H  H228  1  0.264400  0.046500  0.470900  1.0
  H  H229  1  0.265600  0.958200  0.961400  1.0
  H  H230  1  0.765600  0.041800  0.538600  1.0
  H  H231  1  0.734400  0.041800  0.038600  1.0
  H  H232  1  0.234400  0.958200  0.461400  1.0
  H  H233  1  0.812000  0.231800  0.762000  1.0
  H  H234  1  0.312000  0.768200  0.738000  1.0
  H  H235  1  0.188000  0.768200  0.238000  1.0
  H  H236  1  0.688000  0.231800  0.262000  1.0
  H  H237  1  0.750900  0.455500  0.785400  1.0
  H  H238  1  0.250900  0.544500  0.714600  1.0
  H  H239  1  0.249100  0.544500  0.214600  1.0
  H  H240  1  0.749100  0.455500  0.285400  1.0
  H  H241  1  0.602100  0.500000  0.811000  1.0
  H  H242  1  0.102100  0.500000  0.689000  1.0
  H  H243  1  0.397900  0.500000  0.189000  1.0
  H  H244  1  0.897900  0.500000  0.311000  1.0
  H  H245  1  0.164100  0.449600  0.865900  1.0
  H  H246  1  0.664100  0.550400  0.634100  1.0
  H  H247  1  0.835900  0.550400  0.134100  1.0
  H  H248  1  0.335900  0.449600  0.365900  1.0
  H  H249  1  0.035600  0.373700  0.879200  1.0
  H  H250  1  0.535600  0.626300  0.620800  1.0
  H  H251  1  0.964400  0.626300  0.120800  1.0
  H  H252  1  0.464400  0.373700  0.379200  1.0
  H  H253  1  0.024300  0.149200  0.845500  1.0
  H  H254  1  0.524300  0.850800  0.654500  1.0
  H  H255  1  0.975700  0.850800  0.154500  1.0
  H  H256  1  0.475700  0.149200  0.345500  1.0
  H  H257  1  0.596400  0.088800  0.812500  1.0
  H  H258  1  0.096400  0.911200  0.687500  1.0
  H  H259  1  0.403600  0.911200  0.187500  1.0
  H  H260  1  0.903600  0.088800  0.312500  1.0
  H  H261  1  0.555100  0.173800  0.823600  1.0
  H  H262  1  0.055100  0.826200  0.676400  1.0
  H  H263  1  0.444900  0.826200  0.176400  1.0
  H  H264  1  0.944900  0.173800  0.323600  1.0
  H  H265  1  0.672500  0.153700  0.829500  1.0
  H  H266  1  0.172500  0.846300  0.670500  1.0
  H  H267  1  0.327500  0.846300  0.170500  1.0
  H  H268  1  0.827500  0.153700  0.329500  1.0
  H  H269  1  0.705500  0.057500  0.766000  1.0
  H  H270  1  0.205500  0.942500  0.734000  1.0
  H  H271  1  0.294500  0.942500  0.234000  1.0
  H  H272  1  0.794500  0.057500  0.266000  1.0
  H  H273  1  0.788100  0.120700  0.780100  1.0
  H  H274  1  0.288100  0.879300  0.719900  1.0
  H  H275  1  0.211900  0.879300  0.219900  1.0
  H  H276  1  0.711900  0.120700  0.280100  1.0
  H  H277  1  0.743200  0.119900  0.743100  1.0
  H  H278  1  0.243200  0.880100  0.756900  1.0
  H  H279  1  0.256800  0.880100  0.256900  1.0
  H  H280  1  0.756800  0.119900  0.243100  1.0
  H  H281  1  0.567500  0.161500  0.734000  1.0
  H  H282  1  0.067500  0.838500  0.766000  1.0
  H  H283  1  0.432500  0.838500  0.266000  1.0
  H  H284  1  0.932500  0.161500  0.234000  1.0
  H  H285  1  0.491100  0.180800  0.765000  1.0
  H  H286  1  0.991100  0.819200  0.735000  1.0
  H  H287  1  0.508900  0.819200  0.235000  1.0
  H  H288  1  0.008900  0.180800  0.265000  1.0
  H  H289  1  0.530100  0.094800  0.754700  1.0
  H  H290  1  0.030100  0.905200  0.745300  1.0
  H  H291  1  0.469900  0.905200  0.245300  1.0
  H  H292  1  0.969900  0.094800  0.254700  1.0
  H  H293  1  0.915400  0.481700  0.772300  1.0
  H  H294  1  0.415400  0.518300  0.727700  1.0
  H  H295  1  0.084600  0.518300  0.227700  1.0
  H  H296  1  0.584600  0.481700  0.272300  1.0
  H  H297  1  0.852400  0.461000  0.738300  1.0
  H  H298  1  0.352400  0.539000  0.761700  1.0
  H  H299  1  0.147600  0.539000  0.261700  1.0
  H  H300  1  0.647600  0.461000  0.238300  1.0
  H  H301  1  0.974500  0.454900  0.738000  1.0
  H  H302  1  0.474500  0.545100  0.762000  1.0
  H  H303  1  0.025500  0.545100  0.262000  1.0
  H  H304  1  0.525500  0.454900  0.238000  1.0
  H  H305  1  0.983400  0.337300  0.713100  1.0
  H  H306  1  0.483400  0.662700  0.786900  1.0
  H  H307  1  0.016600  0.662700  0.286900  1.0
  H  H308  1  0.516600  0.337300  0.213100  1.0
  H  H309  1  0.862100  0.328600  0.708700  1.0
  H  H310  1  0.362100  0.671400  0.791300  1.0
  H  H311  1  0.137900  0.671400  0.291300  1.0
  H  H312  1  0.637900  0.328600  0.208700  1.0
  H  H313  1  0.925900  0.265200  0.724900  1.0
  H  H314  1  0.425900  0.734800  0.775100  1.0
  H  H315  1  0.074100  0.734800  0.275100  1.0
  H  H316  1  0.574100  0.265200  0.224900  1.0
  H  H317  1  0.973500  0.369100  0.802800  1.0
  H  H318  1  0.473500  0.630900  0.697200  1.0
  H  H319  1  0.026500  0.630900  0.197200  1.0
  H  H320  1  0.526500  0.369100  0.302800  1.0
  H  H321  1  0.051900  0.355800  0.772100  1.0
  H  H322  1  0.551900  0.644200  0.727900  1.0
  H  H323  1  0.948100  0.644200  0.227900  1.0
  H  H324  1  0.448100  0.355800  0.272100  1.0
  H  H325  1  0.981400  0.286800  0.780800  1.0
  H  H326  1  0.481400  0.713200  0.719200  1.0
  H  H327  1  0.018600  0.713200  0.219200  1.0
  H  H328  1  0.518600  0.286800  0.280800  1.0
  H  H329  1  0.823700  0.317600  0.919900  1.0
  H  H330  1  0.323700  0.682400  0.580100  1.0
  H  H331  1  0.176300  0.682400  0.080100  1.0
  H  H332  1  0.676300  0.317600  0.419900  1.0
  H  H333  1  0.874900  0.369500  0.894600  1.0
  H  H334  1  0.374900  0.630500  0.605400  1.0
  H  H335  1  0.125100  0.630500  0.105400  1.0
  H  H336  1  0.625100  0.369500  0.394600  1.0
  H  H337  1  0.942900  0.337900  0.922900  1.0
  H  H338  1  0.442900  0.662100  0.577100  1.0
  H  H339  1  0.057100  0.662100  0.077100  1.0
  H  H340  1  0.557100  0.337900  0.422900  1.0
  H  H341  1  0.845800  0.193500  0.841800  1.0
  H  H342  1  0.345800  0.806500  0.658200  1.0
  H  H343  1  0.154200  0.806500  0.158200  1.0
  H  H344  1  0.654200  0.193500  0.341800  1.0
  H  H345  1  0.816200  0.282400  0.846000  1.0
  H  H346  1  0.316200  0.717600  0.654000  1.0
  H  H347  1  0.183800  0.717600  0.154000  1.0
  H  H348  1  0.683800  0.282400  0.346000  1.0
  H  H349  1  0.763300  0.226700  0.869300  1.0
  H  H350  1  0.263300  0.773300  0.630700  1.0
  H  H351  1  0.236700  0.773300  0.130700  1.0
  H  H352  1  0.736700  0.226700  0.369300  1.0
  H  H353  1  0.848500  0.174100  0.911600  1.0
  H  H354  1  0.348500  0.825900  0.588400  1.0
  H  H355  1  0.151500  0.825900  0.088400  1.0
  H  H356  1  0.651500  0.174100  0.411600  1.0
  H  H357  1  0.959500  0.202700  0.924400  1.0
  H  H358  1  0.459500  0.797300  0.575600  1.0
  H  H359  1  0.040500  0.797300  0.075600  1.0
  H  H360  1  0.540500  0.202700  0.424400  1.0
  H  H361  1  0.948100  0.142800  0.891100  1.0
  H  H362  1  0.448100  0.857200  0.608900  1.0
  H  H363  1  0.051900  0.857200  0.108900  1.0
  H  H364  1  0.551900  0.142800  0.391100  1.0
  H  H365  1  0.158100  0.156400  0.765600  1.0
  H  H366  1  0.658100  0.843600  0.734400  1.0
  H  H367  1  0.841900  0.843600  0.234400  1.0
  H  H368  1  0.341900  0.156400  0.265600  1.0
  H  H369  1  0.242100  0.089700  0.762500  1.0
  H  H370  1  0.742100  0.910300  0.737500  1.0
  H  H371  1  0.757900  0.910300  0.237500  1.0
  H  H372  1  0.257900  0.089700  0.262500  1.0
  H  H373  1  0.274800  0.176400  0.775000  1.0
  H  H374  1  0.774800  0.823600  0.725000  1.0
  H  H375  1  0.725200  0.823600  0.225000  1.0
  H  H376  1  0.225200  0.176400  0.275000  1.0
  H  H377  1  0.109100  0.047400  0.833500  1.0
  H  H378  1  0.609100  0.952600  0.666500  1.0
  H  H379  1  0.890900  0.952600  0.166500  1.0
  H  H380  1  0.390900  0.047400  0.333500  1.0
  H  H381  1  0.160000  0.010500  0.799000  1.0
  H  H382  1  0.660000  0.989500  0.701000  1.0
  H  H383  1  0.840000  0.989500  0.201000  1.0
  H  H384  1  0.340000  0.010500  0.299000  1.0
  H  H385  1  0.063900  0.066700  0.798600  1.0
  H  H386  1  0.563900  0.933300  0.701400  1.0
  H  H387  1  0.936100  0.933300  0.201400  1.0
  H  H388  1  0.436100  0.066700  0.298600  1.0
  H  H389  1  0.349000  0.145100  0.828900  1.0
  H  H390  1  0.849000  0.854900  0.671100  1.0
  H  H391  1  0.651000  0.854900  0.171100  1.0
  H  H392  1  0.151000  0.145100  0.328900  1.0
  H  H393  1  0.327500  0.056500  0.816200  1.0
  H  H394  1  0.827500  0.943500  0.683800  1.0
  H  H395  1  0.672500  0.943500  0.183800  1.0
  H  H396  1  0.172500  0.056500  0.316200  1.0
  H  H397  1  0.284900  0.094500  0.851800  1.0
  H  H398  1  0.784900  0.905500  0.648200  1.0
  H  H399  1  0.715100  0.905500  0.148200  1.0
  H  H400  1  0.215100  0.094500  0.351800  1.0
  H  H401  1  0.521500  0.835700  0.964400  1.0
  H  H402  1  0.021500  0.164300  0.535600  1.0
  H  H403  1  0.478500  0.164300  0.035600  1.0
  H  H404  1  0.978500  0.835700  0.464400  1.0
  H  H405  1  0.570500  0.809600  0.016200  1.0
  H  H406  1  0.070500  0.190400  0.483800  1.0
  H  H407  1  0.429500  0.190400  0.983800  1.0
  H  H408  1  0.929500  0.809600  0.516200  1.0
  H  H409  1  0.367400  0.638300  0.007200  1.0
  H  H410  1  0.867400  0.361700  0.492800  1.0
  H  H411  1  0.632600  0.361700  0.992800  1.0
  H  H412  1  0.132600  0.638300  0.507200  1.0
  H  H413  1  0.320600  0.674300  0.956600  1.0
  H  H414  1  0.820600  0.325700  0.543400  1.0
  H  H415  1  0.679400  0.325700  0.043400  1.0
  H  H416  1  0.179400  0.674300  0.456600  1.0
  H  H417  1  0.589500  0.365900  0.882800  1.0
  H  H418  1  0.089500  0.634100  0.617200  1.0
  H  H419  1  0.410500  0.634100  0.117200  1.0
  H  H420  1  0.910500  0.365900  0.382800  1.0
  H  H421  1  0.633900  0.345700  0.936500  1.0
  H  H422  1  0.133900  0.654300  0.563500  1.0
  H  H423  1  0.366100  0.654300  0.063500  1.0
  H  H424  1  0.866100  0.345700  0.436500  1.0
  H  H425  1  0.640400  0.751300  0.054700  1.0
  H  H426  1  0.140400  0.248700  0.445300  1.0
  H  H427  1  0.359600  0.248700  0.945300  1.0
  H  H428  1  0.859600  0.751300  0.554700  1.0
  H  H429  1  0.321600  0.272800  0.891700  1.0
  H  H430  1  0.821600  0.727200  0.608300  1.0
  H  H431  1  0.678400  0.727200  0.108300  1.0
  H  H432  1  0.178400  0.272800  0.391700  1.0
  C  C433  1  0.762400  0.637610  0.777240  1
  C  C434  1  0.262400  0.362390  0.722760  1
  C  C435  1  0.237600  0.362390  0.222760  1
  C  C436  1  0.737600  0.637610  0.277240  1
  C  C437  1  0.827300  0.652500  0.749020  1
  C  C438  1  0.327300  0.347500  0.750980  1
  C  C439  1  0.172700  0.347500  0.250980  1
  C  C440  1  0.672700  0.652500  0.249020  1
  C  C441  1  0.917000  0.290600  0.919640  1
  C  C442  1  0.417000  0.709400  0.580360  1
  C  C443  1  0.083000  0.709400  0.080360  1
  C  C444  1  0.583000  0.290600  0.419640  1
  C  C445  1  0.832000  0.301300  0.865500  1
  C  C446  1  0.332000  0.698700  0.634500  1
  C  C447  1  0.168000  0.698700  0.134500  1
  C  C448  1  0.668000  0.301300  0.365500  1
  C  C449  1  0.874400  0.173300  0.880900  1
  C  C450  1  0.374400  0.826700  0.619100  1
  C  C451  1  0.125600  0.826700  0.119100  1
  C  C452  1  0.625600  0.173300  0.380900  1
  C  C453  1  0.555800  0.881710  0.891640  1.0
  C  C454  1  0.055800  0.118290  0.608360  1.0
  C  C455  1  0.444200  0.118290  0.108360  1.0
  C  C456  1  0.944200  0.881710  0.391640  1.0
  C  C457  1  0.609900  0.952310  0.894450  1.0
  C  C458  1  0.109900  0.047690  0.605550  1.0
  C  C459  1  0.390100  0.047690  0.105550  1.0
  C  C460  1  0.890100  0.952310  0.394450  1.0
  C  C461  1  0.698700  0.956740  0.876020  1.0
  C  C462  1  0.198700  0.043260  0.623980  1.0
  C  C463  1  0.301300  0.043260  0.123980  1.0
  C  C464  1  0.801300  0.956740  0.376020  1.0
  C  C465  1  0.740500  0.894930  0.854520  1.0
  C  C466  1  0.240500  0.105070  0.645480  1.0
  C  C467  1  0.259500  0.105070  0.145480  1.0
  C  C468  1  0.759500  0.894930  0.354520  1.0
  C  C469  1  0.688300  0.827150  0.851740  1.0
  C  C470  1  0.188300  0.172850  0.648260  1.0
  C  C471  1  0.311700  0.172850  0.148260  1.0
  C  C472  1  0.811700  0.827150  0.351740  1.0
  C  C473  1  0.596500  0.818050  0.869440  1.0
  C  C474  1  0.096500  0.181950  0.630560  1.0
  C  C475  1  0.403500  0.181950  0.130560  1.0
  C  C476  1  0.903500  0.818050  0.369440  1.0
  C  C477  1  0.550000  0.744820  0.862550  1.0
  C  C478  1  0.050000  0.255180  0.637450  1.0
  C  C479  1  0.450000  0.255180  0.137450  1.0
  C  C480  1  0.950000  0.744820  0.362550  1.0
  C  C481  1  0.427000  0.647170  0.866660  1.0
  C  C482  1  0.927000  0.352830  0.633340  1.0
  C  C483  1  0.573000  0.352830  0.133340  1.0
  C  C484  1  0.073000  0.647170  0.366660  1.0
  C  C485  1  0.482900  0.585450  0.850640  1.0
  C  C486  1  0.982900  0.414550  0.649360  1.0
  C  C487  1  0.517100  0.414550  0.149360  1.0
  C  C488  1  0.017100  0.585450  0.350640  1.0
  C  C489  1  0.438200  0.513240  0.843640  1.0
  C  C490  1  0.938200  0.486760  0.656360  1.0
  C  C491  1  0.561800  0.486760  0.156360  1.0
  C  C492  1  0.061800  0.513240  0.343640  1.0
  C  C493  1  0.336200  0.502370  0.853600  1.0
  C  C494  1  0.836200  0.497630  0.646400  1.0
  C  C495  1  0.663800  0.497630  0.146400  1.0
  C  C496  1  0.163800  0.502370  0.353600  1.0
  C  C497  1  0.281100  0.564730  0.869410  1.0
  C  C498  1  0.781100  0.435270  0.630590  1.0
  C  C499  1  0.718900  0.435270  0.130590  1.0
  C  C500  1  0.218900  0.564730  0.369410  1.0
  C  C501  1  0.324100  0.636470  0.875920  1.0
  C  C502  1  0.824100  0.363530  0.624080  1.0
  C  C503  1  0.675900  0.363530  0.124080  1.0
  C  C504  1  0.175900  0.636470  0.375920  1.0
  C  C505  1  0.177400  0.701870  0.899630  1.0
  C  C506  1  0.677400  0.298130  0.600370  1.0
  C  C507  1  0.822600  0.298130  0.100370  1.0
  C  C508  1  0.322600  0.701870  0.399630  1.0
  C  C509  1  0.120400  0.765320  0.915680  1.0
  C  C510  1  0.620400  0.234680  0.584320  1.0
  C  C511  1  0.879600  0.234680  0.084320  1.0
  C  C512  1  0.379600  0.765320  0.415680  1.0
  C  C513  1  0.018000  0.748960  0.923710  1.0
  C  C514  1  0.518000  0.251040  0.576290  1.0
  C  C515  1  0.982000  0.251040  0.076290  1.0
  C  C516  1  0.482000  0.748960  0.423710  1.0
  C  C517  1  0.952800  0.803590  0.938130  1.0
  C  C518  1  0.452800  0.196410  0.561870  1.0
  C  C519  1  0.047200  0.196410  0.061870  1.0
  C  C520  1  0.547200  0.803590  0.438130  1.0
  C  C521  1  0.991000  0.879450  0.943980  1.0
  C  C522  1  0.491000  0.120550  0.556020  1.0
  C  C523  1  0.009000  0.120550  0.056020  1.0
  C  C524  1  0.509000  0.879450  0.443980  1.0
  C  C525  1  0.088800  0.900290  0.936450  1.0
  C  C526  1  0.588800  0.099710  0.563550  1.0
  C  C527  1  0.911200  0.099710  0.063550  1.0
  C  C528  1  0.411200  0.900290  0.436450  1.0
  C  C529  1  0.159600  0.841430  0.922960  1.0
  C  C530  1  0.659600  0.158570  0.577040  1.0
  C  C531  1  0.840400  0.158570  0.077040  1.0
  C  C532  1  0.340400  0.841430  0.422960  1.0
  C  C533  1  0.568600  0.023100  0.917370  1.0
  C  C534  1  0.068600  0.976900  0.582630  1.0
  C  C535  1  0.431400  0.976900  0.082630  1.0
  C  C536  1  0.931400  0.023100  0.417370  1.0
  C  C537  1  0.463900  0.045510  0.904600  1.0
  C  C538  1  0.963900  0.954490  0.595400  1.0
  C  C539  1  0.536100  0.954490  0.095400  1.0
  C  C540  1  0.036100  0.045510  0.404600  1.0
  C  C541  1  0.640000  0.092710  0.917710  1.0
  C  C542  1  0.140000  0.907290  0.582290  1.0
  C  C543  1  0.360000  0.907290  0.082290  1.0
  C  C544  1  0.860000  0.092710  0.417710  1.0
  C  C545  1  0.559200  0.005690  0.953580  1.0
  C  C546  1  0.059200  0.994310  0.546420  1.0
  C  C547  1  0.440800  0.994310  0.046420  1.0
  C  C548  1  0.940800  0.005690  0.453580  1.0
  C  C549  1  0.840900  0.905180  0.835570  1.0
  C  C550  1  0.340900  0.094820  0.664430  1.0
  C  C551  1  0.159100  0.094820  0.164430  1.0
  C  C552  1  0.659100  0.905180  0.335570  1.0
  C  C553  1  0.828700  0.969700  0.813960  1.0
  C  C554  1  0.328700  0.030300  0.686040  1.0
  C  C555  1  0.171300  0.030300  0.186040  1.0
  C  C556  1  0.671300  0.969700  0.313960  1.0
  C  C557  1  0.927100  0.925400  0.860580  1.0
  C  C558  1  0.427100  0.074600  0.639420  1.0
  C  C559  1  0.072900  0.074600  0.139420  1.0
  C  C560  1  0.572900  0.925400  0.360580  1.0
  C  C561  1  0.866500  0.832000  0.811840  1.0
  C  C562  1  0.366500  0.168000  0.688160  1.0
  C  C563  1  0.133500  0.168000  0.188160  1.0
  C  C564  1  0.633500  0.832000  0.311840  1.0
  C  C565  1  0.843200  0.784350  0.948550  1.0
  C  C566  1  0.343200  0.215650  0.551450  1.0
  C  C567  1  0.156800  0.215650  0.051450  1.0
  C  C568  1  0.656800  0.784350  0.448550  1.0
  C  C569  1  0.847100  0.761300  0.984110  1.0
  C  C570  1  0.347100  0.238700  0.515890  1.0
  C  C571  1  0.152900  0.238700  0.015890  1.0
  C  C572  1  0.652900  0.761300  0.484110  1.0
  C  C573  1  0.798900  0.717700  0.924140  1.0
  C  C574  1  0.298900  0.282300  0.575860  1.0
  C  C575  1  0.201100  0.282300  0.075860  1.0
  C  C576  1  0.701100  0.717700  0.424140  1.0
  C  C577  1  0.771200  0.851490  0.948070  1.0
  C  C578  1  0.271200  0.148510  0.551930  1.0
  C  C579  1  0.228800  0.148510  0.051930  1.0
  C  C580  1  0.728800  0.851490  0.448070  1.0
  C  C581  1  0.124600  0.984490  0.942200  1.0
  C  C582  1  0.624600  0.015510  0.557800  1.0
  C  C583  1  0.875400  0.015510  0.057800  1.0
  C  C584  1  0.375400  0.984490  0.442200  1.0
  C  C585  1  0.163600  0.008670  0.908980  1.0
  C  C586  1  0.663600  0.991330  0.591020  1.0
  C  C587  1  0.836400  0.991330  0.091020  1.0
  C  C588  1  0.336400  0.008670  0.408980  1.0
  C  C589  1  0.037000  0.039030  0.954180  1.0
  C  C590  1  0.537000  0.960970  0.545820  1.0
  C  C591  1  0.963000  0.960970  0.045820  1.0
  C  C592  1  0.463000  0.039030  0.454180  1.0
  C  C593  1  0.209800  0.993760  0.968520  1.0
  C  C594  1  0.709800  0.006240  0.531480  1.0
  C  C595  1  0.790200  0.006240  0.031480  1.0
  C  C596  1  0.290200  0.993760  0.468520  1.0
  C  C597  1  0.602100  0.307700  0.795780  1.0
  C  C598  1  0.102100  0.692300  0.704220  1.0
  C  C599  1  0.397900  0.692300  0.204220  1.0
  C  C600  1  0.897900  0.307700  0.295780  1.0
  C  C601  1  0.672100  0.248690  0.781950  1.0
  C  C602  1  0.172100  0.751310  0.718050  1.0
  C  C603  1  0.327900  0.751310  0.218050  1.0
  C  C604  1  0.827900  0.248690  0.281950  1.0
  C  C605  1  0.765800  0.271060  0.770750  1.0
  C  C606  1  0.265800  0.728940  0.729250  1.0
  C  C607  1  0.234200  0.728940  0.229250  1.0
  C  C608  1  0.734200  0.271060  0.270750  1.0
  C  C609  1  0.798500  0.347610  0.771210  1.0
  C  C610  1  0.298500  0.652390  0.728790  1.0
  C  C611  1  0.201500  0.652390  0.228790  1.0
  C  C612  1  0.701500  0.347610  0.271210  1.0
  C  C613  1  0.731800  0.403300  0.784840  1.0
  C  C614  1  0.231800  0.596700  0.715160  1.0
  C  C615  1  0.268200  0.596700  0.215160  1.0
  C  C616  1  0.768200  0.403300  0.284840  1.0
  C  C617  1  0.635800  0.385970  0.798000  1.0
  C  C618  1  0.135800  0.614030  0.702000  1.0
  C  C619  1  0.364200  0.614030  0.202000  1.0
  C  C620  1  0.864200  0.385970  0.298000  1.0
  C  C621  1  0.576000  0.450330  0.812790  1.0
  C  C622  1  0.076000  0.549670  0.687210  1.0
  C  C623  1  0.424000  0.549670  0.187210  1.0
  C  C624  1  0.924000  0.450330  0.312790  1.0
  C  C625  1  0.206200  0.408720  0.856010  1.0
  C  C626  1  0.706200  0.591280  0.643990  1.0
  C  C627  1  0.793800  0.591280  0.143990  1.0
  C  C628  1  0.293800  0.408720  0.356010  1.0
  C  C629  1  0.162300  0.334230  0.852040  1.0
  C  C630  1  0.662300  0.665770  0.647960  1.0
  C  C631  1  0.837700  0.665770  0.147960  1.0
  C  C632  1  0.337700  0.334230  0.352040  1.0
  C  C633  1  0.065600  0.328870  0.867500  1.0
  C  C634  1  0.565600  0.671130  0.632500  1.0
  C  C635  1  0.934400  0.671130  0.132500  1.0
  C  C636  1  0.434400  0.328870  0.367500  1.0
  C  C637  1  0.014800  0.261100  0.865960  1.0
  C  C638  1  0.514800  0.738900  0.634040  1.0
  C  C639  1  0.985200  0.738900  0.134040  1.0
  C  C640  1  0.485200  0.261100  0.365960  1.0
  C  C641  1  0.060200  0.196540  0.847230  1.0
  C  C642  1  0.560200  0.803460  0.652770  1.0
  C  C643  1  0.939800  0.803460  0.152770  1.0
  C  C644  1  0.439800  0.196540  0.347230  1.0
  C  C645  1  0.154000  0.198010  0.831250  1.0
  C  C646  1  0.654000  0.801990  0.668750  1.0
  C  C647  1  0.846000  0.801990  0.168750  1.0
  C  C648  1  0.346000  0.198010  0.331250  1.0
  C  C649  1  0.208800  0.268360  0.834300  1.0
  C  C650  1  0.708800  0.731640  0.665700  1.0
  C  C651  1  0.791200  0.731640  0.165700  1.0
  C  C652  1  0.291200  0.268360  0.334300  1.0
  C  C653  1  0.640700  0.164650  0.779920  1.0
  C  C654  1  0.140700  0.835350  0.720080  1.0
  C  C655  1  0.359300  0.835350  0.220080  1.0
  C  C656  1  0.859300  0.164650  0.279920  1.0
  C  C657  1  0.613800  0.143330  0.814460  1.0
  C  C658  1  0.113800  0.856670  0.685540  1.0
  C  C659  1  0.386200  0.856670  0.185540  1.0
  C  C660  1  0.886200  0.143330  0.314460  1.0
  C  C661  1  0.727200  0.110840  0.766030  1.0
  C  C662  1  0.227200  0.889160  0.733970  1.0
  C  C663  1  0.272800  0.889160  0.233970  1.0
  C  C664  1  0.772800  0.110840  0.266030  1.0
  C  C665  1  0.549100  0.149030  0.756240  1.0
  C  C666  1  0.049100  0.850970  0.743760  1.0
  C  C667  1  0.450900  0.850970  0.243760  1.0
  C  C668  1  0.950900  0.149030  0.256240  1.0
  C  C669  1  0.904900  0.364650  0.757620  1.0
  C  C670  1  0.404900  0.635350  0.742380  1.0
  C  C671  1  0.095100  0.635350  0.242380  1.0
  C  C672  1  0.595100  0.364650  0.257620  1.0
  C  C673  1  0.912500  0.448100  0.750960  1.0
  C  C674  1  0.412500  0.551900  0.749040  1.0
  C  C675  1  0.087500  0.551900  0.249040  1.0
  C  C676  1  0.587500  0.448100  0.250960  1.0
  C  C677  1  0.920500  0.320000  0.722980  1.0
  C  C678  1  0.420500  0.680000  0.777020  1.0
  C  C679  1  0.079500  0.680000  0.277020  1.0
  C  C680  1  0.579500  0.320000  0.222980  1.0
  C  C681  1  0.984600  0.342200  0.780200  1.0
  C  C682  1  0.484600  0.657800  0.719800  1.0
  C  C683  1  0.015400  0.657800  0.219800  1.0
  C  C684  1  0.515400  0.342200  0.280200  1.0
  C  C685  1  0.910400  0.254850  0.883200  1.0
  C  C686  1  0.410400  0.745150  0.616800  1.0
  C  C687  1  0.089600  0.745150  0.116800  1.0
  C  C688  1  0.589600  0.254850  0.383200  1.0
  C  C689  1  0.885800  0.326300  0.907300  1.0
  C  C690  1  0.385800  0.673700  0.592700  1.0
  C  C691  1  0.114200  0.673700  0.092700  1.0
  C  C692  1  0.614200  0.326300  0.407300  1.0
  C  C693  1  0.826700  0.237900  0.857880  1.0
  C  C694  1  0.326700  0.762100  0.642120  1.0
  C  C695  1  0.173300  0.762100  0.142120  1.0
  C  C696  1  0.673300  0.237900  0.357880  1.0
  C  C697  1  0.917300  0.187400  0.904500  1.0
  C  C698  1  0.417300  0.812600  0.595500  1.0
  C  C699  1  0.082700  0.812600  0.095500  1.0
  C  C700  1  0.582700  0.187400  0.404500  1.0
  C  C701  1  0.199300  0.125280  0.811810  1.0
  C  C702  1  0.699300  0.874720  0.688190  1.0
  C  C703  1  0.800700  0.874720  0.188190  1.0
  C  C704  1  0.300700  0.125280  0.311810  1.0
  C  C705  1  0.220500  0.138100  0.775440  1.0
  C  C706  1  0.720500  0.861900  0.724560  1.0
  C  C707  1  0.779500  0.861900  0.224560  1.0
  C  C708  1  0.279500  0.138100  0.275440  1.0
  C  C709  1  0.126500  0.056200  0.810610  1.0
  C  C710  1  0.626500  0.943800  0.689390  1.0
  C  C711  1  0.873500  0.943800  0.189390  1.0
  C  C712  1  0.373500  0.056200  0.310610  1.0
  C  C713  1  0.299300  0.103300  0.828730  1.0
  C  C714  1  0.799300  0.896700  0.671270  1.0
  C  C715  1  0.700700  0.896700  0.171270  1.0
  C  C716  1  0.200700  0.103300  0.328730  1.0
  C  C717  1  0.487200  0.795800  0.973680  1.0
  C  C718  1  0.987200  0.204200  0.526320  1.0
  C  C719  1  0.512800  0.204200  0.026320  1.0
  C  C720  1  0.012800  0.795800  0.473680  1.0
  C  C721  1  0.517200  0.780500  0.004600  1.0
  C  C722  1  0.017200  0.219500  0.495400  1.0
  C  C723  1  0.482800  0.219500  0.995400  1.0
  C  C724  1  0.982800  0.780500  0.504600  1.0
  C  C725  1  0.470200  0.722790  0.019040  1.0
  C  C726  1  0.970200  0.277210  0.480960  1.0
  C  C727  1  0.529800  0.277210  0.980960  1.0
  C  C728  1  0.029800  0.722790  0.519040  1.0
  C  C729  1  0.398900  0.681600  0.999620  1.0
  C  C730  1  0.898900  0.318400  0.500380  1.0
  C  C731  1  0.601100  0.318400  0.000380  1.0
  C  C732  1  0.101100  0.681600  0.499620  1.0
  C  C733  1  0.372700  0.702900  0.969000  1.0
  C  C734  1  0.872700  0.297100  0.531000  1.0
  C  C735  1  0.627300  0.297100  0.031000  1.0
  C  C736  1  0.127300  0.702900  0.469000  1.0
  C  C737  1  0.541500  0.341800  0.895740  1.0
  C  C738  1  0.041500  0.658200  0.604260  1.0
  C  C739  1  0.458500  0.658200  0.104260  1.0
  C  C740  1  0.958500  0.341800  0.395740  1.0
  C  C741  1  0.568900  0.329300  0.927750  1.0
  C  C742  1  0.068900  0.670700  0.572250  1.0
  C  C743  1  0.431100  0.670700  0.072250  1.0
  C  C744  1  0.931100  0.329300  0.427750  1.0
  C  C745  1  0.497500  0.706730  0.053140  1.0
  C  C746  1  0.997500  0.293270  0.446860  1.0
  C  C747  1  0.502500  0.293270  0.946860  1.0
  C  C748  1  0.002500  0.706730  0.553140  1.0
  C  C749  1  0.591000  0.727000  0.067140  1.0
  C  C750  1  0.091000  0.273000  0.432860  1.0
  C  C751  1  0.409000  0.273000  0.932860  1.0
  C  C752  1  0.909000  0.727000  0.567140  1.0
  C  C753  1  0.386600  0.287800  0.900810  1.0
  C  C754  1  0.886600  0.712200  0.599190  1.0
  C  C755  1  0.613400  0.712200  0.099190  1.0
  C  C756  1  0.113400  0.287800  0.400810  1.0
  N  N757  1  0.714400  0.626440  0.799160  1
  N  N758  1  0.214400  0.373560  0.700840  1
  N  N759  1  0.285600  0.373560  0.200840  1
  N  N760  1  0.785600  0.626440  0.299160  1
  N  N761  1  0.465970  0.722050  0.875370  1.0
  N  N762  1  0.965970  0.277950  0.624630  1.0
  N  N763  1  0.534030  0.277950  0.124630  1.0
  N  N764  1  0.034030  0.722050  0.375370  1.0
  N  N765  1  0.274680  0.701490  0.892790  1.0
  N  N766  1  0.774680  0.298510  0.607210  1.0
  N  N767  1  0.725320  0.298510  0.107210  1.0
  N  N768  1  0.225320  0.701490  0.392790  1.0
  N  N769  1  0.488810  0.446490  0.828560  1.0
  N  N770  1  0.988810  0.553510  0.671440  1.0
  N  N771  1  0.511190  0.553510  0.171440  1.0
  N  N772  1  0.011190  0.446490  0.328560  1.0
  N  N773  1  0.298600  0.426610  0.847430  1.0
  N  N774  1  0.798600  0.573390  0.652570  1.0
  N  N775  1  0.701400  0.573390  0.152570  1.0
  N  N776  1  0.201400  0.426610  0.347430  1.0
  N  N777  1  0.413440  0.758750  0.955810  1.0
  N  N778  1  0.913440  0.241250  0.544190  1.0
  N  N779  1  0.586560  0.241250  0.044190  1.0
  N  N780  1  0.086560  0.758750  0.455810  1.0
  N  N781  1  0.451290  0.321790  0.882080  1.0
  N  N782  1  0.951290  0.678210  0.617920  1.0
  N  N783  1  0.548710  0.678210  0.117920  1.0
  N  N784  1  0.048710  0.321790  0.382080  1.0
  O  O785  1  0.472180  0.875960  0.908620  1.0
  O  O786  1  0.972180  0.124040  0.591380  1.0
  O  O787  1  0.527820  0.124040  0.091380  1.0
  O  O788  1  0.027820  0.875960  0.408620  1.0
  O  O789  1  0.254560  0.858770  0.918000  1.0
  O  O790  1  0.754560  0.141230  0.582000  1.0
  O  O791  1  0.745440  0.141230  0.082000  1.0
  O  O792  1  0.245440  0.858770  0.418000  1.0
  O  O793  1  0.512340  0.288450  0.805380  1.0
  O  O794  1  0.012340  0.711550  0.694620  1.0
  O  O795  1  0.487660  0.711550  0.194620  1.0
  O  O796  1  0.987660  0.288450  0.305380  1.0
  O  O797  1  0.300180  0.270310  0.821120  1.0
  O  O798  1  0.800180  0.729690  0.678880  1.0
  O  O799  1  0.699820  0.729690  0.178880  1.0
  O  O800  1  0.199820  0.270310  0.321120  1.0
