# generated using pymatgen
data_H106PdC81S9(NO2)13
_symmetry_space_group_name_H-M   'P 1'
_cell_length_a   13.51570000
_cell_length_b   14.45610000
_cell_length_c   19.26770000
_cell_angle_alpha   75.29900000
_cell_angle_beta   84.37200000
_cell_angle_gamma   82.90700000
_symmetry_Int_Tables_number   1
_chemical_formula_structural   H106PdC81S9(NO2)13
_chemical_formula_sum   'H212 Pd2 C162 S18 N26 O52'
_cell_volume   3604.75475105
_cell_formula_units_Z   2
loop_
 _symmetry_equiv_pos_site_id
 _symmetry_equiv_pos_as_xyz
  1  'x, y, z'
loop_
 _atom_site_type_symbol
 _atom_site_label
 _atom_site_symmetry_multiplicity
 _atom_site_fract_x
 _atom_site_fract_y
 _atom_site_fract_z
 _atom_site_occupancy
  H  H1  1  0.250600  0.602900  0.903400  1
  H  H2  1  0.749400  0.397100  0.096600  1
  H  H3  1  0.164600  0.573400  0.962800  1
  H  H4  1  0.835400  0.426600  0.037200  1
  H  H5  1  0.187300  0.681000  0.937200  1
  H  H6  1  0.812700  0.319000  0.062800  1
  H  H7  1  0.026700  0.764000  0.906100  1
  H  H8  1  0.973300  0.236000  0.093900  1
  H  H9  1  0.987800  0.666000  0.948100  1
  H  H10  1  0.012200  0.334000  0.051900  1
  H  H11  1  0.946900  0.720300  0.873700  1
  H  H12  1  0.053100  0.279700  0.126300  1
  H  H13  1  0.698000  0.061700  0.701600  1
  H  H14  1  0.302000  0.938300  0.298400  1
  H  H15  1  0.750400  0.156000  0.671100  1
  H  H16  1  0.249600  0.844000  0.328900  1
  H  H17  1  0.730000  0.093500  0.619400  1
  H  H18  1  0.270000  0.906500  0.380600  1
  H  H19  1  0.542600  0.102500  0.574100  1
  H  H20  1  0.457400  0.897500  0.425900  1
  H  H21  1  0.463600  0.120700  0.635700  1
  H  H22  1  0.536400  0.879300  0.364300  1
  H  H23  1  0.545800  0.032900  0.651000  1
  H  H24  1  0.454200  0.967100  0.349000  1
  H  H25  1  0.538700  0.540800  0.350100  1
  H  H26  1  0.461300  0.459200  0.649900  1
  H  H27  1  0.609700  0.459300  0.396300  1
  H  H28  1  0.390300  0.540700  0.603700  1
  H  H29  1  0.644600  0.509800  0.317200  1
  H  H30  1  0.355400  0.490200  0.682800  1
  H  H31  1  0.570800  0.669500  0.485600  1
  H  H32  1  0.429200  0.330500  0.514400  1
  H  H33  1  0.572400  0.557300  0.505400  1
  H  H34  1  0.427600  0.442700  0.494600  1
  H  H35  1  0.498500  0.620800  0.450200  1
  H  H36  1  0.501500  0.379200  0.549800  1
  H  H37  1  0.689200  0.691700  0.016100  1
  H  H38  1  0.310800  0.308300  0.983900  1
  H  H39  1  0.790800  0.650800  0.983200  1
  H  H40  1  0.209200  0.349200  0.016800  1
  H  H41  1  0.756100  0.761100  0.960500  1
  H  H42  1  0.243900  0.238900  0.039500  1
  H  H43  1  0.828000  0.628500  0.176600  1
  H  H44  1  0.172000  0.371500  0.823400  1
  H  H45  1  0.819300  0.569200  0.120100  1
  H  H46  1  0.180700  0.430800  0.879900  1
  H  H47  1  0.724200  0.627300  0.147200  1
  H  H48  1  0.275800  0.372700  0.852800  1
  H  H49  1  0.916800  0.602100  0.772800  1
  H  H50  1  0.083200  0.397900  0.227200  1
  H  H51  1  0.883100  0.523600  0.739700  1
  H  H52  1  0.116900  0.476400  0.260300  1
  H  H53  1  0.968300  0.496500  0.793200  1
  H  H54  1  0.031700  0.503500  0.206800  1
  H  H55  1  0.856300  0.365000  0.924700  1
  H  H56  1  0.143700  0.635000  0.075300  1
  H  H57  1  0.859600  0.359500  0.844300  1
  H  H58  1  0.140400  0.640500  0.155700  1
  H  H59  1  0.756600  0.367500  0.888700  1
  H  H60  1  0.243400  0.632500  0.111300  1
  H  H61  1  0.188900  0.366900  0.375700  1
  H  H62  1  0.811100  0.633100  0.624300  1
  H  H63  1  0.115500  0.312000  0.346800  1
  H  H64  1  0.884500  0.688000  0.653200  1
  H  H65  1  0.203800  0.254400  0.391700  1
  H  H66  1  0.796200  0.745600  0.608300  1
  H  H67  1  0.058400  0.154000  0.498600  1
  H  H68  1  0.941600  0.846000  0.501400  1
  H  H69  1  0.035000  0.196500  0.418000  1
  H  H70  1  0.965000  0.803500  0.582000  1
  H  H71  1  0.957500  0.217500  0.479600  1
  H  H72  1  0.042500  0.782500  0.520400  1
  H  H73  1  0.399200  0.463200  0.205900  1
  H  H74  1  0.600800  0.536800  0.794100  1
  H  H75  1  0.720400  0.946900  0.706200  1
  H  H76  1  0.279600  0.053100  0.293800  1
  H  H77  1  0.425800  0.433700  0.041200  1
  H  H78  1  0.574200  0.566300  0.958800  1
  H  H79  1  0.424600  0.549100  0.932700  1
  H  H80  1  0.575400  0.450900  0.067300  1
  H  H81  1  0.417100  0.756400  0.038700  1
  H  H82  1  0.582900  0.243600  0.961300  1
  H  H83  1  0.418300  0.640900  0.147200  1
  H  H84  1  0.581700  0.359100  0.852800  1
  H  H85  1  0.362800  0.800400  0.925200  1
  H  H86  1  0.637200  0.199600  0.074800  1
  H  H87  1  0.346200  0.723600  0.883600  1
  H  H88  1  0.653800  0.276400  0.116400  1
  H  H89  1  0.595000  0.662200  0.908200  1
  H  H90  1  0.405000  0.337800  0.091800  1
  H  H91  1  0.732600  0.723000  0.837600  1
  H  H92  1  0.267400  0.277000  0.162400  1
  H  H93  1  0.553800  0.945100  0.729800  1
  H  H94  1  0.446200  0.054900  0.270200  1
  H  H95  1  0.416200  0.884300  0.800300  1
  H  H96  1  0.583800  0.115700  0.199700  1
  H  H97  1  0.720000  0.710400  0.978000  1
  H  H98  1  0.280000  0.289600  0.022000  1
  H  H99  1  0.696000  0.620000  0.039500  1
  H  H100  1  0.304000  0.380000  0.960500  1
  H  H101  1  0.805700  0.648400  0.023400  1
  H  H102  1  0.194300  0.351600  0.976600  1
  H  H103  1  0.764000  0.640800  0.185600  1
  H  H104  1  0.236000  0.359200  0.814400  1
  H  H105  1  0.685100  0.598000  0.151500  1
  H  H106  1  0.314900  0.402000  0.848500  1
  H  H107  1  0.650200  0.676000  0.194800  1
  H  H108  1  0.349800  0.324000  0.805200  1
  H  H109  1  0.928400  0.564900  0.793600  1
  H  H110  1  0.071600  0.435100  0.206400  1
  H  H111  1  0.839300  0.513100  0.780200  1
  H  H112  1  0.160700  0.486900  0.219800  1
  H  H113  1  0.946400  0.457600  0.788100  1
  H  H114  1  0.053600  0.542400  0.211900  1
  H  H115  1  0.943300  0.314500  0.902900  1
  H  H116  1  0.056700  0.685500  0.097100  1
  H  H117  1  0.869200  0.347200  0.841500  1
  H  H118  1  0.130800  0.652800  0.158500  1
  H  H119  1  0.827800  0.315100  0.921900  1
  H  H120  1  0.172200  0.684900  0.078100  1
  H  H121  1  0.108600  0.344200  0.368900  1
  H  H122  1  0.891400  0.655800  0.631100  1
  H  H123  1  0.204600  0.273600  0.390100  1
  H  H124  1  0.795400  0.726400  0.609900  1
  H  H125  1  0.211800  0.384700  0.365800  1
  H  H126  1  0.788200  0.615300  0.634200  1
  H  H127  1  0.051300  0.240600  0.561300  1
  H  H128  1  0.948700  0.759400  0.438700  1
  H  H129  1  0.126200  0.183200  0.516200  1
  H  H130  1  0.873800  0.816800  0.483800  1
  H  H131  1  0.029300  0.241400  0.482800  1
  H  H132  1  0.970700  0.758600  0.517200  1
  H  H133  1  0.815700  0.136600  0.199800  1.0
  H  H134  1  0.184300  0.863400  0.800200  1.0
  H  H135  1  0.699500  0.956700  0.366100  1.0
  H  H136  1  0.300500  0.043300  0.633900  1.0
  H  H137  1  0.675900  0.855800  0.295200  1.0
  H  H138  1  0.324100  0.144200  0.704800  1.0
  H  H139  1  0.725900  0.895300  0.174500  1.0
  H  H140  1  0.274100  0.104700  0.825500  1.0
  H  H141  1  0.760200  0.147500  0.956000  1.0
  H  H142  1  0.239800  0.852500  0.044000  1.0
  H  H143  1  0.800700  0.183500  0.833900  1.0
  H  H144  1  0.199300  0.816500  0.166100  1.0
  H  H145  1  0.980900  0.939600  0.855700  1.0
  H  H146  1  0.019100  0.060400  0.144300  1.0
  H  H147  1  0.939400  0.901900  0.977400  1.0
  H  H148  1  0.060600  0.098100  0.022600  1.0
  H  H149  1  0.973100  0.043000  0.739200  1.0
  H  H150  1  0.026900  0.957000  0.260800  1.0
  H  H151  1  0.862500  0.086400  0.726000  1.0
  H  H152  1  0.137500  0.913600  0.274000  1.0
  H  H153  1  0.837000  0.249700  0.665600  1.0
  H  H154  1  0.163000  0.750300  0.334400  1.0
  H  H155  1  0.890300  0.401400  0.621700  1.0
  H  H156  1  0.109700  0.598600  0.378300  1.0
  H  H157  1  0.139700  0.311600  0.723300  1.0
  H  H158  1  0.860300  0.688400  0.276700  1.0
  H  H159  1  0.081400  0.164900  0.773000  1.0
  H  H160  1  0.918600  0.835100  0.227000  1.0
  H  H161  1  0.167600  0.559000  0.511300  1.0
  H  H162  1  0.832400  0.441000  0.488700  1.0
  H  H163  1  0.232900  0.698900  0.445500  1.0
  H  H164  1  0.767100  0.301100  0.554500  1.0
  H  H165  1  0.248900  0.819600  0.500700  1.0
  H  H166  1  0.751100  0.180400  0.499300  1.0
  H  H167  1  0.149200  0.661900  0.686100  1.0
  H  H168  1  0.850800  0.338100  0.313900  1.0
  H  H169  1  0.564000  0.136400  0.414100  1.0
  H  H170  1  0.436000  0.863600  0.585900  1.0
  H  H171  1  0.411600  0.225500  0.398700  1.0
  H  H172  1  0.588400  0.774500  0.601300  1.0
  H  H173  1  0.394000  0.360400  0.304600  1.0
  H  H174  1  0.606000  0.639600  0.695400  1.0
  H  H175  1  0.682200  0.311800  0.245000  1.0
  H  H176  1  0.317800  0.688200  0.755000  1.0
  H  H177  1  0.417400  0.505700  0.229600  1.0
  H  H178  1  0.582600  0.494300  0.770400  1.0
  H  H179  1  0.744200  0.999000  0.723600  1.0
  H  H180  1  0.255800  0.001000  0.276400  1.0
  H  H181  1  0.449300  0.523100  0.050300  1.0
  H  H182  1  0.550700  0.476900  0.949700  1.0
  H  H183  1  0.432000  0.663900  0.960200  1.0
  H  H184  1  0.568000  0.336100  0.039800  1.0
  H  H185  1  0.440700  0.818300  0.105600  1.0
  H  H186  1  0.559300  0.181700  0.894400  1.0
  H  H187  1  0.458000  0.677400  0.195700  1.0
  H  H188  1  0.542000  0.322600  0.804300  1.0
  H  H189  1  0.417800  0.897900  0.976600  1.0
  H  H190  1  0.582200  0.102100  0.023400  1.0
  H  H191  1  0.369300  0.837100  0.935300  1.0
  H  H192  1  0.630700  0.162900  0.064700  1.0
  H  H193  1  0.467900  0.795500  0.826200  1.0
  H  H194  1  0.532100  0.204500  0.173800  1.0
  H  H195  1  0.594200  0.839600  0.737600  1.0
  H  H196  1  0.405800  0.160400  0.262400  1.0
  H  H197  1  0.719000  0.962400  0.867900  1.0
  H  H198  1  0.281000  0.037600  0.132100  1.0
  H  H199  1  0.592800  0.918300  0.956600  1.0
  H  H200  1  0.407200  0.081700  0.043400  1.0
  H  H201  1  0.019600  0.809900  0.716000  1.0
  H  H202  1  0.980400  0.190100  0.284000  1.0
  H  H203  1  0.110700  0.020400  0.558700  1.0
  H  H204  1  0.889300  0.979600  0.441300  1.0
  H  H205  1  0.945600  0.086900  0.543300  1.0
  H  H206  1  0.054400  0.913100  0.456700  1.0
  H  H207  1  0.816300  0.007300  0.610800  1.0
  H  H208  1  0.183700  0.992700  0.389200  1.0
  H  H209  1  0.801500  0.937100  0.074100  1.0
  H  H210  1  0.198500  0.062900  0.925900  1.0
  H  H211  1  0.037800  0.487600  0.587100  1.0
  H  H212  1  0.962200  0.512400  0.412900  1.0
  Pd  Pd213  1  0.777520  0.149930  0.348190  1.0
  Pd  Pd214  1  0.222480  0.850070  0.651810  1.0
  C  C215  1  0.185320  0.622770  0.922290  1
  C  C216  1  0.814680  0.377230  0.077710  1
  C  C217  1  0.004610  0.705480  0.901320  1
  C  C218  1  0.995390  0.294520  0.098680  1
  C  C219  1  0.704800  0.115780  0.661230  1
  C  C220  1  0.295200  0.884220  0.338770  1
  C  C221  1  0.531860  0.098430  0.624730  1
  C  C222  1  0.468140  0.901570  0.375270  1
  C  C223  1  0.607010  0.519020  0.360280  1
  C  C224  1  0.392990  0.480980  0.639720  1
  C  C225  1  0.563780  0.614730  0.467510  1
  C  C226  1  0.436220  0.385270  0.532490  1
  C  C227  1  0.756640  0.704480  0.999490  1
  C  C228  1  0.243360  0.295520  0.000510  1
  C  C229  1  0.794820  0.626680  0.135180  1
  C  C230  1  0.205180  0.373320  0.864820  1
  C  C231  1  0.906440  0.535500  0.781770  1
  C  C232  1  0.093560  0.464500  0.218230  1
  C  C233  1  0.823040  0.386940  0.880830  1
  C  C234  1  0.176960  0.613060  0.119170  1
  C  C235  1  0.155280  0.309770  0.385880  1
  C  C236  1  0.844720  0.690230  0.614120  1
  C  C237  1  0.027290  0.208150  0.465180  1
  C  C238  1  0.972710  0.791850  0.534820  1
  C  C239  1  0.422140  0.525840  0.104910  1
  C  C240  1  0.577860  0.474160  0.895090  1
  C  C241  1  0.424030  0.498340  0.040660  1
  C  C242  1  0.575970  0.501660  0.959340  1
  C  C243  1  0.423320  0.567510  0.975680  1
  C  C244  1  0.576680  0.432490  0.024320  1
  C  C245  1  0.420720  0.664170  0.974940  1
  C  C246  1  0.579280  0.335830  0.025060  1
  C  C247  1  0.418830  0.691680  0.039190  1
  C  C248  1  0.581170  0.308320  0.960810  1
  C  C249  1  0.419540  0.622510  0.104170  1
  C  C250  1  0.580460  0.377490  0.895830  1
  C  C251  1  0.393430  0.743710  0.910170  1
  C  C252  1  0.606570  0.256290  0.089830  1
  C  C253  1  0.491960  0.767240  0.861250  1
  C  C254  1  0.508040  0.232760  0.138750  1
  C  C255  1  0.586740  0.718920  0.872410  1
  C  C256  1  0.413260  0.281080  0.127590  1
  C  C257  1  0.669190  0.755360  0.830130  1
  C  C258  1  0.330810  0.244640  0.169870  1
  C  C259  1  0.656860  0.840110  0.776680  1
  C  C260  1  0.343140  0.159890  0.223320  1
  C  C261  1  0.562070  0.888420  0.765520  1
  C  C262  1  0.437930  0.111580  0.234480  1
  C  C263  1  0.479620  0.851990  0.807810  1
  C  C264  1  0.520380  0.148010  0.192190  1
  C  C265  1  0.736400  0.672760  0.024920  1
  C  C266  1  0.263600  0.327240  0.975080  1
  C  C267  1  0.702010  0.654870  0.162840  1
  C  C268  1  0.297990  0.345130  0.837160  1
  C  C269  1  0.899850  0.504810  0.804280  1
  C  C270  1  0.100150  0.495190  0.195720  1
  C  C271  1  0.879000  0.347300  0.890190  1
  C  C272  1  0.121000  0.652700  0.109810  1
  C  C273  1  0.170640  0.335620  0.391240  1
  C  C274  1  0.829360  0.664380  0.608760  1
  C  C275  1  0.080820  0.240300  0.514000  1
  C  C276  1  0.919180  0.759700  0.486000  1
  C  C277  1  0.787500  0.079200  0.219200  1.0
  C  C278  1  0.212500  0.920800  0.780800  1.0
  C  C279  1  0.718300  0.973900  0.317200  1.0
  C  C280  1  0.281700  0.026100  0.682800  1.0
  C  C281  1  0.704900  0.912500  0.275000  1.0
  C  C282  1  0.295100  0.087500  0.725000  1.0
  C  C283  1  0.734700  0.935800  0.203500  1.0
  C  C284  1  0.265300  0.064200  0.796500  1.0
  C  C285  1  0.778200  0.020300  0.174600  1.0
  C  C286  1  0.221800  0.979700  0.825400  1.0
  C  C287  1  0.813100  0.056700  0.096200  1.0
  C  C288  1  0.186900  0.943300  0.903800  1.0
  C  C289  1  0.845100  0.020100  0.979000  1.0
  C  C290  1  0.154900  0.979900  0.021000  1.0
  C  C291  1  0.804100  0.105000  0.935900  1.0
  C  C292  1  0.195900  0.895000  0.064100  1.0
  C  C293  1  0.828900  0.126400  0.862700  1.0
  C  C294  1  0.171100  0.873600  0.137300  1.0
  C  C295  1  0.894400  0.065300  0.831100  1.0
  C  C296  1  0.105600  0.934700  0.168900  1.0
  C  C297  1  0.935700  0.981500  0.875500  1.0
  C  C298  1  0.064300  0.018500  0.124500  1.0
  C  C299  1  0.911200  0.958900  0.948600  1.0
  C  C300  1  0.088800  0.041100  0.051400  1.0
  C  C301  1  0.920700  0.090300  0.750500  1.0
  C  C302  1  0.079300  0.909700  0.249500  1.0
  C  C303  1  0.955400  0.189600  0.721800  1.0
  C  C304  1  0.044600  0.810400  0.278200  1.0
  C  C305  1  0.898500  0.261700  0.677400  1.0
  C  C306  1  0.101500  0.738300  0.322600  1.0
  C  C307  1  0.931100  0.352400  0.649700  1.0
  C  C308  1  0.068900  0.647600  0.350300  1.0
  C  C309  1  0.022600  0.368900  0.663900  1.0
  C  C310  1  0.977400  0.631100  0.336100  1.0
  C  C311  1  0.078600  0.299100  0.711100  1.0
  C  C312  1  0.921400  0.700900  0.288900  1.0
  C  C313  1  0.044000  0.211000  0.740200  1.0
  C  C314  1  0.956000  0.789000  0.259800  1.0
  C  C315  1  0.117600  0.506500  0.656100  1.0
  C  C316  1  0.882400  0.493500  0.343900  1.0
  C  C317  1  0.150700  0.596800  0.605900  1.0
  C  C318  1  0.849300  0.403200  0.394100  1.0
  C  C319  1  0.176100  0.607300  0.533500  1.0
  C  C320  1  0.823900  0.392700  0.466500  1.0
  C  C321  1  0.214300  0.691100  0.494300  1.0
  C  C322  1  0.785700  0.308900  0.505700  1.0
  C  C323  1  0.224900  0.762800  0.527400  1.0
  C  C324  1  0.775100  0.237200  0.472600  1.0
  C  C325  1  0.164900  0.669500  0.637000  1.0
  C  C326  1  0.835100  0.330500  0.363000  1.0
  C  C327  1  0.557700  0.191000  0.376300  1.0
  C  C328  1  0.442300  0.809000  0.623700  1.0
  C  C329  1  0.466300  0.243900  0.367100  1.0
  C  C330  1  0.533700  0.756100  0.632900  1.0
  C  C331  1  0.455700  0.324100  0.311100  1.0
  C  C332  1  0.544300  0.675900  0.688900  1.0
  C  C333  1  0.537300  0.350400  0.264700  1.0
  C  C334  1  0.462700  0.649600  0.735300  1.0
  C  C335  1  0.627000  0.294900  0.276400  1.0
  C  C336  1  0.373000  0.705100  0.723600  1.0
  C  C337  1  0.536100  0.433000  0.200000  1.0
  C  C338  1  0.463900  0.567000  0.800000  1.0
  C  C339  1  0.455330  0.586280  0.131920  1.0
  C  C340  1  0.544670  0.413720  0.868080  1.0
  C  C341  1  0.447540  0.582240  0.061370  1.0
  C  C342  1  0.552460  0.417760  0.938630  1.0
  C  C343  1  0.437200  0.666667  0.007400  1.0
  C  C344  1  0.562800  0.333333  0.992600  1.0
  C  C345  1  0.434640  0.755090  0.023980  1.0
  C  C346  1  0.565360  0.244910  0.976020  1.0
  C  C347  1  0.442430  0.759130  0.094530  1.0
  C  C348  1  0.557570  0.240870  0.905470  1.0
  C  C349  1  0.452780  0.674720  0.148500  1.0
  C  C350  1  0.547220  0.325280  0.851500  1.0
  C  C351  1  0.428590  0.839930  0.959010  1.0
  C  C352  1  0.571410  0.160070  0.040990  1.0
  C  C353  1  0.517840  0.852530  0.900230  1.0
  C  C354  1  0.482160  0.147470  0.099770  1.0
  C  C355  1  0.518270  0.828940  0.834610  1.0
  C  C356  1  0.481730  0.171060  0.165390  1.0
  C  C357  1  0.593910  0.855360  0.781470  1.0
  C  C358  1  0.406090  0.144640  0.218530  1.0
  C  C359  1  0.669130  0.905380  0.793960  1.0
  C  C360  1  0.330870  0.094620  0.206040  1.0
  C  C361  1  0.668700  0.928970  0.859580  1.0
  C  C362  1  0.331300  0.071030  0.140420  1.0
  C  C363  1  0.593060  0.902550  0.912720  1.0
  C  C364  1  0.406940  0.097450  0.087280  1.0
  C  C365  1  0.830690  0.851430  0.728530  1.0
  C  C366  1  0.169310  0.148570  0.271470  1.0
  C  C367  1  0.905620  0.902210  0.672430  1.0
  C  C368  1  0.094380  0.097790  0.327570  1.0
  C  C369  1  0.004500  0.865830  0.680630  1.0
  C  C370  1  0.995500  0.134170  0.319370  1.0
  C  C371  1  0.058940  0.990300  0.587640  1.0
  C  C372  1  0.941060  0.009700  0.412360  1.0
  C  C373  1  0.959430  0.029740  0.577690  1.0
  C  C374  1  0.040570  0.970260  0.422310  1.0
  C  C375  1  0.882480  0.983900  0.618850  1.0
  C  C376  1  0.117520  0.016100  0.381150  1.0
  S  S377  1  0.101900  0.642700  0.856910  1
  S  S378  1  0.898100  0.357300  0.143090  1
  S  S379  1  0.610350  0.169120  0.648850  1
  S  S380  1  0.389650  0.830880  0.351150  1
  S  S381  1  0.659810  0.608180  0.392830  1
  S  S382  1  0.340190  0.391820  0.607170  1
  S  S383  1  0.817300  0.722150  0.068790  1
  S  S384  1  0.182700  0.277850  0.931210  1
  S  S385  1  0.817190  0.506890  0.854240  1
  S  S386  1  0.182810  0.493110  0.145760  1
  S  S387  1  0.079030  0.302470  0.464120  1
  S  S388  1  0.920970  0.697530  0.535880  1
  S  S389  1  0.713970  0.743480  0.085500  1
  S  S390  1  0.286030  0.256520  0.914500  1
  S  S391  1  0.873020  0.465940  0.897810  1
  S  S392  1  0.126980  0.534060  0.102190  1
  S  S393  1  0.146860  0.343360  0.480110  1
  S  S394  1  0.853140  0.656640  0.519890  1
  N  N395  1  0.675870  0.949760  0.517280  1
  N  N396  1  0.324130  0.050240  0.482720  1
  N  N397  1  0.317300  0.549440  0.344990  1
  N  N398  1  0.682700  0.450560  0.655010  1
  N  N399  1  0.449100  0.472000  0.174500  1
  N  N400  1  0.550900  0.528000  0.825500  1
  N  N401  1  0.735500  0.889800  0.731900  1
  N  N402  1  0.264500  0.110200  0.268100  1
  N  N403  1  0.319510  0.531950  0.381340  1
  N  N404  1  0.680490  0.468050  0.618660  1
  N  N405  1  0.462050  0.506640  0.194440  1.0
  N  N406  1  0.537950  0.493360  0.805560  1.0
  N  N407  1  0.742410  0.939090  0.744690  1.0
  N  N408  1  0.257590  0.060910  0.255310  1.0
  N  N409  1  0.757440  0.057200  0.289670  1.0
  N  N410  1  0.242560  0.942800  0.710330  1.0
  N  N411  1  0.637780  0.216270  0.332190  1.0
  N  N412  1  0.362220  0.783730  0.667810  1.0
  N  N413  1  0.200600  0.751200  0.598570  1.0
  N  N414  1  0.799400  0.248800  0.401430  1.0
  N  N415  1  0.079510  0.909440  0.638660  1.0
  N  N416  1  0.920490  0.090560  0.361340  1.0
  N  N417  1  0.816710  0.994480  0.054690  1.0
  N  N418  1  0.183290  0.005520  0.945310  1.0
  N  N419  1  0.057550  0.460190  0.629230  1.0
  N  N420  1  0.942450  0.539810  0.370770  1.0
  O  O421  1  0.710370  0.026490  0.486470  1
  O  O422  1  0.289630  0.973510  0.513530  1
  O  O423  1  0.680610  0.917830  0.586500  1
  O  O424  1  0.319390  0.082170  0.413500  1
  O  O425  1  0.650830  0.888200  0.487060  1
  O  O426  1  0.349170  0.111800  0.512940  1
  O  O427  1  0.355960  0.630420  0.327760  1
  O  O428  1  0.644040  0.369580  0.672240  1
  O  O429  1  0.291660  0.514380  0.293800  1
  O  O430  1  0.708340  0.485620  0.706200  1
  O  O431  1  0.280450  0.508180  0.409880  1
  O  O432  1  0.719550  0.491820  0.590120  1
  O  O433  1  0.140300  0.714420  0.792760  1
  O  O434  1  0.859700  0.285580  0.207240  1
  O  O435  1  0.554400  0.177640  0.736870  1
  O  O436  1  0.445600  0.822360  0.263130  1
  O  O437  1  0.644200  0.699140  0.338090  1
  O  O438  1  0.355800  0.300860  0.661910  1
  O  O439  1  0.778350  0.800780  0.095540  1
  O  O440  1  0.221650  0.199220  0.904460  1
  O  O441  1  0.852910  0.518640  0.921060  1
  O  O442  1  0.147090  0.481360  0.078940  1
  O  O443  1  0.163480  0.280790  0.516860  1
  O  O444  1  0.836520  0.719210  0.483140  1
  O  O445  1  0.619700  0.474900  0.191200  1
  O  O446  1  0.380300  0.525100  0.808800  1
  O  O447  1  0.851660  0.782910  0.778510  1
  O  O448  1  0.148340  0.217090  0.221490  1
  O  O449  1  0.732950  0.887040  0.558840  1
  O  O450  1  0.267050  0.112960  0.441160  1
  O  O451  1  0.594560  0.940890  0.491710  1
  O  O452  1  0.405440  0.059110  0.508290  1
  O  O453  1  0.365930  0.589340  0.405890  1
  O  O454  1  0.634070  0.410660  0.594110  1
  O  O455  1  0.328670  0.532140  0.312740  1
  O  O456  1  0.671330  0.467860  0.687260  1
  O  O457  1  0.258040  0.469590  0.428020  1
  O  O458  1  0.741960  0.530410  0.571980  1
  O  O459  1  0.785550  0.816640  0.075210  1
  O  O460  1  0.214450  0.183360  0.924790  1
  O  O461  1  0.947250  0.472290  0.936620  1
  O  O462  1  0.052750  0.527710  0.063380  1
  O  O463  1  0.073380  0.428400  0.476310  1
  O  O464  1  0.926620  0.571600  0.523690  1
  O  O465  1  0.610200  0.443370  0.153570  1.0
  O  O466  1  0.389800  0.556630  0.846430  1.0
  O  O467  1  0.850090  0.765050  0.752860  1.0
  O  O468  1  0.149910  0.234950  0.247140  1.0
  O  O469  1  0.833560  0.139790  0.075070  1.0
  O  O470  1  0.166440  0.860210  0.924930  1.0
  O  O471  1  0.149390  0.481140  0.715910  1.0
  O  O472  1  0.850610  0.518860  0.284090  1.0
