# generated using pymatgen
data_H54Ir2C64N6Cl2O
_symmetry_space_group_name_H-M   'P 1'
_cell_length_a   11.61500000
_cell_length_b   20.61300000
_cell_length_c   25.74400000
_cell_angle_alpha   90.56100000
_cell_angle_beta   90.00000000
_cell_angle_gamma   90.00000000
_symmetry_Int_Tables_number   1
_chemical_formula_structural   H54Ir2C64N6Cl2O
_chemical_formula_sum   'H216 Ir8 C256 N24 Cl8 O4'
_cell_volume   6163.33290166
_cell_formula_units_Z   4
loop_
 _symmetry_equiv_pos_site_id
 _symmetry_equiv_pos_as_xyz
  1  'x, y, z'
loop_
 _atom_site_type_symbol
 _atom_site_label
 _atom_site_symmetry_multiplicity
 _atom_site_fract_x
 _atom_site_fract_y
 _atom_site_fract_z
 _atom_site_occupancy
  H  H1  1  0.961700  0.436300  0.663400  1
  H  H2  1  0.461700  0.063700  0.336600  1
  H  H3  1  0.038300  0.563700  0.336600  1
  H  H4  1  0.538300  0.936300  0.663400  1
  H  H5  1  0.874400  0.393100  0.591800  1
  H  H6  1  0.374400  0.106900  0.408200  1
  H  H7  1  0.125600  0.606900  0.408200  1
  H  H8  1  0.625600  0.893100  0.591800  1
  H  H9  1  0.967600  0.398700  0.510700  1
  H  H10  1  0.467600  0.101300  0.489300  1
  H  H11  1  0.032400  0.601300  0.489300  1
  H  H12  1  0.532400  0.898700  0.510700  1
  H  H13  1  0.137400  0.452600  0.505900  1
  H  H14  1  0.637400  0.047400  0.494100  1
  H  H15  1  0.862600  0.547400  0.494100  1
  H  H16  1  0.362600  0.952600  0.505900  1
  H  H17  1  0.306300  0.507200  0.506700  1
  H  H18  1  0.806300  0.992800  0.493300  1
  H  H19  1  0.693700  0.492800  0.493300  1
  H  H20  1  0.193700  0.007200  0.506700  1
  H  H21  1  0.482800  0.559000  0.516400  1
  H  H22  1  0.982800  0.941000  0.483600  1
  H  H23  1  0.517200  0.441000  0.483600  1
  H  H24  1  0.017200  0.059000  0.516400  1
  H  H25  1  0.417500  0.589800  0.667800  1
  H  H26  1  0.917500  0.910200  0.332200  1
  H  H27  1  0.582500  0.410200  0.332200  1
  H  H28  1  0.082500  0.089800  0.667800  1
  H  H29  1  0.585400  0.647100  0.572600  1
  H  H30  1  0.085400  0.852900  0.427400  1
  H  H31  1  0.414600  0.352900  0.427400  1
  H  H32  1  0.914600  0.147100  0.572600  1
  H  H33  1  0.643800  0.583000  0.591500  1
  H  H34  1  0.143800  0.917000  0.408500  1
  H  H35  1  0.356200  0.417000  0.408500  1
  H  H36  1  0.856200  0.083000  0.591500  1
  H  H37  1  0.588200  0.631000  0.631900  1
  H  H38  1  0.088200  0.869000  0.368100  1
  H  H39  1  0.411800  0.369000  0.368100  1
  H  H40  1  0.911800  0.131000  0.631900  1
  H  H41  1  0.367400  0.529000  0.769600  1
  H  H42  1  0.867400  0.971000  0.230400  1
  H  H43  1  0.632600  0.471000  0.230400  1
  H  H44  1  0.132600  0.029000  0.769600  1
  H  H45  1  0.449700  0.608000  0.824500  1
  H  H46  1  0.949700  0.892000  0.175500  1
  H  H47  1  0.550300  0.392000  0.175500  1
  H  H48  1  0.050300  0.108000  0.824500  1
  H  H49  1  0.375900  0.712500  0.824300  1
  H  H50  1  0.875900  0.787500  0.175700  1
  H  H51  1  0.624100  0.287500  0.175700  1
  H  H52  1  0.124100  0.212500  0.824300  1
  H  H53  1  0.234200  0.741700  0.766800  1
  H  H54  1  0.734200  0.758300  0.233200  1
  H  H55  1  0.765800  0.258300  0.233200  1
  H  H56  1  0.265800  0.241700  0.766800  1
  H  H57  1  0.090300  0.757500  0.710100  1
  H  H58  1  0.590300  0.742500  0.289900  1
  H  H59  1  0.909700  0.242500  0.289900  1
  H  H60  1  0.409700  0.257500  0.710100  1
  H  H61  1  0.948800  0.767100  0.647100  1
  H  H62  1  0.448800  0.732900  0.352900  1
  H  H63  1  0.051200  0.232900  0.352900  1
  H  H64  1  0.551200  0.267100  0.647100  1
  H  H65  1  0.995500  0.582900  0.603000  1
  H  H66  1  0.495500  0.917100  0.397000  1
  H  H67  1  0.004500  0.417100  0.397000  1
  H  H68  1  0.504500  0.082900  0.603000  1
  H  H69  1  0.810100  0.707700  0.589000  1
  H  H70  1  0.310100  0.792300  0.411000  1
  H  H71  1  0.189900  0.292300  0.411000  1
  H  H72  1  0.689900  0.207700  0.589000  1
  H  H73  1  0.853700  0.642700  0.563800  1
  H  H74  1  0.353700  0.857300  0.436200  1
  H  H75  1  0.146300  0.357300  0.436200  1
  H  H76  1  0.646300  0.142700  0.563800  1
  H  H77  1  0.910700  0.708700  0.548400  1
  H  H78  1  0.410700  0.791300  0.451600  1
  H  H79  1  0.089300  0.291300  0.451600  1
  H  H80  1  0.589300  0.208700  0.548400  1
  H  H81  1  0.128600  0.333800  0.735500  1
  H  H82  1  0.628600  0.166200  0.264500  1
  H  H83  1  0.871400  0.666200  0.264500  1
  H  H84  1  0.371400  0.833800  0.735500  1
  H  H85  1  0.049500  0.256800  0.682600  1
  H  H86  1  0.549500  0.243200  0.317400  1
  H  H87  1  0.950500  0.743200  0.317400  1
  H  H88  1  0.450500  0.756800  0.682600  1
  H  H89  1  0.853200  0.255100  0.668300  1
  H  H90  1  0.353200  0.244900  0.331700  1
  H  H91  1  0.146800  0.744900  0.331700  1
  H  H92  1  0.646800  0.755100  0.668300  1
  H  H93  1  0.738100  0.328300  0.714400  1
  H  H94  1  0.238100  0.171700  0.285600  1
  H  H95  1  0.261900  0.671700  0.285600  1
  H  H96  1  0.761900  0.828300  0.714400  1
  H  H97  1  0.640600  0.398500  0.766500  1
  H  H98  1  0.140600  0.101500  0.233500  1
  H  H99  1  0.359400  0.601500  0.233500  1
  H  H100  1  0.859400  0.898500  0.766500  1
  H  H101  1  0.552400  0.469100  0.823700  1
  H  H102  1  0.052400  0.030900  0.176300  1
  H  H103  1  0.447600  0.530900  0.176300  1
  H  H104  1  0.947600  0.969100  0.823700  1
  H  H105  1  0.862900  0.526600  0.875300  1
  H  H106  1  0.362900  0.973400  0.124700  1
  H  H107  1  0.137100  0.473400  0.124700  1
  H  H108  1  0.637100  0.026600  0.875300  1
  H  H109  1  0.696500  0.562000  0.923500  1
  H  H110  1  0.196500  0.938000  0.076500  1
  H  H111  1  0.303500  0.438000  0.076500  1
  H  H112  1  0.803500  0.062000  0.923500  1
  H  H113  1  0.575700  0.533100  0.909200  1
  H  H114  1  0.075700  0.966900  0.090800  1
  H  H115  1  0.424300  0.466900  0.090800  1
  H  H116  1  0.924300  0.033100  0.909200  1
  H  H117  1  0.625200  0.591500  0.877700  1
  H  H118  1  0.125200  0.908500  0.122300  1
  H  H119  1  0.374800  0.408500  0.122300  1
  H  H120  1  0.874800  0.091500  0.877700  1
  H  H121  1  0.088100  0.594000  0.814500  1
  H  H122  1  0.588100  0.906000  0.185500  1
  H  H123  1  0.911900  0.406000  0.185500  1
  H  H124  1  0.411900  0.094000  0.814500  1
  H  H125  1  0.129200  0.669700  0.879000  1
  H  H126  1  0.629200  0.830300  0.121000  1
  H  H127  1  0.870800  0.330300  0.121000  1
  H  H128  1  0.370800  0.169700  0.879000  1
  H  H129  1  0.146700  0.636400  0.963900  1
  H  H130  1  0.646700  0.863600  0.036100  1
  H  H131  1  0.853300  0.363600  0.036100  1
  H  H132  1  0.353300  0.136400  0.963900  1
  H  H133  1  0.132400  0.526200  0.983800  1
  H  H134  1  0.632400  0.973800  0.016200  1
  H  H135  1  0.867600  0.473800  0.016200  1
  H  H136  1  0.367600  0.026200  0.983800  1
  H  H137  1  0.096900  0.419900  0.993100  1
  H  H138  1  0.596900  0.080100  0.006900  1
  H  H139  1  0.903100  0.580100  0.006900  1
  H  H140  1  0.403100  0.919900  0.993100  1
  H  H141  1  0.066100  0.306800  0.997100  1
  H  H142  1  0.566100  0.193200  0.002900  1
  H  H143  1  0.933900  0.693200  0.002900  1
  H  H144  1  0.433900  0.806800  0.997100  1
  H  H145  1  0.002900  0.303500  0.843600  1
  H  H146  1  0.502900  0.196500  0.156400  1
  H  H147  1  0.997100  0.696500  0.156400  1
  H  H148  1  0.497100  0.803500  0.843600  1
  H  H149  1  0.073100  0.197800  0.920200  1
  H  H150  1  0.573100  0.302200  0.079800  1
  H  H151  1  0.926900  0.802200  0.079800  1
  H  H152  1  0.426900  0.697800  0.920200  1
  H  H153  1  0.950900  0.209400  0.896200  1
  H  H154  1  0.450900  0.290600  0.103800  1
  H  H155  1  0.049100  0.790600  0.103800  1
  H  H156  1  0.549100  0.709400  0.896200  1
  H  H157  1  0.967900  0.212800  0.956600  1
  H  H158  1  0.467900  0.287200  0.043400  1
  H  H159  1  0.032100  0.787200  0.043400  1
  H  H160  1  0.532100  0.712800  0.956600  1
  H  H161  1  0.448300  0.356900  0.766600  1
  H  H162  1  0.948300  0.143100  0.233400  1
  H  H163  1  0.551700  0.643100  0.233400  1
  H  H164  1  0.051700  0.856900  0.766600  1
  H  H165  1  0.334800  0.490900  0.874500  1
  H  H166  1  0.834800  0.009100  0.125500  1
  H  H167  1  0.665200  0.509100  0.125500  1
  H  H168  1  0.165200  0.990900  0.874500  1
  H  H169  1  0.385200  0.477300  0.960400  1
  H  H170  1  0.885200  0.022700  0.039600  1
  H  H171  1  0.614800  0.522700  0.039600  1
  H  H172  1  0.114800  0.977300  0.960400  1
  H  H173  1  0.406200  0.375500  0.995700  1
  H  H174  1  0.906200  0.124500  0.004300  1
  H  H175  1  0.593800  0.624500  0.004300  1
  H  H176  1  0.093800  0.875500  0.995700  1
  H  H177  1  0.377800  0.286100  0.945200  1
  H  H178  1  0.877800  0.213900  0.054800  1
  H  H179  1  0.622200  0.713900  0.054800  1
  H  H180  1  0.122200  0.786100  0.945200  1
  H  H181  1  0.333200  0.296400  0.858000  1
  H  H182  1  0.833200  0.203600  0.142000  1
  H  H183  1  0.666800  0.703600  0.142000  1
  H  H184  1  0.166800  0.796400  0.858000  1
  H  H185  1  0.244200  0.360300  0.631800  1
  H  H186  1  0.744200  0.139700  0.368200  1
  H  H187  1  0.755800  0.639700  0.368200  1
  H  H188  1  0.255800  0.860300  0.631800  1
  H  H189  1  0.309300  0.334300  0.551500  1
  H  H190  1  0.809300  0.165700  0.448500  1
  H  H191  1  0.690700  0.665700  0.448500  1
  H  H192  1  0.190700  0.834300  0.551500  1
  H  H193  1  0.496200  0.348900  0.534400  1
  H  H194  1  0.996200  0.151100  0.465600  1
  H  H195  1  0.503800  0.651100  0.465600  1
  H  H196  1  0.003800  0.848900  0.534400  1
  H  H197  1  0.625600  0.401700  0.593100  1
  H  H198  1  0.125600  0.098300  0.406900  1
  H  H199  1  0.374400  0.598300  0.406900  1
  H  H200  1  0.874400  0.901700  0.593100  1
  H  H201  1  0.550500  0.435900  0.678300  1
  H  H202  1  0.050500  0.064100  0.321700  1
  H  H203  1  0.449500  0.564100  0.321700  1
  H  H204  1  0.949500  0.935900  0.678300  1
  H  H205  1  0.978000  0.516000  0.729000  1
  H  H206  1  0.478000  0.984000  0.271000  1
  H  H207  1  0.022000  0.484000  0.271000  1
  H  H208  1  0.522000  0.016000  0.729000  1
  H  H209  1  0.206600  0.708400  0.591800  1
  H  H210  1  0.706600  0.791600  0.408200  1
  H  H211  1  0.793400  0.291600  0.408200  1
  H  H212  1  0.293400  0.208400  0.591800  1
  H  H213  1  0.280400  0.649900  0.571000  1
  H  H214  1  0.780400  0.850100  0.429000  1
  H  H215  1  0.719600  0.350100  0.429000  1
  H  H216  1  0.219600  0.149900  0.571000  1
  Ir  Ir217  1  0.171910  0.525129  0.687150  1
  Ir  Ir218  1  0.671910  0.974871  0.312850  1
  Ir  Ir219  1  0.828090  0.474871  0.312850  1
  Ir  Ir220  1  0.328090  0.025129  0.687150  1
  Ir  Ir221  1  0.042910  0.447729  0.806306  1
  Ir  Ir222  1  0.542910  0.052271  0.193694  1
  Ir  Ir223  1  0.957090  0.552271  0.193694  1
  Ir  Ir224  1  0.457090  0.947729  0.806306  1
  C  C225  1  0.996700  0.440600  0.631100  1
  C  C226  1  0.496700  0.059400  0.368900  1
  C  C227  1  0.003300  0.559400  0.368900  1
  C  C228  1  0.503300  0.940600  0.631100  1
  C  C229  1  0.945100  0.413800  0.588800  1
  C  C230  1  0.445100  0.086200  0.411200  1
  C  C231  1  0.054900  0.586200  0.411200  1
  C  C232  1  0.554900  0.913800  0.588800  1
  C  C233  1  0.999900  0.417700  0.540200  1
  C  C234  1  0.499900  0.082300  0.459800  1
  C  C235  1  0.000100  0.582300  0.459800  1
  C  C236  1  0.500100  0.917700  0.540200  1
  C  C237  1  0.100600  0.449700  0.537800  1
  C  C238  1  0.600600  0.050300  0.462200  1
  C  C239  1  0.899400  0.550300  0.462200  1
  C  C240  1  0.399400  0.949700  0.537800  1
  C  C241  1  0.152900  0.478900  0.581400  1
  C  C242  1  0.652900  0.021100  0.418600  1
  C  C243  1  0.847100  0.521100  0.418600  1
  C  C244  1  0.347100  0.978900  0.581400  1
  C  C245  1  0.259300  0.513900  0.582400  1
  C  C246  1  0.759300  0.986100  0.417600  1
  C  C247  1  0.740700  0.486100  0.417600  1
  C  C248  1  0.240700  0.013900  0.582400  1
  C  C249  1  0.329500  0.522500  0.539200  1
  C  C250  1  0.829500  0.977500  0.460800  1
  C  C251  1  0.670500  0.477500  0.460800  1
  C  C252  1  0.170500  0.022500  0.539200  1
  C  C253  1  0.434800  0.554000  0.545000  1
  C  C254  1  0.934800  0.946000  0.455000  1
  C  C255  1  0.565200  0.446000  0.455000  1
  C  C256  1  0.065200  0.054000  0.545000  1
  C  C257  1  0.467400  0.577500  0.592200  1
  C  C258  1  0.967400  0.922500  0.407800  1
  C  C259  1  0.532600  0.422500  0.407800  1
  C  C260  1  0.032600  0.077500  0.592200  1
  C  C261  1  0.395800  0.571600  0.636100  1
  C  C262  1  0.895800  0.928400  0.363900  1
  C  C263  1  0.604200  0.428400  0.363900  1
  C  C264  1  0.104200  0.071600  0.636100  1
  C  C265  1  0.290800  0.538000  0.631200  1
  C  C266  1  0.790800  0.962000  0.368800  1
  C  C267  1  0.709200  0.462000  0.368800  1
  C  C268  1  0.209200  0.038000  0.631200  1
  C  C269  1  0.581800  0.612900  0.597500  1
  C  C270  1  0.081800  0.887100  0.402500  1
  C  C271  1  0.418200  0.387100  0.402500  1
  C  C272  1  0.918200  0.112900  0.597500  1
  C  C273  1  0.339100  0.571200  0.769800  1
  C  C274  1  0.839100  0.928800  0.230200  1
  C  C275  1  0.660900  0.428800  0.230200  1
  C  C276  1  0.160900  0.071200  0.769800  1
  C  C277  1  0.389000  0.618600  0.802600  1
  C  C278  1  0.889000  0.881400  0.197400  1
  C  C279  1  0.611000  0.381400  0.197400  1
  C  C280  1  0.111000  0.118600  0.802600  1
  C  C281  1  0.345700  0.681500  0.801500  1
  C  C282  1  0.845700  0.818500  0.198500  1
  C  C283  1  0.654300  0.318500  0.198500  1
  C  C284  1  0.154300  0.181500  0.801500  1
  C  C285  1  0.260600  0.699100  0.768200  1
  C  C286  1  0.760600  0.800900  0.231800  1
  C  C287  1  0.739400  0.300900  0.231800  1
  C  C288  1  0.239400  0.199100  0.768200  1
  C  C289  1  0.213800  0.649700  0.735600  1
  C  C290  1  0.713800  0.850300  0.264400  1
  C  C291  1  0.786200  0.350300  0.264400  1
  C  C292  1  0.286200  0.149700  0.735600  1
  C  C293  1  0.123100  0.662000  0.696400  1
  C  C294  1  0.623100  0.838000  0.303600  1
  C  C295  1  0.876900  0.338000  0.303600  1
  C  C296  1  0.376900  0.162000  0.696400  1
  C  C297  1  0.070300  0.722000  0.689400  1
  C  C298  1  0.570300  0.778000  0.310600  1
  C  C299  1  0.929700  0.278000  0.310600  1
  C  C300  1  0.429700  0.222000  0.689400  1
  C  C301  1  0.987200  0.727900  0.650800  1
  C  C302  1  0.487200  0.772100  0.349200  1
  C  C303  1  0.012800  0.272100  0.349200  1
  C  C304  1  0.512800  0.227900  0.650800  1
  C  C305  1  0.960800  0.677600  0.618600  1
  C  C306  1  0.460800  0.822400  0.381400  1
  C  C307  1  0.039200  0.322400  0.381400  1
  C  C308  1  0.539200  0.177600  0.618600  1
  C  C309  1  0.014300  0.617200  0.625200  1
  C  C310  1  0.514300  0.882800  0.374800  1
  C  C311  1  0.985700  0.382800  0.374800  1
  C  C312  1  0.485700  0.117200  0.625200  1
  C  C313  1  0.096000  0.607600  0.665000  1
  C  C314  1  0.596000  0.892400  0.335000  1
  C  C315  1  0.904000  0.392400  0.335000  1
  C  C316  1  0.404000  0.107600  0.665000  1
  C  C317  1  0.876500  0.684800  0.576300  1
  C  C318  1  0.376500  0.815200  0.423700  1
  C  C319  1  0.123500  0.315200  0.423700  1
  C  C320  1  0.623500  0.184800  0.576300  1
  C  C321  1  0.049000  0.332400  0.731600  1
  C  C322  1  0.549000  0.167600  0.268400  1
  C  C323  1  0.951000  0.667600  0.268400  1
  C  C324  1  0.451000  0.832400  0.731600  1
  C  C325  1  0.002100  0.286800  0.699300  1
  C  C326  1  0.502100  0.213200  0.300700  1
  C  C327  1  0.997900  0.713200  0.300700  1
  C  C328  1  0.497900  0.786800  0.699300  1
  C  C329  1  0.885800  0.284900  0.691300  1
  C  C330  1  0.385800  0.215100  0.308700  1
  C  C331  1  0.114200  0.715100  0.308700  1
  C  C332  1  0.614200  0.784900  0.691300  1
  C  C333  1  0.817500  0.329200  0.718900  1
  C  C334  1  0.317500  0.170800  0.281100  1
  C  C335  1  0.182500  0.670800  0.281100  1
  C  C336  1  0.682500  0.829200  0.718900  1
  C  C337  1  0.864800  0.373900  0.752300  1
  C  C338  1  0.364800  0.126100  0.247700  1
  C  C339  1  0.135200  0.626100  0.247700  1
  C  C340  1  0.635200  0.873900  0.752300  1
  C  C341  1  0.803000  0.419800  0.786600  1
  C  C342  1  0.303000  0.080200  0.213400  1
  C  C343  1  0.197000  0.580200  0.213400  1
  C  C344  1  0.697000  0.919800  0.786600  1
  C  C345  1  0.685000  0.424200  0.788600  1
  C  C346  1  0.185000  0.075800  0.211400  1
  C  C347  1  0.315000  0.575800  0.211400  1
  C  C348  1  0.815000  0.924200  0.788600  1
  C  C349  1  0.632200  0.465800  0.822800  1
  C  C350  1  0.132200  0.034200  0.177200  1
  C  C351  1  0.367800  0.534200  0.177200  1
  C  C352  1  0.867800  0.965800  0.822800  1
  C  C353  1  0.702100  0.504500  0.857400  1
  C  C354  1  0.202100  0.995500  0.142600  1
  C  C355  1  0.297900  0.495500  0.142600  1
  C  C356  1  0.797900  0.004500  0.857400  1
  C  C357  1  0.817800  0.500500  0.853700  1
  C  C358  1  0.317800  0.999500  0.146300  1
  C  C359  1  0.182200  0.499500  0.146300  1
  C  C360  1  0.682200  0.000500  0.853700  1
  C  C361  1  0.873200  0.457700  0.817800  1
  C  C362  1  0.373200  0.042300  0.182200  1
  C  C363  1  0.126800  0.542300  0.182200  1
  C  C364  1  0.626800  0.957700  0.817800  1
  C  C365  1  0.644500  0.552300  0.895500  1
  C  C366  1  0.144500  0.947700  0.104500  1
  C  C367  1  0.355500  0.447700  0.104500  1
  C  C368  1  0.855500  0.052300  0.895500  1
  C  C369  1  0.096600  0.580500  0.848600  1
  C  C370  1  0.596600  0.919500  0.151400  1
  C  C371  1  0.903400  0.419500  0.151400  1
  C  C372  1  0.403400  0.080500  0.848600  1
  C  C373  1  0.120800  0.626100  0.887200  1
  C  C374  1  0.620800  0.873900  0.112800  1
  C  C375  1  0.879200  0.373900  0.112800  1
  C  C376  1  0.379200  0.126100  0.887200  1
  C  C377  1  0.132100  0.606100  0.937700  1
  C  C378  1  0.632100  0.893900  0.062300  1
  C  C379  1  0.867900  0.393900  0.062300  1
  C  C380  1  0.367900  0.106100  0.937700  1
  C  C381  1  0.121600  0.540200  0.950000  1
  C  C382  1  0.621600  0.959800  0.050000  1
  C  C383  1  0.878400  0.459800  0.050000  1
  C  C384  1  0.378400  0.040200  0.950000  1
  C  C385  1  0.094800  0.496000  0.910300  1
  C  C386  1  0.594800  0.004000  0.089700  1
  C  C387  1  0.905200  0.504000  0.089700  1
  C  C388  1  0.405200  0.996000  0.910300  1
  C  C389  1  0.073800  0.425500  0.915400  1
  C  C390  1  0.573800  0.074500  0.084600  1
  C  C391  1  0.926200  0.574500  0.084600  1
  C  C392  1  0.426200  0.925500  0.915400  1
  C  C393  1  0.079800  0.395900  0.963200  1
  C  C394  1  0.579800  0.104100  0.036800  1
  C  C395  1  0.920200  0.604100  0.036800  1
  C  C396  1  0.420200  0.895900  0.963200  1
  C  C397  1  0.059200  0.328400  0.965700  1
  C  C398  1  0.559200  0.171600  0.034300  1
  C  C399  1  0.940800  0.671600  0.034300  1
  C  C400  1  0.440800  0.828400  0.965700  1
  C  C401  1  0.028200  0.294100  0.920200  1
  C  C402  1  0.528200  0.205900  0.079800  1
  C  C403  1  0.971800  0.705900  0.079800  1
  C  C404  1  0.471800  0.794100  0.920200  1
  C  C405  1  0.023400  0.326400  0.873500  1
  C  C406  1  0.523400  0.173600  0.126500  1
  C  C407  1  0.976600  0.673600  0.126500  1
  C  C408  1  0.476600  0.826400  0.873500  1
  C  C409  1  0.048600  0.392600  0.870100  1
  C  C410  1  0.548600  0.107400  0.129900  1
  C  C411  1  0.951400  0.607400  0.129900  1
  C  C412  1  0.451400  0.892600  0.870100  1
  C  C413  1  0.002600  0.221900  0.923600  1
  C  C414  1  0.502600  0.278100  0.076400  1
  C  C415  1  0.997400  0.778100  0.076400  1
  C  C416  1  0.497400  0.721900  0.923600  1
  C  C417  1  0.305600  0.403600  0.800600  1
  C  C418  1  0.805600  0.096400  0.199400  1
  C  C419  1  0.694400  0.596400  0.199400  1
  C  C420  1  0.194400  0.903600  0.800600  1
  C  C421  1  0.382900  0.382300  0.762100  1
  C  C422  1  0.882900  0.117700  0.237900  1
  C  C423  1  0.617100  0.617700  0.237900  1
  C  C424  1  0.117100  0.882300  0.762100  1
  C  C425  1  0.340700  0.407000  0.716500  1
  C  C426  1  0.840700  0.093000  0.283500  1
  C  C427  1  0.659300  0.593000  0.283500  1
  C  C428  1  0.159300  0.907000  0.716500  1
  C  C429  1  0.326400  0.392700  0.857500  1
  C  C430  1  0.826400  0.107300  0.142500  1
  C  C431  1  0.673600  0.607300  0.142500  1
  C  C432  1  0.173600  0.892700  0.857500  1
  C  C433  1  0.343500  0.449700  0.888400  1
  C  C434  1  0.843500  0.050300  0.111600  1
  C  C435  1  0.656500  0.550300  0.111600  1
  C  C436  1  0.156500  0.949700  0.888400  1
  C  C437  1  0.373300  0.441000  0.939400  1
  C  C438  1  0.873300  0.059000  0.060600  1
  C  C439  1  0.626700  0.559000  0.060600  1
  C  C440  1  0.126700  0.941000  0.939400  1
  C  C441  1  0.386400  0.379800  0.960900  1
  C  C442  1  0.886400  0.120200  0.039100  1
  C  C443  1  0.613600  0.620200  0.039100  1
  C  C444  1  0.113600  0.879800  0.960900  1
  C  C445  1  0.370100  0.327200  0.930900  1
  C  C446  1  0.870100  0.172800  0.069100  1
  C  C447  1  0.629900  0.672800  0.069100  1
  C  C448  1  0.129900  0.827200  0.930900  1
  C  C449  1  0.341700  0.333400  0.878600  1
  C  C450  1  0.841700  0.166600  0.121400  1
  C  C451  1  0.658300  0.666600  0.121400  1
  C  C452  1  0.158300  0.833400  0.878600  1
  C  C453  1  0.387000  0.397300  0.663500  1
  C  C454  1  0.887000  0.102700  0.336500  1
  C  C455  1  0.613000  0.602700  0.336500  1
  C  C456  1  0.113000  0.897300  0.663500  1
  C  C457  1  0.321000  0.368700  0.624200  1
  C  C458  1  0.821000  0.131300  0.375800  1
  C  C459  1  0.679000  0.631300  0.375800  1
  C  C460  1  0.179000  0.868700  0.624200  1
  C  C461  1  0.358500  0.352200  0.576300  1
  C  C462  1  0.858500  0.147800  0.423700  1
  C  C463  1  0.641500  0.647800  0.423700  1
  C  C464  1  0.141500  0.852200  0.576300  1
  C  C465  1  0.468000  0.362600  0.566500  1
  C  C466  1  0.968000  0.137400  0.433500  1
  C  C467  1  0.532000  0.637400  0.433500  1
  C  C468  1  0.032000  0.862600  0.566500  1
  C  C469  1  0.549400  0.394400  0.602500  1
  C  C470  1  0.049400  0.105600  0.397500  1
  C  C471  1  0.450600  0.605600  0.397500  1
  C  C472  1  0.950600  0.894400  0.602500  1
  C  C473  1  0.505300  0.414200  0.653900  1
  C  C474  1  0.005300  0.085800  0.346100  1
  C  C475  1  0.494700  0.585800  0.346100  1
  C  C476  1  0.994700  0.914200  0.653900  1
  C  C477  1  0.260200  0.694800  0.564900  1
  C  C478  1  0.760200  0.805200  0.435100  1
  C  C479  1  0.739800  0.305200  0.435100  1
  C  C480  1  0.239800  0.194800  0.564900  1
  N  N481  1  0.096700  0.473300  0.628000  1
  N  N482  1  0.596700  0.026700  0.372000  1
  N  N483  1  0.903300  0.526700  0.372000  1
  N  N484  1  0.403300  0.973300  0.628000  1
  N  N485  1  0.247800  0.587800  0.738000  1
  N  N486  1  0.747800  0.912200  0.262000  1
  N  N487  1  0.752200  0.412200  0.262000  1
  N  N488  1  0.252200  0.087800  0.738000  1
  N  N489  1  0.983400  0.376000  0.758300  1
  N  N490  1  0.483400  0.124000  0.241700  1
  N  N491  1  0.016600  0.624000  0.241700  1
  N  N492  1  0.516600  0.876000  0.758300  1
  N  N493  1  0.085300  0.517000  0.859900  1
  N  N494  1  0.585300  0.983000  0.140100  1
  N  N495  1  0.914700  0.483000  0.140100  1
  N  N496  1  0.414700  0.017000  0.859900  1
  N  N497  1  0.221000  0.436500  0.779600  1
  N  N498  1  0.721000  0.063500  0.220400  1
  N  N499  1  0.779000  0.563500  0.220400  1
  N  N500  1  0.279000  0.936500  0.779600  1
  N  N501  1  0.242100  0.440700  0.727200  1
  N  N502  1  0.742100  0.059300  0.272800  1
  N  N503  1  0.757900  0.559300  0.272800  1
  N  N504  1  0.257900  0.940700  0.727200  1
  Cl  Cl505  1  0.193600  0.701680  0.503290  1
  Cl  Cl506  1  0.693600  0.798320  0.496710  1
  Cl  Cl507  1  0.806400  0.298320  0.496710  1
  Cl  Cl508  1  0.306400  0.201680  0.503290  1
  Cl  Cl509  1  0.385300  0.743150  0.568590  1
  Cl  Cl510  1  0.885300  0.756850  0.431410  1
  Cl  Cl511  1  0.614700  0.256850  0.431410  1
  Cl  Cl512  1  0.114700  0.243150  0.568590  1
  O  O513  1  0.036100  0.513300  0.742800  1
  O  O514  1  0.536100  0.986700  0.257200  1
  O  O515  1  0.963900  0.486700  0.257200  1
  O  O516  1  0.463900  0.013300  0.742800  1
