# generated using pymatgen
data_ReB7H14(C4O)3
_symmetry_space_group_name_H-M   'P 1'
_cell_length_a   6.34880000
_cell_length_b   15.13330000
_cell_length_c   16.12550000
_cell_angle_alpha   90.00000000
_cell_angle_beta   90.46700000
_cell_angle_gamma   90.00000000
_symmetry_Int_Tables_number   1
_chemical_formula_structural   ReB7H14(C4O)3
_chemical_formula_sum   'Re4 B28 H56 C48 O12'
_cell_volume   1549.25908373
_cell_formula_units_Z   4
loop_
 _symmetry_equiv_pos_site_id
 _symmetry_equiv_pos_as_xyz
  1  'x, y, z'
loop_
 _atom_site_type_symbol
 _atom_site_label
 _atom_site_symmetry_multiplicity
 _atom_site_fract_x
 _atom_site_fract_y
 _atom_site_fract_z
 _atom_site_occupancy
  Re  Re1  1  0.422620  0.558450  0.802459  1
  Re  Re2  1  0.077380  0.058450  0.697541  1
  Re  Re3  1  0.577380  0.441550  0.197541  1
  Re  Re4  1  0.922620  0.941550  0.302459  1
  B  B5  1  0.147900  0.453400  0.765100  1
  B  B6  1  0.352100  0.953400  0.734900  1
  B  B7  1  0.852100  0.546600  0.234900  1
  B  B8  1  0.647900  0.046600  0.265100  1
  B  B9  1  0.135400  0.559200  0.700100  1
  B  B10  1  0.364600  0.059200  0.799900  1
  B  B11  1  0.864600  0.440800  0.299900  1
  B  B12  1  0.635400  0.940800  0.200100  1
  B  B13  1  0.526300  0.524400  0.653900  1
  B  B14  1  0.973700  0.024400  0.846100  1
  B  B15  1  0.473700  0.475600  0.346100  1
  B  B16  1  0.026300  0.975600  0.153900  1
  B  B17  1  0.272900  0.369000  0.701500  1
  B  B18  1  0.227100  0.869000  0.798500  1
  B  B19  1  0.727100  0.631000  0.298500  1
  B  B20  1  0.772900  0.131000  0.201500  1
  B  B21  1  0.266800  0.530400  0.603100  1
  B  B22  1  0.233200  0.030400  0.896900  1
  B  B23  1  0.733200  0.469600  0.396900  1
  B  B24  1  0.766800  0.969600  0.103100  1
  B  B25  1  0.385000  0.428000  0.619600  1
  B  B26  1  0.115000  0.928000  0.880400  1
  B  B27  1  0.615000  0.572000  0.380400  1
  B  B28  1  0.885000  0.072000  0.119600  1
  B  B29  1  0.116700  0.449300  0.654100  1
  B  B30  1  0.383300  0.949300  0.845900  1
  B  B31  1  0.883300  0.550700  0.345900  1
  B  B32  1  0.616700  0.050700  0.154100  1
  H  H33  1  0.388700  0.668700  0.666500  1
  H  H34  1  0.111300  0.168700  0.833500  1
  H  H35  1  0.611300  0.331300  0.333500  1
  H  H36  1  0.888700  0.831300  0.166500  1
  H  H37  1  0.668200  0.393000  0.716800  1
  H  H38  1  0.831800  0.893000  0.783200  1
  H  H39  1  0.331800  0.607000  0.283200  1
  H  H40  1  0.168200  0.107000  0.216800  1
  H  H41  1  0.018100  0.442200  0.808600  1
  H  H42  1  0.481900  0.942200  0.691400  1
  H  H43  1  0.981900  0.557800  0.191400  1
  H  H44  1  0.518100  0.057800  0.308600  1
  H  H45  1  0.000000  0.603700  0.707600  1
  H  H46  1  0.500000  0.103700  0.792400  1
  H  H47  1  0.000000  0.396300  0.292400  1
  H  H48  1  0.500000  0.896300  0.207600  1
  H  H49  1  0.681100  0.543700  0.629700  1
  H  H50  1  0.818900  0.043700  0.870300  1
  H  H51  1  0.318900  0.456300  0.370300  1
  H  H52  1  0.181100  0.956300  0.129700  1
  H  H53  1  0.233700  0.298600  0.694500  1
  H  H54  1  0.266300  0.798600  0.805500  1
  H  H55  1  0.766300  0.701400  0.305500  1
  H  H56  1  0.733700  0.201400  0.194500  1
  H  H57  1  0.225000  0.550400  0.539500  1
  H  H58  1  0.275000  0.050400  0.960500  1
  H  H59  1  0.775000  0.449600  0.460500  1
  H  H60  1  0.725000  0.949600  0.039500  1
  H  H61  1  0.437400  0.390600  0.565000  1
  H  H62  1  0.062600  0.890600  0.935000  1
  H  H63  1  0.562600  0.609400  0.435000  1
  H  H64  1  0.937400  0.109400  0.065000  1
  H  H65  1  0.967300  0.427600  0.625700  1
  H  H66  1  0.532700  0.927600  0.874300  1
  H  H67  1  0.032700  0.572400  0.374300  1
  H  H68  1  0.467300  0.072400  0.125700  1
  H  H69  1  0.725600  0.323300  0.823400  1
  H  H70  1  0.774400  0.823300  0.676600  1
  H  H71  1  0.274400  0.676700  0.176600  1
  H  H72  1  0.225600  0.176700  0.323400  1
  H  H73  1  0.796900  0.224500  0.929700  1
  H  H74  1  0.703100  0.724500  0.570300  1
  H  H75  1  0.203100  0.775500  0.070300  1
  H  H76  1  0.296900  0.275500  0.429700  1
  H  H77  1  0.540300  0.190600  0.025800  1
  H  H78  1  0.959700  0.690600  0.474200  1
  H  H79  1  0.459700  0.809400  0.974200  1
  H  H80  1  0.040300  0.309400  0.525800  1
  H  H81  1  0.216900  0.259300  0.018500  1
  H  H82  1  0.283100  0.759300  0.481500  1
  H  H83  1  0.783100  0.740700  0.981500  1
  H  H84  1  0.716900  0.240700  0.518500  1
  H  H85  1  0.143100  0.359200  0.913600  1
  H  H86  1  0.356900  0.859200  0.586400  1
  H  H87  1  0.856900  0.640800  0.086400  1
  H  H88  1  0.643100  0.140800  0.413600  1
  C  C89  1  0.376000  0.415000  0.788500  1
  C  C90  1  0.124000  0.915000  0.711500  1
  C  C91  1  0.624000  0.585000  0.211500  1
  C  C92  1  0.876000  0.085000  0.288500  1
  C  C93  1  0.357000  0.597900  0.675500  1
  C  C94  1  0.143000  0.097900  0.824500  1
  C  C95  1  0.643000  0.402100  0.324500  1
  C  C96  1  0.857000  0.902100  0.175500  1
  C  C97  1  0.513700  0.425600  0.712700  1
  C  C98  1  0.986300  0.925600  0.787300  1
  C  C99  1  0.486300  0.574400  0.287300  1
  C  C100  1  0.013700  0.074400  0.212700  1
  C  C101  1  0.426900  0.351800  0.857500  1
  C  C102  1  0.073100  0.851800  0.642500  1
  C  C103  1  0.573100  0.648200  0.142500  1
  C  C104  1  0.926900  0.148200  0.357500  1
  C  C105  1  0.623000  0.310800  0.862600  1
  C  C106  1  0.877000  0.810800  0.637400  1
  C  C107  1  0.377000  0.689200  0.137400  1
  C  C108  1  0.123000  0.189200  0.362600  1
  C  C109  1  0.665200  0.251200  0.926100  1
  C  C110  1  0.834800  0.751200  0.573900  1
  C  C111  1  0.334800  0.748800  0.073900  1
  C  C112  1  0.165200  0.248800  0.426100  1
  C  C113  1  0.512400  0.231300  0.984000  1
  C  C114  1  0.987600  0.731300  0.516000  1
  C  C115  1  0.487600  0.768700  0.016000  1
  C  C116  1  0.012400  0.268700  0.484000  1
  C  C117  1  0.318900  0.272100  0.979200  1
  C  C118  1  0.181100  0.772100  0.520800  1
  C  C119  1  0.681100  0.727900  0.020800  1
  C  C120  1  0.818900  0.227900  0.479200  1
  C  C121  1  0.274500  0.332100  0.916400  1
  C  C122  1  0.225500  0.832100  0.583600  1
  C  C123  1  0.725500  0.667900  0.083600  1
  C  C124  1  0.774500  0.167900  0.416400  1
  C  C125  1  0.607100  0.523200  0.895600  1
  C  C126  1  0.892900  0.023200  0.604400  1
  C  C127  1  0.392900  0.476800  0.104400  1
  C  C128  1  0.107100  0.976800  0.395600  1
  C  C129  1  0.229300  0.606500  0.880300  1
  C  C130  1  0.270700  0.106500  0.619700  1
  C  C131  1  0.770700  0.393500  0.119700  1
  C  C132  1  0.729300  0.893500  0.380300  1
  C  C133  1  0.583300  0.668500  0.805800  1
  C  C134  1  0.916700  0.168500  0.694200  1
  C  C135  1  0.416700  0.331500  0.194200  1
  C  C136  1  0.083300  0.831500  0.305800  1
  O  O137  1  0.717000  0.503200  0.948740  1
  O  O138  1  0.783000  0.003200  0.551260  1
  O  O139  1  0.283000  0.496800  0.051260  1
  O  O140  1  0.217000  0.996800  0.448740  1
  O  O141  1  0.102800  0.635200  0.922140  1
  O  O142  1  0.397200  0.135200  0.577860  1
  O  O143  1  0.897200  0.364800  0.077860  1
  O  O144  1  0.602800  0.864800  0.422140  1
  O  O145  1  0.677800  0.732100  0.808210  1
  O  O146  1  0.822200  0.232100  0.691790  1
  O  O147  1  0.322200  0.267900  0.191790  1
  O  O148  1  0.177800  0.767900  0.308210  1
