# generated using pymatgen
data_FeH30(C7N)6
_symmetry_space_group_name_H-M   'P 1'
_cell_length_a   18.82739228
_cell_length_b   18.82739228
_cell_length_c   18.82739228
_cell_angle_alpha   109.47122063
_cell_angle_beta   109.47122063
_cell_angle_gamma   109.47122063
_symmetry_Int_Tables_number   1
_chemical_formula_structural   FeH30(C7N)6
_chemical_formula_sum   'Fe4 H120 C168 N24'
_cell_volume   5137.46201200
_cell_formula_units_Z   4
loop_
 _symmetry_equiv_pos_site_id
 _symmetry_equiv_pos_as_xyz
  1  'x, y, z'
loop_
 _atom_site_type_symbol
 _atom_site_label
 _atom_site_symmetry_multiplicity
 _atom_site_fract_x
 _atom_site_fract_y
 _atom_site_fract_z
 _atom_site_occupancy
  C  C1  1  0.462100  0.338000  0.457900  1.0
  C  C2  1  0.537900  0.995800  0.875900  1.0
  C  C3  1  0.119900  0.662000  0.124100  1.0
  C  C4  1  0.880100  0.004200  0.542100  1.0
  C  C5  1  0.338000  0.457900  0.462100  1.0
  C  C6  1  0.995800  0.875900  0.537900  1.0
  C  C7  1  0.662000  0.124100  0.119900  1.0
  C  C8  1  0.004200  0.542100  0.880100  1.0
  C  C9  1  0.457900  0.462100  0.338000  1.0
  C  C10  1  0.875900  0.537900  0.995800  1.0
  C  C11  1  0.124100  0.119900  0.662000  1.0
  C  C12  1  0.542100  0.880100  0.004200  1.0
  C  C13  1  0.467900  0.264600  0.424500  1.0
  C  C14  1  0.532100  0.956600  0.796700  1.0
  C  C15  1  0.159900  0.735400  0.203300  1.0
  C  C16  1  0.840100  0.043400  0.575500  1.0
  C  C17  1  0.264600  0.424500  0.467900  1.0
  C  C18  1  0.956600  0.796700  0.532100  1.0
  C  C19  1  0.735400  0.203300  0.159900  1.0
  C  C20  1  0.043400  0.575500  0.840100  1.0
  C  C21  1  0.424500  0.467900  0.264600  1.0
  C  C22  1  0.796700  0.532100  0.956600  1.0
  C  C23  1  0.203300  0.159900  0.735400  1.0
  C  C24  1  0.575500  0.840100  0.043400  1.0
  C  C25  1  0.537200  0.267400  0.412400  1.0
  C  C26  1  0.462800  0.875200  0.730200  1.0
  C  C27  1  0.145000  0.732600  0.269800  1.0
  C  C28  1  0.855000  0.124800  0.587600  1.0
  C  C29  1  0.267400  0.412400  0.537200  1.0
  C  C30  1  0.875200  0.730200  0.462800  1.0
  C  C31  1  0.732600  0.269800  0.145000  1.0
  C  C32  1  0.124800  0.587600  0.855000  1.0
  C  C33  1  0.412400  0.537200  0.267400  1.0
  C  C34  1  0.730200  0.462800  0.875200  1.0
  C  C35  1  0.269800  0.145000  0.732600  1.0
  C  C36  1  0.587600  0.855000  0.124800  1.0
  C  C37  1  0.602000  0.347500  0.436700  1.0
  C  C38  1  0.398000  0.834700  0.745500  1.0
  C  C39  1  0.089200  0.652500  0.254500  1.0
  C  C40  1  0.910800  0.165300  0.563300  1.0
  C  C41  1  0.347500  0.436700  0.602000  1.0
  C  C42  1  0.834700  0.745500  0.398000  1.0
  C  C43  1  0.652500  0.254500  0.089200  1.0
  C  C44  1  0.165300  0.563300  0.910800  1.0
  C  C45  1  0.436700  0.602000  0.347500  1.0
  C  C46  1  0.745500  0.398000  0.834700  1.0
  C  C47  1  0.254500  0.089200  0.652500  1.0
  C  C48  1  0.563300  0.910800  0.165300  1.0
  C  C49  1  0.593580  0.420220  0.471600  1.0
  C  C50  1  0.406420  0.878020  0.826640  1.0
  C  C51  1  0.051380  0.579780  0.173360  1.0
  C  C52  1  0.948620  0.121980  0.528400  1.0
  C  C53  1  0.420220  0.471600  0.593580  1.0
  C  C54  1  0.878020  0.826640  0.406420  1.0
  C  C55  1  0.579780  0.173360  0.051380  1.0
  C  C56  1  0.121980  0.528400  0.948620  1.0
  C  C57  1  0.471600  0.593580  0.420220  1.0
  C  C58  1  0.826640  0.406420  0.878020  1.0
  C  C59  1  0.173360  0.051380  0.579780  1.0
  C  C60  1  0.528400  0.948620  0.121980  1.0
  C  C61  1  0.660100  0.508700  0.504200  1.0
  C  C62  1  0.339900  0.844100  0.848600  1.0
  C  C63  1  0.995500  0.491300  0.151400  1.0
  C  C64  1  0.004500  0.155900  0.495800  1.0
  C  C65  1  0.508700  0.504200  0.660100  1.0
  C  C66  1  0.844100  0.848600  0.339900  1.0
  C  C67  1  0.491300  0.151400  0.995500  1.0
  C  C68  1  0.155900  0.495800  0.004500  1.0
  C  C69  1  0.504200  0.660100  0.508700  1.0
  C  C70  1  0.848600  0.339900  0.844100  1.0
  C  C71  1  0.151400  0.995500  0.491300  1.0
  C  C72  1  0.495800  0.004500  0.155900  1.0
  C  C73  1  0.717760  0.657670  0.576850  1.0
  C  C74  1  0.282240  0.859090  0.939910  1.0
  C  C75  1  0.919180  0.342330  0.060090  1.0
  C  C76  1  0.080820  0.140910  0.423150  1.0
  C  C77  1  0.657670  0.576850  0.717760  1.0
  C  C78  1  0.859090  0.939910  0.282240  1.0
  C  C79  1  0.342330  0.060090  0.919180  1.0
  C  C80  1  0.140910  0.423150  0.080820  1.0
  C  C81  1  0.576850  0.717760  0.657670  1.0
  C  C82  1  0.939910  0.282240  0.859090  1.0
  C  C83  1  0.060090  0.919180  0.342330  1.0
  C  C84  1  0.423150  0.080820  0.140910  1.0
  C  C85  1  0.710960  0.710560  0.543380  1.0
  C  C86  1  0.289040  0.832420  0.999600  1.0
  C  C87  1  0.832820  0.289440  0.000400  1.0
  C  C88  1  0.167180  0.167580  0.456620  1.0
  C  C89  1  0.710560  0.543380  0.710960  1.0
  C  C90  1  0.832420  0.999600  0.289040  1.0
  C  C91  1  0.289440  0.000400  0.832820  1.0
  C  C92  1  0.167580  0.456620  0.167180  1.0
  C  C93  1  0.543380  0.710960  0.710560  1.0
  C  C94  1  0.999600  0.289040  0.832420  1.0
  C  C95  1  0.000400  0.832820  0.289440  1.0
  C  C96  1  0.456620  0.167180  0.167580  1.0
  C  C97  1  0.779340  0.793220  0.582900  1.0
  C  C98  1  0.220660  0.803560  0.013880  1.0
  C  C99  1  0.789680  0.206780  0.986120  1.0
  C  C100  1  0.210320  0.196440  0.417100  1.0
  C  C101  1  0.793220  0.582900  0.779340  1.0
  C  C102  1  0.803560  0.013880  0.220660  1.0
  C  C103  1  0.206780  0.986120  0.789680  1.0
  C  C104  1  0.196440  0.417100  0.210320  1.0
  C  C105  1  0.582900  0.779340  0.793220  1.0
  C  C106  1  0.013880  0.220660  0.803560  1.0
  C  C107  1  0.986120  0.789680  0.206780  1.0
  C  C108  1  0.417100  0.210320  0.196440  1.0
  C  C109  1  0.856000  0.822580  0.656480  1.0
  C  C110  1  0.144000  0.800480  0.966580  1.0
  C  C111  1  0.833900  0.177420  0.033420  1.0
  C  C112  1  0.166100  0.199520  0.343520  1.0
  C  C113  1  0.822580  0.656480  0.856000  1.0
  C  C114  1  0.800480  0.966580  0.144000  1.0
  C  C115  1  0.177420  0.033420  0.833900  1.0
  C  C116  1  0.199520  0.343520  0.166100  1.0
  C  C117  1  0.656480  0.856000  0.822580  1.0
  C  C118  1  0.966580  0.144000  0.800480  1.0
  C  C119  1  0.033420  0.833900  0.177420  1.0
  C  C120  1  0.343520  0.166100  0.199520  1.0
  C  C121  1  0.862480  0.765790  0.686490  1.0
  C  C122  1  0.137520  0.824010  0.903310  1.0
  C  C123  1  0.920700  0.234210  0.096690  1.0
  C  C124  1  0.079300  0.175990  0.313510  1.0
  C  C125  1  0.765790  0.686490  0.862480  1.0
  C  C126  1  0.824010  0.903310  0.137520  1.0
  C  C127  1  0.234210  0.096690  0.920700  1.0
  C  C128  1  0.175990  0.313510  0.079300  1.0
  C  C129  1  0.686490  0.862480  0.765790  1.0
  C  C130  1  0.903310  0.137520  0.824010  1.0
  C  C131  1  0.096690  0.920700  0.234210  1.0
  C  C132  1  0.313510  0.079300  0.175990  1.0
  C  C133  1  0.794730  0.686610  0.649120  1.0
  C  C134  1  0.205270  0.854390  0.891880  1.0
  C  C135  1  0.962510  0.313390  0.108120  1.0
  C  C136  1  0.037490  0.145610  0.350880  1.0
  C  C137  1  0.686610  0.649120  0.794730  1.0
  C  C138  1  0.854390  0.891880  0.205270  1.0
  C  C139  1  0.313390  0.108120  0.962510  1.0
  C  C140  1  0.145610  0.350880  0.037490  1.0
  C  C141  1  0.649120  0.794730  0.686610  1.0
  C  C142  1  0.891880  0.205270  0.854390  1.0
  C  C143  1  0.108120  0.962510  0.313390  1.0
  C  C144  1  0.350880  0.037490  0.145610  1.0
  C  C145  1  0.930030  0.914940  0.705890  1.0
  C  C146  1  0.069970  0.775860  0.984910  1.0
  C  C147  1  0.790950  0.085060  0.015090  1.0
  C  C148  1  0.209050  0.224140  0.294110  1.0
  C  C149  1  0.914940  0.705890  0.930030  1.0
  C  C150  1  0.775860  0.984910  0.069970  1.0
  C  C151  1  0.085060  0.015090  0.790950  1.0
  C  C152  1  0.224140  0.294110  0.209050  1.0
  C  C153  1  0.705890  0.930030  0.914940  1.0
  C  C154  1  0.984910  0.069970  0.775860  1.0
  C  C155  1  0.015090  0.790950  0.085060  1.0
  C  C156  1  0.294110  0.209050  0.224140  1.0
  C  C157  1  0.015900  0.931000  0.739380  1.0
  C  C158  1  0.984100  0.723480  0.915100  1.0
  C  C159  1  0.808380  0.069000  0.084900  1.0
  C  C160  1  0.191620  0.276520  0.260620  1.0
  C  C161  1  0.931000  0.739380  0.015900  1.0
  C  C162  1  0.723480  0.915100  0.984100  1.0
  C  C163  1  0.069000  0.084900  0.808380  1.0
  C  C164  1  0.276520  0.260620  0.191620  1.0
  C  C165  1  0.739380  0.015900  0.931000  1.0
  C  C166  1  0.915100  0.984100  0.723480  1.0
  C  C167  1  0.084900  0.808380  0.069000  1.0
  C  C168  1  0.260620  0.191620  0.276520  1.0
  Fe  Fe169  1  0.531380  0.531380  0.531380  1.0
  Fe  Fe170  1  0.468620  1.000000  1.000000  1.0
  Fe  Fe171  1  0.000000  0.468620  0.000000  1.0
  Fe  Fe172  1  0.000000  0.000000  0.468620  1.0
  H  H173  1  0.413200  0.333500  0.464500  1.0
  H  H174  1  0.586800  0.051300  0.920300  1.0
  H  H175  1  0.131000  0.666500  0.079700  1.0
  H  H176  1  0.869000  0.948700  0.535500  1.0
  H  H177  1  0.333500  0.464500  0.413200  1.0
  H  H178  1  0.051300  0.920300  0.586800  1.0
  H  H179  1  0.666500  0.079700  0.131000  1.0
  H  H180  1  0.948700  0.535500  0.869000  1.0
  H  H181  1  0.464500  0.413200  0.333500  1.0
  H  H182  1  0.920300  0.586800  0.051300  1.0
  H  H183  1  0.079700  0.131000  0.666500  1.0
  H  H184  1  0.535500  0.869000  0.948700  1.0
  H  H185  1  0.423200  0.210500  0.409300  1.0
  H  H186  1  0.576800  0.986100  0.787300  1.0
  H  H187  1  0.198800  0.789500  0.212700  1.0
  H  H188  1  0.801200  0.013900  0.590700  1.0
  H  H189  1  0.210500  0.409300  0.423200  1.0
  H  H190  1  0.986100  0.787300  0.576800  1.0
  H  H191  1  0.789500  0.212700  0.198800  1.0
  H  H192  1  0.013900  0.590700  0.801200  1.0
  H  H193  1  0.409300  0.423200  0.210500  1.0
  H  H194  1  0.787300  0.576800  0.986100  1.0
  H  H195  1  0.212700  0.198800  0.789500  1.0
  H  H196  1  0.590700  0.801200  0.013900  1.0
  H  H197  1  0.540000  0.216000  0.388000  1.0
  H  H198  1  0.460000  0.848000  0.676000  1.0
  H  H199  1  0.172000  0.784000  0.324000  1.0
  H  H200  1  0.828000  0.152000  0.612000  1.0
  H  H201  1  0.216000  0.388000  0.540000  1.0
  H  H202  1  0.848000  0.676000  0.460000  1.0
  H  H203  1  0.784000  0.324000  0.172000  1.0
  H  H204  1  0.152000  0.612000  0.828000  1.0
  H  H205  1  0.388000  0.540000  0.216000  1.0
  H  H206  1  0.676000  0.460000  0.848000  1.0
  H  H207  1  0.324000  0.172000  0.784000  1.0
  H  H208  1  0.612000  0.828000  0.152000  1.0
  H  H209  1  0.650900  0.352800  0.429900  1.0
  H  H210  1  0.349100  0.779000  0.701900  1.0
  H  H211  1  0.077100  0.647200  0.298100  1.0
  H  H212  1  0.922900  0.221000  0.570100  1.0
  H  H213  1  0.352800  0.429900  0.650900  1.0
  H  H214  1  0.779000  0.701900  0.349100  1.0
  H  H215  1  0.647200  0.298100  0.077100  1.0
  H  H216  1  0.221000  0.570100  0.922900  1.0
  H  H217  1  0.429900  0.650900  0.352800  1.0
  H  H218  1  0.701900  0.349100  0.779000  1.0
  H  H219  1  0.298100  0.077100  0.647200  1.0
  H  H220  1  0.570100  0.922900  0.221000  1.0
  H  H221  1  0.711600  0.520000  0.500800  1.0
  H  H222  1  0.288400  0.789200  0.808400  1.0
  H  H223  1  0.980800  0.480000  0.191600  1.0
  H  H224  1  0.019200  0.210800  0.499200  1.0
  H  H225  1  0.520000  0.500800  0.711600  1.0
  H  H226  1  0.789200  0.808400  0.288400  1.0
  H  H227  1  0.480000  0.191600  0.980800  1.0
  H  H228  1  0.210800  0.499200  0.019200  1.0
  H  H229  1  0.500800  0.711600  0.520000  1.0
  H  H230  1  0.808400  0.288400  0.789200  1.0
  H  H231  1  0.191600  0.980800  0.480000  1.0
  H  H232  1  0.499200  0.019200  0.210800  1.0
  H  H233  1  0.658800  0.690200  0.492600  1.0
  H  H234  1  0.341200  0.833800  0.031400  1.0
  H  H235  1  0.802400  0.309800  0.968600  1.0
  H  H236  1  0.197600  0.166200  0.507400  1.0
  H  H237  1  0.690200  0.492600  0.658800  1.0
  H  H238  1  0.833800  0.031400  0.341200  1.0
  H  H239  1  0.309800  0.968600  0.802400  1.0
  H  H240  1  0.166200  0.507400  0.197600  1.0
  H  H241  1  0.492600  0.658800  0.690200  1.0
  H  H242  1  0.031400  0.341200  0.833800  1.0
  H  H243  1  0.968600  0.802400  0.309800  1.0
  H  H244  1  0.507400  0.197600  0.166200  1.0
  H  H245  1  0.774200  0.830300  0.559900  1.0
  H  H246  1  0.225800  0.785700  0.056100  1.0
  H  H247  1  0.729600  0.169700  0.943900  1.0
  H  H248  1  0.270400  0.214300  0.440100  1.0
  H  H249  1  0.830300  0.559900  0.774200  1.0
  H  H250  1  0.785700  0.056100  0.225800  1.0
  H  H251  1  0.169700  0.943900  0.729600  1.0
  H  H252  1  0.214300  0.440100  0.270400  1.0
  H  H253  1  0.559900  0.774200  0.830300  1.0
  H  H254  1  0.056100  0.225800  0.785700  1.0
  H  H255  1  0.943900  0.729600  0.169700  1.0
  H  H256  1  0.440100  0.270400  0.214300  1.0
  H  H257  1  0.915800  0.783400  0.734200  1.0
  H  H258  1  0.084200  0.818400  0.867600  1.0
  H  H259  1  0.950800  0.216600  0.132400  1.0
  H  H260  1  0.049200  0.181600  0.265800  1.0
  H  H261  1  0.783400  0.734200  0.915800  1.0
  H  H262  1  0.818400  0.867600  0.084200  1.0
  H  H263  1  0.216600  0.132400  0.950800  1.0
  H  H264  1  0.181600  0.265800  0.049200  1.0
  H  H265  1  0.734200  0.915800  0.783400  1.0
  H  H266  1  0.867600  0.084200  0.818400  1.0
  H  H267  1  0.132400  0.950800  0.216600  1.0
  H  H268  1  0.265800  0.049200  0.181600  1.0
  H  H269  1  0.799400  0.649700  0.672500  1.0
  H  H270  1  0.200600  0.873100  0.850300  1.0
  H  H271  1  0.022800  0.350300  0.149700  1.0
  H  H272  1  0.977200  0.126900  0.327500  1.0
  H  H273  1  0.649700  0.672500  0.799400  1.0
  H  H274  1  0.873100  0.850300  0.200600  1.0
  H  H275  1  0.350300  0.149700  0.022800  1.0
  H  H276  1  0.126900  0.327500  0.977200  1.0
  H  H277  1  0.672500  0.799400  0.649700  1.0
  H  H278  1  0.850300  0.200600  0.873100  1.0
  H  H279  1  0.149700  0.022800  0.350300  1.0
  H  H280  1  0.327500  0.977200  0.126900  1.0
  H  H281  1  0.026500  0.883500  0.726400  1.0
  H  H282  1  0.973500  0.699900  0.857000  1.0
  H  H283  1  0.842900  0.116500  0.143000  1.0
  H  H284  1  0.157100  0.300100  0.273600  1.0
  H  H285  1  0.883500  0.726400  0.026500  1.0
  H  H286  1  0.699900  0.857000  0.973500  1.0
  H  H287  1  0.116500  0.143000  0.842900  1.0
  H  H288  1  0.300100  0.273600  0.157100  1.0
  H  H289  1  0.726400  0.026500  0.883500  1.0
  H  H290  1  0.857000  0.973500  0.699900  1.0
  H  H291  1  0.143000  0.842900  0.116500  1.0
  H  H292  1  0.273600  0.157100  0.300100  1.0
  N  N293  1  0.525060  0.416750  0.481730  1.0
  N  N294  1  0.474940  0.956670  0.891690  1.0
  N  N295  1  0.064980  0.583250  0.108310  1.0
  N  N296  1  0.935020  0.043330  0.518270  1.0
  N  N297  1  0.416750  0.481730  0.525060  1.0
  N  N298  1  0.956670  0.891690  0.474940  1.0
  N  N299  1  0.583250  0.108310  0.064980  1.0
  N  N300  1  0.043330  0.518270  0.935020  1.0
  N  N301  1  0.481730  0.525060  0.416750  1.0
  N  N302  1  0.891690  0.474940  0.956670  1.0
  N  N303  1  0.108310  0.064980  0.583250  1.0
  N  N304  1  0.518270  0.935020  0.043330  1.0
  N  N305  1  0.646190  0.569800  0.537450  1.0
  N  N306  1  0.353810  0.891260  0.923610  1.0
  N  N307  1  0.967650  0.430200  0.076390  1.0
  N  N308  1  0.032350  0.108740  0.462550  1.0
  N  N309  1  0.569800  0.537450  0.646190  1.0
  N  N310  1  0.891260  0.923610  0.353810  1.0
  N  N311  1  0.430200  0.076390  0.967650  1.0
  N  N312  1  0.108740  0.462550  0.032350  1.0
  N  N313  1  0.537450  0.646190  0.569800  1.0
  N  N314  1  0.923610  0.353810  0.891260  1.0
  N  N315  1  0.076390  0.967650  0.430200  1.0
  N  N316  1  0.462550  0.032350  0.108740  1.0
