# generated using pymatgen
data_H23RuC25SN2O8F3
_symmetry_space_group_name_H-M   'P 1'
_cell_length_a   14.41600000
_cell_length_b   16.64900000
_cell_length_c   25.77810911
_cell_angle_alpha   108.84015355
_cell_angle_beta   90.13249923
_cell_angle_gamma   90.00000000
_symmetry_Int_Tables_number   1
_chemical_formula_structural   H23RuC25SN2O8F3
_chemical_formula_sum   'H184 Ru8 C200 S8 N16 O64 F24'
_cell_volume   5855.55489331
_cell_formula_units_Z   8
loop_
 _symmetry_equiv_pos_site_id
 _symmetry_equiv_pos_as_xyz
  1  'x, y, z'
loop_
 _atom_site_type_symbol
 _atom_site_label
 _atom_site_symmetry_multiplicity
 _atom_site_fract_x
 _atom_site_fract_y
 _atom_site_fract_z
 _atom_site_occupancy
  C  C1  1  0.764700  0.125200  0.542000  1
  C  C2  1  0.735300  0.583200  0.458000  1
  C  C3  1  0.235300  0.874800  0.458000  1
  C  C4  1  0.264700  0.416800  0.542000  1
  C  C5  1  0.880400  0.242800  0.737600  1
  C  C6  1  0.619600  0.505200  0.262400  1
  C  C7  1  0.119600  0.757200  0.262400  1
  C  C8  1  0.380400  0.494800  0.737600  1
  C  C9  1  0.738900  0.156900  0.936600  1
  C  C10  1  0.761100  0.220300  0.063400  1
  C  C11  1  0.261100  0.843100  0.063400  1
  C  C12  1  0.238900  0.779700  0.936600  1
  C  C13  1  0.851000  0.644600  0.175200  1
  C  C14  1  0.649000  0.469400  0.824800  1
  C  C15  1  0.149000  0.355400  0.824800  1
  C  C16  1  0.351000  0.530600  0.175200  1
  C  C17  1  0.736800  0.194510  0.245820  1.0
  C  C18  1  0.763200  0.948690  0.754180  1.0
  C  C19  1  0.263200  0.805490  0.754180  1.0
  C  C20  1  0.236800  0.051310  0.245820  1.0
  C  C21  1  0.879700  0.168310  0.277820  1.0
  C  C22  1  0.620300  0.890490  0.722180  1.0
  C  C23  1  0.120300  0.831690  0.722180  1.0
  C  C24  1  0.379700  0.109510  0.277820  1.0
  C  C25  1  0.771000  0.177070  0.192540  1.0
  C  C26  1  0.729000  0.984530  0.807460  1.0
  C  C27  1  0.229000  0.822930  0.807460  1.0
  C  C28  1  0.271000  0.015470  0.192540  1.0
  C  C29  1  0.919400  0.149730  0.226460  1.0
  C  C30  1  0.580600  0.923270  0.773540  1.0
  C  C31  1  0.080600  0.850270  0.773540  1.0
  C  C32  1  0.419400  0.076730  0.226460  1.0
  C  C33  1  0.863500  0.156530  0.183460  1.0
  C  C34  1  0.636500  0.973070  0.816540  1.0
  C  C35  1  0.136500  0.843470  0.816540  1.0
  C  C36  1  0.363500  0.026930  0.183460  1.0
  C  C37  1  0.867400  0.085300  0.084800  1.0
  C  C38  1  0.632600  0.000500  0.915200  1.0
  C  C39  1  0.132600  0.914700  0.915200  1.0
  C  C40  1  0.367400  0.999500  0.084800  1.0
  C  C41  1  0.976400  0.202500  0.130200  1.0
  C  C42  1  0.523600  0.072300  0.869800  1.0
  C  C43  1  0.023600  0.797500  0.869800  1.0
  C  C44  1  0.476400  0.927700  0.130200  1.0
  C  C45  1  0.907700  0.081010  0.030220  1.0
  C  C46  1  0.592300  0.050790  0.969780  1.0
  C  C47  1  0.092300  0.918990  0.969780  1.0
  C  C48  1  0.407700  0.949210  0.030220  1.0
  C  C49  1  0.014300  0.199120  0.076640  1.0
  C  C50  1  0.485700  0.122480  0.923360  1.0
  C  C51  1  0.985700  0.800880  0.923360  1.0
  C  C52  1  0.514300  0.877520  0.076640  1.0
  C  C53  1  0.875500  0.022330  0.983060  1.0
  C  C54  1  0.624500  0.039270  0.016940  1.0
  C  C55  1  0.124500  0.977670  0.016940  1.0
  C  C56  1  0.375500  0.960730  0.983060  1.0
  C  C57  1  0.978500  0.139460  0.027920  1.0
  C  C58  1  0.521500  0.111540  0.972080  1.0
  C  C59  1  0.021500  0.860540  0.972080  1.0
  C  C60  1  0.478500  0.888460  0.027920  1.0
  C  C61  1  0.083200  0.256100  0.073200  1.0
  C  C62  1  0.416800  0.182900  0.926800  1.0
  C  C63  1  0.916800  0.743900  0.926800  1.0
  C  C64  1  0.583200  0.817100  0.073200  1.0
  C  C65  1  0.911500  0.018480  0.931560  1.0
  C  C66  1  0.588500  0.086920  0.068440  1.0
  C  C67  1  0.088500  0.981520  0.068440  1.0
  C  C68  1  0.411500  0.913080  0.931560  1.0
  C  C69  1  0.014700  0.134590  0.976780  1.0
  C  C70  1  0.485300  0.157810  0.023220  1.0
  C  C71  1  0.985300  0.865410  0.023220  1.0
  C  C72  1  0.514700  0.842190  0.976780  1.0
  C  C73  1  0.118100  0.252300  0.022800  1.0
  C  C74  1  0.381900  0.229500  0.977200  1.0
  C  C75  1  0.881900  0.747700  0.977200  1.0
  C  C76  1  0.618100  0.770500  0.022800  1.0
  C  C77  1  0.982100  0.074980  0.929360  1.0
  C  C78  1  0.517900  0.145620  0.070640  1.0
  C  C79  1  0.017900  0.925020  0.070640  1.0
  C  C80  1  0.482100  0.854380  0.929360  1.0
  C  C81  1  0.086800  0.192020  0.975040  1.0
  C  C82  1  0.413200  0.216980  0.024960  1.0
  C  C83  1  0.913200  0.807980  0.024960  1.0
  C  C84  1  0.586800  0.783020  0.975040  1.0
  C  C85  1  0.021700  0.067430  0.874260  1.0
  C  C86  1  0.478300  0.193170  0.125740  1.0
  C  C87  1  0.978300  0.932570  0.125740  1.0
  C  C88  1  0.521700  0.806830  0.874260  1.0
  C  C89  1  0.128800  0.185010  0.923020  1.0
  C  C90  1  0.371200  0.261990  0.076980  1.0
  C  C91  1  0.871200  0.814990  0.076980  1.0
  C  C92  1  0.628800  0.738010  0.923020  1.0
  C  C93  1  0.146400  0.113370  0.825540  1.0
  C  C94  1  0.353600  0.287830  0.174460  1.0
  C  C95  1  0.853600  0.886630  0.174460  1.0
  C  C96  1  0.646400  0.712170  0.825540  1.0
  C  C97  1  0.104300  0.136120  0.784440  1.0
  C  C98  1  0.395700  0.351680  0.215560  1.0
  C  C99  1  0.895700  0.863880  0.215560  1.0
  C  C100  1  0.604300  0.648320  0.784440  1.0
  C  C101  1  0.237900  0.086230  0.820060  1.0
  C  C102  1  0.262100  0.266170  0.179940  1.0
  C  C103  1  0.762100  0.913770  0.179940  1.0
  C  C104  1  0.737900  0.733830  0.820060  1.0
  C  C105  1  0.286800  0.087820  0.774440  1.0
  C  C106  1  0.213200  0.313380  0.225560  1.0
  C  C107  1  0.713200  0.912180  0.225560  1.0
  C  C108  1  0.786800  0.686620  0.774440  1.0
  C  C109  1  0.661700  0.067310  0.345020  1.0
  C  C110  1  0.838300  0.722290  0.654980  1.0
  C  C111  1  0.338300  0.932690  0.654980  1.0
  C  C112  1  0.161700  0.277710  0.345020  1.0
  C  C113  1  0.759000  0.060260  0.366320  1.0
  C  C114  1  0.741000  0.693940  0.633680  1.0
  C  C115  1  0.241000  0.939740  0.633680  1.0
  C  C116  1  0.259000  0.306060  0.366320  1.0
  C  C117  1  0.673600  0.302450  0.445300  1.0
  C  C118  1  0.826400  0.857150  0.554700  1.0
  C  C119  1  0.326400  0.697550  0.554700  1.0
  C  C120  1  0.173600  0.142850  0.445300  1.0
  C  C121  1  0.560400  0.820680  0.343960  1.0
  C  C122  1  0.939600  0.476720  0.656040  1.0
  C  C123  1  0.439600  0.179320  0.656040  1.0
  C  C124  1  0.060400  0.523280  0.343960  1.0
  C  C125  1  0.585600  0.871260  0.398120  1.0
  C  C126  1  0.914400  0.473140  0.601880  1.0
  C  C127  1  0.414400  0.128740  0.601880  1.0
  C  C128  1  0.085600  0.526860  0.398120  1.0
  C  C129  1  0.671300  0.873280  0.418960  1.0
  C  C130  1  0.828700  0.454320  0.581040  1.0
  C  C131  1  0.328700  0.126720  0.581040  1.0
  C  C132  1  0.171300  0.545680  0.418960  1.0
  C  C133  1  0.743800  0.818420  0.386040  1.0
  C  C134  1  0.756200  0.432380  0.613960  1.0
  C  C135  1  0.256200  0.181580  0.613960  1.0
  C  C136  1  0.243800  0.567620  0.386040  1.0
  C  C137  1  0.720200  0.765070  0.333340  1.0
  C  C138  1  0.779800  0.431730  0.666660  1.0
  C  C139  1  0.279800  0.234930  0.666660  1.0
  C  C140  1  0.220200  0.568270  0.333340  1.0
  C  C141  1  0.630600  0.767090  0.311580  1.0
  C  C142  1  0.869400  0.455510  0.688420  1.0
  C  C143  1  0.369400  0.232910  0.688420  1.0
  C  C144  1  0.130600  0.544490  0.311580  1.0
  C  C145  1  0.840500  0.822500  0.407600  1.0
  C  C146  1  0.659500  0.414900  0.592400  1.0
  C  C147  1  0.159500  0.177500  0.592400  1.0
  C  C148  1  0.340500  0.585100  0.407600  1.0
  C  C149  1  0.461000  0.821000  0.320800  1.0
  C  C150  1  0.039000  0.500200  0.679200  1.0
  C  C151  1  0.539000  0.179000  0.679200  1.0
  C  C152  1  0.961000  0.499800  0.320800  1.0
  C  C153  1  0.460100  0.846700  0.270600  1.0
  C  C154  1  0.039900  0.576100  0.729400  1.0
  C  C155  1  0.539900  0.153300  0.729400  1.0
  C  C156  1  0.960100  0.423900  0.270600  1.0
  C  C157  1  0.411900  0.740500  0.317000  1.0
  C  C158  1  0.088100  0.423500  0.683000  1.0
  C  C159  1  0.588100  0.259500  0.683000  1.0
  C  C160  1  0.911900  0.576500  0.317000  1.0
  C  C161  1  0.638000  0.331780  0.402160  1.0
  C  C162  1  0.862000  0.929620  0.597840  1.0
  C  C163  1  0.362000  0.668220  0.597840  1.0
  C  C164  1  0.138000  0.070380  0.402160  1.0
  C  C165  1  0.702800  0.358700  0.370200  1.0
  C  C166  1  0.797200  0.988500  0.629800  1.0
  C  C167  1  0.297200  0.641300  0.629800  1.0
  C  C168  1  0.202800  0.011500  0.370200  1.0
  C  C169  1  0.800800  0.356990  0.381580  1.0
  C  C170  1  0.699200  0.975410  0.618420  1.0
  C  C171  1  0.199200  0.643010  0.618420  1.0
  C  C172  1  0.300800  0.024590  0.381580  1.0
  C  C173  1  0.834400  0.327600  0.423000  1.0
  C  C174  1  0.665600  0.904600  0.577000  1.0
  C  C175  1  0.165600  0.672400  0.577000  1.0
  C  C176  1  0.334400  0.095400  0.423000  1.0
  C  C177  1  0.768500  0.300760  0.454920  1.0
  C  C178  1  0.731500  0.845840  0.545080  1.0
  C  C179  1  0.231500  0.699240  0.545080  1.0
  C  C180  1  0.268500  0.154160  0.454920  1.0
  C  C181  1  0.936500  0.321820  0.432440  1.0
  C  C182  1  0.563500  0.889380  0.567560  1.0
  C  C183  1  0.063500  0.678180  0.567560  1.0
  C  C184  1  0.436500  0.110620  0.432440  1.0
  C  C185  1  0.537400  0.326710  0.390020  1.0
  C  C186  1  0.962600  0.936690  0.609980  1.0
  C  C187  1  0.462600  0.673290  0.609980  1.0
  C  C188  1  0.037400  0.063310  0.390020  1.0
  C  C189  1  0.494900  0.405200  0.432200  1.0
  C  C190  1  0.005100  0.973000  0.567800  1.0
  C  C191  1  0.505100  0.594800  0.567800  1.0
  C  C192  1  0.994900  0.027000  0.432200  1.0
  C  C193  1  0.510200  0.318080  0.331760  1.0
  C  C194  1  0.989800  0.986320  0.668240  1.0
  C  C195  1  0.489800  0.681920  0.668240  1.0
  C  C196  1  0.010200  0.013680  0.331760  1.0
  C  C197  1  0.156700  0.134520  0.738840  1.0
  C  C198  1  0.343300  0.395680  0.261160  1.0
  C  C199  1  0.843300  0.865480  0.261160  1.0
  C  C200  1  0.656700  0.604320  0.738840  1.0
  F  F201  1  0.806500  0.051600  0.522400  1
  F  F202  1  0.693500  0.529200  0.477600  1
  F  F203  1  0.193500  0.948400  0.477600  1
  F  F204  1  0.306500  0.470800  0.522400  1
  F  F205  1  0.810600  0.193000  0.537600  1
  F  F206  1  0.689400  0.655400  0.462400  1
  F  F207  1  0.189400  0.807000  0.462400  1
  F  F208  1  0.310600  0.344600  0.537600  1
  F  F209  1  0.761600  0.144100  0.596800  1
  F  F210  1  0.738400  0.547300  0.403200  1
  F  F211  1  0.238400  0.855900  0.403200  1
  F  F212  1  0.261600  0.452700  0.596800  1
  F  F213  1  0.932700  0.316700  0.762000  1
  F  F214  1  0.567300  0.554700  0.238000  1
  F  F215  1  0.067300  0.683300  0.238000  1
  F  F216  1  0.432700  0.445300  0.762000  1
  F  F217  1  0.955500  0.200800  0.702400  1
  F  F218  1  0.544500  0.498400  0.297600  1
  F  F219  1  0.044500  0.799200  0.297600  1
  F  F220  1  0.455500  0.501600  0.702400  1
  F  F221  1  0.846800  0.276800  0.694600  1
  F  F222  1  0.653200  0.582200  0.305400  1
  F  F223  1  0.153200  0.723200  0.305400  1
  F  F224  1  0.346800  0.417800  0.694600  1
  H  H225  1  0.699700  0.121200  0.907000  1
  H  H226  1  0.800300  0.214200  0.093000  1
  H  H227  1  0.300300  0.878800  0.093000  1
  H  H228  1  0.199700  0.785800  0.907000  1
  H  H229  1  0.699800  0.189500  0.967200  1
  H  H230  1  0.800200  0.222300  0.032800  1
  H  H231  1  0.300200  0.810500  0.032800  1
  H  H232  1  0.199800  0.777700  0.967200  1
  H  H233  1  0.781200  0.120900  0.949200  1
  H  H234  1  0.718800  0.171700  0.050800  1
  H  H235  1  0.218800  0.879100  0.050800  1
  H  H236  1  0.281200  0.828300  0.949200  1
  H  H237  1  0.881700  0.588900  0.164600  1
  H  H238  1  0.618300  0.424300  0.835400  1
  H  H239  1  0.118300  0.411100  0.835400  1
  H  H240  1  0.381700  0.575700  0.164600  1
  H  H241  1  0.895900  0.688600  0.194200  1
  H  H242  1  0.604100  0.494400  0.805800  1
  H  H243  1  0.104100  0.311400  0.805800  1
  H  H244  1  0.395900  0.505600  0.194200  1
  H  H245  1  0.828300  0.655400  0.142200  1
  H  H246  1  0.671700  0.513200  0.857800  1
  H  H247  1  0.171700  0.344600  0.857800  1
  H  H248  1  0.328300  0.486800  0.142200  1
  H  H249  1  0.673500  0.209900  0.252800  1.0
  H  H250  1  0.826500  0.957100  0.747200  1.0
  H  H251  1  0.326500  0.790100  0.747200  1.0
  H  H252  1  0.173500  0.042900  0.252800  1.0
  H  H253  1  0.917700  0.165300  0.307200  1.0
  H  H254  1  0.582300  0.858100  0.692800  1.0
  H  H255  1  0.082300  0.834700  0.692800  1.0
  H  H256  1  0.417700  0.141900  0.307200  1.0
  H  H257  1  0.731600  0.179400  0.163400  1.0
  H  H258  1  0.768400  0.016000  0.836600  1.0
  H  H259  1  0.268400  0.820600  0.836600  1.0
  H  H260  1  0.231600  0.984000  0.163400  1.0
  H  H261  1  0.982500  0.133100  0.220600  1.0
  H  H262  1  0.517500  0.912500  0.779400  1.0
  H  H263  1  0.017500  0.866900  0.779400  1.0
  H  H264  1  0.482500  0.087500  0.220600  1.0
  H  H265  1  0.828100  0.983800  0.985200  1.0
  H  H266  1  0.671900  0.998600  0.014800  1.0
  H  H267  1  0.171900  0.016200  0.014800  1.0
  H  H268  1  0.328100  0.001400  0.985200  1.0
  H  H269  1  0.105900  0.297400  0.105600  1.0
  H  H270  1  0.394100  0.191800  0.894400  1.0
  H  H271  1  0.894100  0.702600  0.894400  1.0
  H  H272  1  0.605900  0.808200  0.105600  1.0
  H  H273  1  0.888400  0.978200  0.899000  1.0
  H  H274  1  0.611600  0.079200  0.101000  1.0
  H  H275  1  0.111600  0.021800  0.101000  1.0
  H  H276  1  0.388400  0.920800  0.899000  1.0
  H  H277  1  0.164500  0.291700  0.020600  1.0
  H  H278  1  0.335500  0.271100  0.979400  1.0
  H  H279  1  0.835500  0.708300  0.979400  1.0
  H  H280  1  0.664500  0.728900  0.020600  1.0
  H  H281  1  0.040900  0.152600  0.787200  1.0
  H  H282  1  0.459100  0.365400  0.212800  1.0
  H  H283  1  0.959100  0.847400  0.212800  1.0
  H  H284  1  0.540900  0.634600  0.787200  1.0
  H  H285  1  0.266300  0.067000  0.847200  1.0
  H  H286  1  0.233700  0.219800  0.152800  1.0
  H  H287  1  0.733700  0.933000  0.152800  1.0
  H  H288  1  0.766300  0.780200  0.847200  1.0
  H  H289  1  0.350300  0.071500  0.771200  1.0
  H  H290  1  0.149700  0.300300  0.228800  1.0
  H  H291  1  0.649700  0.928500  0.228800  1.0
  H  H292  1  0.850300  0.699700  0.771200  1.0
  H  H293  1  0.631000  0.271300  0.462800  1.0
  H  H294  1  0.869000  0.808500  0.537200  1.0
  H  H295  1  0.369000  0.728700  0.537200  1.0
  H  H296  1  0.131000  0.191500  0.462800  1.0
  H  H297  1  0.543100  0.919000  0.417200  1.0
  H  H298  1  0.956900  0.501800  0.582800  1.0
  H  H299  1  0.456900  0.081000  0.582800  1.0
  H  H300  1  0.043100  0.498200  0.417200  1.0
  H  H301  1  0.688500  0.919600  0.453400  1.0
  H  H302  1  0.811500  0.466200  0.546600  1.0
  H  H303  1  0.311500  0.080400  0.546600  1.0
  H  H304  1  0.188500  0.533800  0.453400  1.0
  H  H305  1  0.771100  0.736200  0.307800  1.0
  H  H306  1  0.728900  0.428400  0.692200  1.0
  H  H307  1  0.228900  0.263800  0.692200  1.0
  H  H308  1  0.271100  0.571600  0.307800  1.0
  H  H309  1  0.619700  0.738900  0.271400  1.0
  H  H310  1  0.880300  0.467500  0.728600  1.0
  H  H311  1  0.380300  0.261100  0.728600  1.0
  H  H312  1  0.119700  0.532500  0.271400  1.0
  H  H313  1  0.847800  0.781100  0.427000  1.0
  H  H314  1  0.652200  0.354100  0.573000  1.0
  H  H315  1  0.152200  0.218900  0.573000  1.0
  H  H316  1  0.347800  0.645900  0.427000  1.0
  H  H317  1  0.852900  0.879700  0.432800  1.0
  H  H318  1  0.647100  0.446900  0.567200  1.0
  H  H319  1  0.147100  0.120300  0.567200  1.0
  H  H320  1  0.352900  0.553100  0.432800  1.0
  H  H321  1  0.884400  0.809500  0.377000  1.0
  H  H322  1  0.615600  0.432500  0.623000  1.0
  H  H323  1  0.115600  0.190500  0.623000  1.0
  H  H324  1  0.384400  0.567500  0.377000  1.0
  H  H325  1  0.426900  0.866700  0.349200  1.0
  H  H326  1  0.073100  0.517500  0.650800  1.0
  H  H327  1  0.573100  0.133300  0.650800  1.0
  H  H328  1  0.926900  0.482500  0.349200  1.0
  H  H329  1  0.396000  0.847900  0.258200  1.0
  H  H330  1  0.104000  0.589700  0.741800  1.0
  H  H331  1  0.604000  0.152100  0.741800  1.0
  H  H332  1  0.896000  0.410300  0.258200  1.0
  H  H333  1  0.496000  0.805700  0.241600  1.0
  H  H334  1  0.004000  0.564100  0.758400  1.0
  H  H335  1  0.504000  0.194300  0.758400  1.0
  H  H336  1  0.996000  0.435900  0.241600  1.0
  H  H337  1  0.487800  0.903200  0.278800  1.0
  H  H338  1  0.012200  0.624400  0.721200  1.0
  H  H339  1  0.512200  0.096800  0.721200  1.0
  H  H340  1  0.987800  0.375600  0.278800  1.0
  H  H341  1  0.348600  0.742300  0.303400  1.0
  H  H342  1  0.151400  0.438900  0.696600  1.0
  H  H343  1  0.651400  0.257700  0.696600  1.0
  H  H344  1  0.848600  0.561100  0.303400  1.0
  H  H345  1  0.409600  0.733500  0.353200  1.0
  H  H346  1  0.090400  0.380300  0.646800  1.0
  H  H347  1  0.590400  0.266500  0.646800  1.0
  H  H348  1  0.909600  0.619700  0.353200  1.0
  H  H349  1  0.445200  0.692400  0.291600  1.0
  H  H350  1  0.054800  0.400800  0.708400  1.0
  H  H351  1  0.554800  0.307600  0.708400  1.0
  H  H352  1  0.945200  0.599200  0.291600  1.0
  H  H353  1  0.681900  0.367800  0.335400  1.0
  H  H354  1  0.818100  0.032400  0.664600  1.0
  H  H355  1  0.318100  0.632200  0.664600  1.0
  H  H356  1  0.181900  0.967600  0.335400  1.0
  H  H357  1  0.845600  0.364000  0.353800  1.0
  H  H358  1  0.654400  0.010200  0.646200  1.0
  H  H359  1  0.154400  0.636000  0.646200  1.0
  H  H360  1  0.345600  0.989800  0.353800  1.0
  H  H361  1  0.791200  0.268200  0.479000  1.0
  H  H362  1  0.708800  0.789200  0.521000  1.0
  H  H363  1  0.208800  0.731800  0.521000  1.0
  H  H364  1  0.291200  0.210800  0.479000  1.0
  H  H365  1  0.958000  0.374900  0.459400  1.0
  H  H366  1  0.542000  0.915500  0.540600  1.0
  H  H367  1  0.042000  0.625100  0.540600  1.0
  H  H368  1  0.458000  0.084500  0.459400  1.0
  H  H369  1  0.969700  0.312300  0.397800  1.0
  H  H370  1  0.530300  0.914500  0.602200  1.0
  H  H371  1  0.030300  0.687700  0.602200  1.0
  H  H372  1  0.469700  0.085500  0.397800  1.0
  H  H373  1  0.948600  0.274600  0.446400  1.0
  H  H374  1  0.551400  0.828200  0.553600  1.0
  H  H375  1  0.051400  0.725400  0.553600  1.0
  H  H376  1  0.448600  0.171800  0.446400  1.0
  H  H377  1  0.512900  0.275700  0.398000  1.0
  H  H378  1  0.987100  0.877700  0.602000  1.0
  H  H379  1  0.487100  0.724300  0.602000  1.0
  H  H380  1  0.012900  0.122300  0.398000  1.0
  H  H381  1  0.516800  0.409100  0.469000  1.0
  H  H382  1  0.983200  0.940100  0.531000  1.0
  H  H383  1  0.483200  0.590900  0.531000  1.0
  H  H384  1  0.016800  0.059900  0.469000  1.0
  H  H385  1  0.427200  0.400400  0.430800  1.0
  H  H386  1  0.072800  0.969600  0.569200  1.0
  H  H387  1  0.572800  0.599600  0.569200  1.0
  H  H388  1  0.927200  0.030400  0.430800  1.0
  H  H389  1  0.513700  0.456200  0.423800  1.0
  H  H390  1  0.986300  0.032400  0.576200  1.0
  H  H391  1  0.486300  0.543800  0.576200  1.0
  H  H392  1  0.013700  0.967600  0.423800  1.0
  H  H393  1  0.544000  0.270600  0.306400  1.0
  H  H394  1  0.956000  0.964200  0.693600  1.0
  H  H395  1  0.456000  0.729400  0.693600  1.0
  H  H396  1  0.044000  0.035800  0.306400  1.0
  H  H397  1  0.525600  0.370500  0.324200  1.0
  H  H398  1  0.974400  0.046300  0.675800  1.0
  H  H399  1  0.474400  0.629500  0.675800  1.0
  H  H400  1  0.025600  0.953700  0.324200  1.0
  H  H401  1  0.443300  0.307500  0.327000  1.0
  H  H402  1  0.056700  0.980500  0.673000  1.0
  H  H403  1  0.556700  0.692500  0.673000  1.0
  H  H404  1  0.943300  0.019500  0.327000  1.0
  H  H405  1  0.128200  0.149700  0.710000  1.0
  H  H406  1  0.371800  0.439700  0.290000  1.0
  H  H407  1  0.871800  0.850300  0.290000  1.0
  H  H408  1  0.628200  0.560300  0.710000  1.0
  N  N409  1  0.791700  0.190020  0.288040  1.0
  N  N410  1  0.708300  0.901980  0.711960  1.0
  N  N411  1  0.208300  0.809980  0.711960  1.0
  N  N412  1  0.291700  0.098020  0.288040  1.0
  N  N413  1  0.904200  0.146120  0.130840  1.0
  N  N414  1  0.595800  0.015280  0.869160  1.0
  N  N415  1  0.095800  0.853880  0.869160  1.0
  N  N416  1  0.404200  0.984720  0.130840  1.0
  N  N417  1  0.099300  0.120590  0.875780  1.0
  N  N418  1  0.400700  0.244810  0.124220  1.0
  N  N419  1  0.900700  0.879410  0.124220  1.0
  N  N420  1  0.599300  0.755190  0.875780  1.0
  N  N421  1  0.247100  0.111850  0.734500  1.0
  N  N422  1  0.252900  0.377350  0.265500  1.0
  N  N423  1  0.752900  0.888150  0.265500  1.0
  N  N424  1  0.747100  0.622650  0.734500  1.0
  O  O425  1  0.607900  0.054800  0.529600  1
  O  O426  1  0.892100  0.525200  0.470400  1
  O  O427  1  0.392100  0.945200  0.470400  1
  O  O428  1  0.107900  0.474800  0.529600  1
  O  O429  1  0.609300  0.204560  0.542320  1
  O  O430  1  0.890700  0.662240  0.457680  1
  O  O431  1  0.390700  0.795440  0.457680  1
  O  O432  1  0.109300  0.337760  0.542320  1
  O  O433  1  0.662500  0.105140  0.457880  1
  O  O434  1  0.837500  0.647260  0.542120  1
  O  O435  1  0.337500  0.894860  0.542120  1
  O  O436  1  0.162500  0.352740  0.457880  1
  O  O437  1  0.762400  0.275900  0.799600  1
  O  O438  1  0.737600  0.476300  0.200400  1
  O  O439  1  0.237600  0.724100  0.200400  1
  O  O440  1  0.262400  0.523700  0.799600  1
  O  O441  1  0.876000  0.176700  0.800400  1
  O  O442  1  0.624000  0.376300  0.199600  1
  O  O443  1  0.124000  0.823300  0.199600  1
  O  O444  1  0.376000  0.623700  0.800400  1
  O  O445  1  0.786000  0.142900  0.738200  1
  O  O446  1  0.714000  0.404700  0.261800  1
  O  O447  1  0.214000  0.857100  0.261800  1
  O  O448  1  0.286000  0.595300  0.738200  1
  O  O449  1  0.789100  0.211300  0.918000  1
  O  O450  1  0.710900  0.293300  0.082000  1
  O  O451  1  0.210900  0.788700  0.082000  1
  O  O452  1  0.289100  0.706700  0.918000  1
  O  O453  1  0.785500  0.644900  0.206000  1
  O  O454  1  0.714500  0.438900  0.794000  1
  O  O455  1  0.214500  0.355100  0.794000  1
  O  O456  1  0.285500  0.561100  0.206000  1
  O  O457  1  0.808400  0.035060  0.089720  1.0
  O  O458  1  0.691600  0.945340  0.910280  1.0
  O  O459  1  0.191600  0.964940  0.910280  1.0
  O  O460  1  0.308400  0.054660  0.089720  1.0
  O  O461  1  0.006800  0.251980  0.173160  1.0
  O  O462  1  0.493200  0.078820  0.826840  1.0
  O  O463  1  0.993200  0.748020  0.826840  1.0
  O  O464  1  0.506800  0.921180  0.173160  1.0
  O  O465  1  0.994200  0.019030  0.831860  1.0
  O  O466  1  0.505800  0.187170  0.168140  1.0
  O  O467  1  0.005800  0.980970  0.168140  1.0
  O  O468  1  0.494200  0.812830  0.831860  1.0
  O  O469  1  0.193100  0.231970  0.917340  1.0
  O  O470  1  0.306900  0.314630  0.082660  1.0
  O  O471  1  0.806900  0.768030  0.082660  1.0
  O  O472  1  0.693100  0.685370  0.917340  1.0
  O  O473  1  0.637300  0.138020  0.341040  1.0
  O  O474  1  0.862700  0.796980  0.658960  1.0
  O  O475  1  0.362700  0.861980  0.658960  1.0
  O  O476  1  0.137300  0.203020  0.341040  1.0
  O  O477  1  0.810900  0.125590  0.376580  1.0
  O  O478  1  0.689100  0.749010  0.623420  1.0
  O  O479  1  0.189100  0.874410  0.623420  1.0
  O  O480  1  0.310900  0.250990  0.376580  1.0
  O  O481  1  0.614300  0.000600  0.331000  1.0
  O  O482  1  0.885700  0.669600  0.669000  1.0
  O  O483  1  0.385700  0.999400  0.669000  1.0
  O  O484  1  0.114300  0.330400  0.331000  1.0
  O  O485  1  0.784600  0.991390  0.370180  1.0
  O  O486  1  0.715400  0.621210  0.629820  1.0
  O  O487  1  0.215400  0.008610  0.629820  1.0
  O  O488  1  0.284600  0.378790  0.370180  1.0
  Ru  Ru489  1  0.742170  0.232215  0.369070  1.0
  Ru  Ru490  1  0.757830  0.863145  0.630930  1.0
  Ru  Ru491  1  0.257830  0.767785  0.630930  1.0
  Ru  Ru492  1  0.242170  0.136855  0.369070  1.0
  Ru  Ru493  1  0.685220  0.894164  0.340048  1.0
  Ru  Ru494  1  0.814780  0.554116  0.659952  1.0
  Ru  Ru495  1  0.314780  0.105836  0.659952  1.0
  Ru  Ru496  1  0.185220  0.445884  0.340048  1.0
  S  S497  1  0.648650  0.122560  0.514720  1
  S  S498  1  0.851350  0.607840  0.485280  1
  S  S499  1  0.351350  0.877440  0.485280  1
  S  S500  1  0.148650  0.392160  0.514720  1
  S  S501  1  0.822100  0.209070  0.771340  1
  S  S502  1  0.677900  0.437730  0.228660  1
  S  S503  1  0.177900  0.790930  0.228660  1
  S  S504  1  0.322100  0.562270  0.771340  1
