# generated using pymatgen
data_P4H64PdPtC67S3N2O13F9
_symmetry_space_group_name_H-M   'P 1'
_cell_length_a   10.68590000
_cell_length_b   17.45200000
_cell_length_c   18.88240000
_cell_angle_alpha   85.75000000
_cell_angle_beta   88.40100000
_cell_angle_gamma   89.96900000
_symmetry_Int_Tables_number   1
_chemical_formula_structural   P4H64PdPtC67S3N2O13F9
_chemical_formula_sum   'P8 H128 Pd2 Pt2 C134 S6 N4 O26 F18'
_cell_volume   3510.33022330
_cell_formula_units_Z   2
loop_
 _symmetry_equiv_pos_site_id
 _symmetry_equiv_pos_as_xyz
  1  'x, y, z'
loop_
 _atom_site_type_symbol
 _atom_site_label
 _atom_site_symmetry_multiplicity
 _atom_site_fract_x
 _atom_site_fract_y
 _atom_site_fract_z
 _atom_site_occupancy
  P  P1  1  0.137500  0.752600  0.293800  1.0
  P  P2  1  0.862500  0.247400  0.706200  1.0
  P  P3  1  0.149800  0.578300  0.376700  1.0
  P  P4  1  0.850200  0.421700  0.623300  1.0
  P  P5  1  0.302000  0.961000  0.815100  1.0
  P  P6  1  0.698000  0.039000  0.184900  1.0
  P  P7  1  0.428400  0.859900  0.680600  1.0
  P  P8  1  0.571600  0.140100  0.319400  1.0
  H  H9  1  0.506000  0.786300  0.053700  1.0
  H  H10  1  0.494000  0.213700  0.946300  1.0
  H  H11  1  0.522100  0.836800  0.937600  1.0
  H  H12  1  0.477900  0.163200  0.062400  1.0
  H  H13  1  0.175500  0.779100  0.902700  1.0
  H  H14  1  0.824500  0.220900  0.097300  1.0
  H  H15  1  0.150500  0.724000  0.017500  1.0
  H  H16  1  0.849500  0.276000  0.982500  1.0
  H  H17  1  0.624700  0.445000  0.227300  1.0
  H  H18  1  0.375300  0.555000  0.772700  1.0
  H  H19  1  0.706300  0.321800  0.209200  1.0
  H  H20  1  0.293700  0.678200  0.790800  1.0
  H  H21  1  0.367700  0.240600  0.189600  1.0
  H  H22  1  0.632300  0.759400  0.810400  1.0
  H  H23  1  0.276100  0.358400  0.209600  1.0
  H  H24  1  0.723900  0.641600  0.790400  1.0
  H  H25  1  0.981600  0.751400  0.173600  1.0
  H  H26  1  0.018400  0.248600  0.826400  1.0
  H  H27  1  0.953200  0.830300  0.069900  1.0
  H  H28  1  0.046800  0.169700  0.930100  1.0
  H  H29  1  0.065800  0.944500  0.049800  1.0
  H  H30  1  0.934200  0.055500  0.950200  1.0
  H  H31  1  0.203500  0.980700  0.134800  1.0
  H  H32  1  0.796500  0.019300  0.865200  1.0
  H  H33  1  0.235800  0.900400  0.236200  1.0
  H  H34  1  0.764200  0.099600  0.763800  1.0
  H  H35  1  0.096100  0.873100  0.392500  1.0
  H  H36  1  0.903900  0.126900  0.607500  1.0
  H  H37  1  0.229500  0.942400  0.459900  1.0
  H  H38  1  0.770500  0.057600  0.540100  1.0
  H  H39  1  0.445400  0.921900  0.455800  1.0
  H  H40  1  0.554600  0.078100  0.544200  1.0
  H  H41  1  0.527000  0.829500  0.387000  1.0
  H  H42  1  0.473000  0.170500  0.613000  1.0
  H  H43  1  0.398700  0.756200  0.320700  1.0
  H  H44  1  0.601300  0.243800  0.679300  1.0
  H  H45  1  0.955500  0.798000  0.347100  1.0
  H  H46  1  0.044500  0.202000  0.652900  1.0
  H  H47  1  0.924600  0.724000  0.305800  1.0
  H  H48  1  0.075400  0.276000  0.694200  1.0
  H  H49  1  0.899500  0.706400  0.433600  1.0
  H  H50  1  0.100500  0.293600  0.566400  1.0
  H  H51  1  0.048100  0.713000  0.438100  1.0
  H  H52  1  0.951900  0.287000  0.561900  1.0
  H  H53  1  0.933200  0.595600  0.364800  1.0
  H  H54  1  0.066800  0.404400  0.635200  1.0
  H  H55  1  0.965400  0.582900  0.446900  1.0
  H  H56  1  0.034600  0.417100  0.553100  1.0
  H  H57  1  0.105600  0.577600  0.532500  1.0
  H  H58  1  0.894400  0.422400  0.467500  1.0
  H  H59  1  0.235600  0.574700  0.627800  1.0
  H  H60  1  0.764400  0.425300  0.372200  1.0
  H  H61  1  0.452900  0.584300  0.610800  1.0
  H  H62  1  0.547100  0.415700  0.389200  1.0
  H  H63  1  0.535600  0.598400  0.494700  1.0
  H  H64  1  0.464400  0.401600  0.505300  1.0
  H  H65  1  0.406500  0.595800  0.397800  1.0
  H  H66  1  0.593500  0.404200  0.602200  1.0
  H  H67  1  0.006000  0.490300  0.291300  1.0
  H  H68  1  0.994000  0.509700  0.708700  1.0
  H  H69  1  0.981400  0.359600  0.274200  1.0
  H  H70  1  0.018600  0.640400  0.725800  1.0
  H  H71  1  0.080100  0.266900  0.349000  1.0
  H  H72  1  0.919900  0.733100  0.651000  1.0
  H  H73  1  0.208600  0.305200  0.436600  1.0
  H  H74  1  0.791400  0.694800  0.563400  1.0
  H  H75  1  0.238300  0.435900  0.452100  1.0
  H  H76  1  0.761700  0.564100  0.547900  1.0
  H  H77  1  0.418400  0.049400  0.740800  1.0
  H  H78  1  0.581600  0.950600  0.259200  1.0
  H  H79  1  0.296100  0.024100  0.701500  1.0
  H  H80  1  0.703900  0.975900  0.298500  1.0
  H  H81  1  0.289600  0.156400  0.729700  1.0
  H  H82  1  0.710400  0.843600  0.270300  1.0
  H  H83  1  0.285300  0.127700  0.812200  1.0
  H  H84  1  0.714700  0.872300  0.187800  1.0
  H  H85  1  0.171700  0.108500  0.763000  1.0
  H  H86  1  0.828300  0.891500  0.237000  1.0
  H  H87  1  0.308600  0.045200  0.905800  1.0
  H  H88  1  0.691400  0.954800  0.094200  1.0
  H  H89  1  0.343700  0.960300  0.936200  1.0
  H  H90  1  0.656300  0.039700  0.063800  1.0
  H  H91  1  0.517800  0.043500  0.937300  1.0
  H  H92  1  0.482200  0.956500  0.062700  1.0
  H  H93  1  0.513000  0.058700  0.852800  1.0
  H  H94  1  0.487000  0.941300  0.147200  1.0
  H  H95  1  0.547400  0.975100  0.887400  1.0
  H  H96  1  0.452600  0.024900  0.112600  1.0
  H  H97  1  0.117500  0.916700  0.871700  1.0
  H  H98  1  0.882500  0.083300  0.128300  1.0
  H  H99  1  0.103500  0.005000  0.844100  1.0
  H  H100  1  0.896500  0.995000  0.155900  1.0
  H  H101  1  0.972300  0.928900  0.781700  1.0
  H  H102  1  0.027700  0.071100  0.218300  1.0
  H  H103  1  0.090000  0.880600  0.755600  1.0
  H  H104  1  0.910000  0.119400  0.244400  1.0
  H  H105  1  0.075400  0.969100  0.728200  1.0
  H  H106  1  0.924600  0.030900  0.271800  1.0
  H  H107  1  0.243600  0.919400  0.643500  1.0
  H  H108  1  0.756400  0.080600  0.356500  1.0
  H  H109  1  0.315800  0.885100  0.577400  1.0
  H  H110  1  0.684200  0.114900  0.422600  1.0
  H  H111  1  0.127800  0.815400  0.609800  1.0
  H  H112  1  0.872200  0.184600  0.390200  1.0
  H  H113  1  0.184800  0.790800  0.685600  1.0
  H  H114  1  0.815200  0.209200  0.314400  1.0
  H  H115  1  0.247900  0.760700  0.615000  1.0
  H  H116  1  0.752100  0.239300  0.385000  1.0
  H  H117  1  0.573600  0.929900  0.606600  1.0
  H  H118  1  0.426400  0.070100  0.393400  1.0
  H  H119  1  0.493800  0.986800  0.652700  1.0
  H  H120  1  0.506200  0.013200  0.347300  1.0
  H  H121  1  0.703700  0.982000  0.688500  1.0
  H  H122  1  0.296300  0.018000  0.311500  1.0
  H  H123  1  0.690600  0.891500  0.708300  1.0
  H  H124  1  0.309400  0.108500  0.291700  1.0
  H  H125  1  0.612500  0.950700  0.752900  1.0
  H  H126  1  0.387500  0.049300  0.247100  1.0
  H  H127  1  0.589600  0.770900  0.664300  1.0
  H  H128  1  0.410400  0.229100  0.335700  1.0
  H  H129  1  0.456700  0.729400  0.661900  1.0
  H  H130  1  0.543300  0.270600  0.338100  1.0
  H  H131  1  0.565000  0.736300  0.548400  1.0
  H  H132  1  0.435000  0.263700  0.451600  1.0
  H  H133  1  0.556600  0.828100  0.545600  1.0
  H  H134  1  0.443400  0.171900  0.454400  1.0
  H  H135  1  0.431700  0.777900  0.543600  1.0
  H  H136  1  0.568300  0.222100  0.456400  1.0
  Pd  Pd137  1  0.385300  0.841600  0.800600  1.0
  Pd  Pd138  1  0.614700  0.158400  0.199400  1.0
  Pt  Pt139  1  0.232000  0.637800  0.273200  1.0
  Pt  Pt140  1  0.768000  0.362200  0.726800  1.0
  C  C141  1  0.872800  0.882500  0.525800  1
  C  C142  1  0.127200  0.117500  0.474200  1
  C  C143  1  0.165000  0.258400  0.067400  1
  C  C144  1  0.835000  0.741600  0.932600  1
  C  C145  1  0.697000  0.632300  0.248000  1
  C  C146  1  0.303000  0.367700  0.752000  1
  C  C147  1  0.643900  0.645400  0.317300  1
  C  C148  1  0.356100  0.354600  0.682700  1
  C  C149  1  0.657400  0.657800  0.179400  1
  C  C150  1  0.342600  0.342200  0.820600  1
  C  C151  1  0.465000  0.462000  0.960700  1
  C  C152  1  0.535000  0.538000  0.039300  1
  C  C153  1  0.533000  0.434000  0.010600  1
  C  C154  1  0.467000  0.566000  0.989400  1
  C  C155  1  0.210600  0.245600  0.026300  1
  C  C156  1  0.789400  0.754400  0.973700  1
  C  C157  1  0.912600  0.443600  0.118300  1
  C  C158  1  0.087400  0.556400  0.881700  1
  C  C159  1  0.096900  0.451500  0.111800  1
  C  C160  1  0.903100  0.548500  0.888200  1
  C  C161  1  0.906600  0.342300  0.155200  1
  C  C162  1  0.093400  0.657700  0.844800  1
  C  C163  1  0.039100  0.504800  0.122900  1
  C  C164  1  0.960900  0.495200  0.877100  1
  C  C165  1  0.176000  0.503000  0.073800  1
  C  C166  1  0.824000  0.497000  0.926200  1
  C  C167  1  0.004000  0.571600  0.114100  1
  C  C168  1  0.996000  0.428400  0.885900  1
  C  C169  1  0.291000  0.683800  0.179700  1.0
  C  C170  1  0.709000  0.316200  0.820300  1.0
  C  C171  1  0.313700  0.711700  0.119400  1.0
  C  C172  1  0.686300  0.288300  0.880600  1.0
  C  C173  1  0.327000  0.747100  0.048800  1.0
  C  C174  1  0.673000  0.252900  0.951200  1.0
  C  C175  1  0.436900  0.783000  0.023400  1.0
  C  C176  1  0.563100  0.217000  0.976600  1.0
  C  C177  1  0.445300  0.813700  0.954300  1.0
  C  C178  1  0.554700  0.186300  0.045700  1.0
  C  C179  1  0.243900  0.779900  0.933700  1.0
  C  C180  1  0.756100  0.220100  0.066300  1.0
  C  C181  1  0.228300  0.746800  0.002300  1.0
  C  C182  1  0.771700  0.253200  0.997700  1.0
  C  C183  1  0.328100  0.542400  0.252500  1.0
  C  C184  1  0.671900  0.457600  0.747500  1.0
  C  C185  1  0.384800  0.485900  0.239500  1.0
  C  C186  1  0.615200  0.514100  0.760500  1.0
  C  C187  1  0.441300  0.414500  0.223200  1.0
  C  C188  1  0.558700  0.585500  0.776800  1.0
  C  C189  1  0.569600  0.403500  0.221200  1.0
  C  C190  1  0.430400  0.596500  0.778800  1.0
  C  C191  1  0.618200  0.329500  0.210100  1.0
  C  C192  1  0.381800  0.670500  0.789900  1.0
  C  C193  1  0.420100  0.282400  0.199100  1.0
  C  C194  1  0.579900  0.717600  0.800900  1.0
  C  C195  1  0.364400  0.352600  0.210500  1.0
  C  C196  1  0.635600  0.647400  0.789500  1.0
  C  C197  1  0.112300  0.818500  0.215500  1.0
  C  C198  1  0.887700  0.181500  0.784500  1.0
  C  C199  1  0.027800  0.797800  0.165600  1.0
  C  C200  1  0.972200  0.202200  0.834400  1.0
  C  C201  1  0.010700  0.844800  0.104000  1.0
  C  C202  1  0.989300  0.155200  0.896000  1.0
  C  C203  1  0.076900  0.912500  0.092100  1.0
  C  C204  1  0.923100  0.087500  0.907900  1.0
  C  C205  1  0.159100  0.933500  0.142000  1.0
  C  C206  1  0.840900  0.066500  0.858000  1.0
  C  C207  1  0.177100  0.885900  0.202700  1.0
  C  C208  1  0.822900  0.114100  0.797300  1.0
  C  C209  1  0.233100  0.807400  0.349400  1.0
  C  C210  1  0.766900  0.192600  0.650600  1.0
  C  C211  1  0.183600  0.863400  0.391200  1.0
  C  C212  1  0.816400  0.136600  0.608800  1.0
  C  C213  1  0.263400  0.904800  0.430800  1.0
  C  C214  1  0.736600  0.095200  0.569200  1.0
  C  C215  1  0.391700  0.892600  0.429000  1.0
  C  C216  1  0.608300  0.107400  0.571000  1.0
  C  C217  1  0.439200  0.838100  0.388200  1.0
  C  C218  1  0.560800  0.161900  0.611800  1.0
  C  C219  1  0.363300  0.794500  0.348400  1.0
  C  C220  1  0.636700  0.205500  0.651600  1.0
  C  C221  1  0.984300  0.745600  0.338200  1.0
  C  C222  1  0.015700  0.254400  0.661800  1.0
  C  C223  1  0.979700  0.696500  0.408300  1.0
  C  C224  1  0.020300  0.303500  0.591700  1.0
  C  C225  1  0.991700  0.610400  0.401200  1.0
  C  C226  1  0.008300  0.389600  0.598800  1.0
  C  C227  1  0.244000  0.585500  0.454900  1.0
  C  C228  1  0.756000  0.414500  0.545100  1.0
  C  C229  1  0.193700  0.580400  0.524600  1.0
  C  C230  1  0.806300  0.419600  0.475400  1.0
  C  C231  1  0.270900  0.579500  0.581000  1.0
  C  C232  1  0.729100  0.420500  0.419000  1.0
  C  C233  1  0.399500  0.585300  0.571400  1.0
  C  C234  1  0.600500  0.414700  0.428600  1.0
  C  C235  1  0.447800  0.592700  0.502500  1.0
  C  C236  1  0.552200  0.407300  0.497500  1.0
  C  C237  1  0.371000  0.591900  0.444600  1.0
  C  C238  1  0.629000  0.408100  0.555400  1.0
  C  C239  1  0.128000  0.475300  0.370200  1.0
  C  C240  1  0.872000  0.524700  0.629800  1.0
  C  C241  1  0.049700  0.452800  0.320100  1.0
  C  C242  1  0.950300  0.547200  0.679900  1.0
  C  C243  1  0.033100  0.374900  0.310700  1.0
  C  C244  1  0.966900  0.625100  0.689300  1.0
  C  C245  1  0.092100  0.320000  0.354700  1.0
  C  C246  1  0.907900  0.680000  0.645300  1.0
  C  C247  1  0.168000  0.342800  0.406500  1.0
  C  C248  1  0.832000  0.657200  0.593500  1.0
  C  C249  1  0.186600  0.420500  0.415600  1.0
  C  C250  1  0.813400  0.579500  0.584400  1.0
  C  C251  1  0.327300  0.039800  0.747100  1.0
  C  C252  1  0.672700  0.960200  0.252900  1.0
  C  C253  1  0.262600  0.114900  0.764600  1.0
  C  C254  1  0.737400  0.885100  0.235400  1.0
  C  C255  1  0.358600  0.999200  0.896000  1.0
  C  C256  1  0.641400  0.000800  0.104000  1.0
  C  C257  1  0.496400  0.021100  0.893100  1.0
  C  C258  1  0.503600  0.978900  0.106900  1.0
  C  C259  1  0.134600  0.954400  0.830800  1.0
  C  C260  1  0.865400  0.045600  0.169200  1.0
  C  C261  1  0.061700  0.931300  0.768600  1.0
  C  C262  1  0.938300  0.068700  0.231400  1.0
  C  C263  1  0.290300  0.874300  0.628000  1.0
  C  C264  1  0.709700  0.125700  0.372000  1.0
  C  C265  1  0.205100  0.804100  0.635300  1.0
  C  C266  1  0.794900  0.195900  0.364700  1.0
  C  C267  1  0.538900  0.937200  0.654800  1.0
  C  C268  1  0.461100  0.062800  0.345200  1.0
  C  C269  1  0.645900  0.940700  0.705600  1.0
  C  C270  1  0.354100  0.059300  0.294400  1.0
  C  C271  1  0.504600  0.776100  0.645000  1.0
  C  C272  1  0.495400  0.223900  0.355000  1.0
  C  C273  1  0.515500  0.779900  0.563200  1.0
  C  C274  1  0.484500  0.220100  0.436800  1.0
  S  S275  1  0.782300  0.898000  0.445200  1
  S  S276  1  0.217700  0.102000  0.554800  1
  S  S277  1  0.202400  0.154800  0.060600  1
  S  S278  1  0.797600  0.845200  0.939400  1
  S  S279  1  0.166400  0.177700  0.096200  1
  S  S280  1  0.833600  0.822300  0.903800  1
  N  N281  1  0.350900  0.812900  0.909400  1.0
  N  N282  1  0.649100  0.187100  0.090600  1.0
  N  N283  1  0.542600  0.270600  0.201000  1.0
  N  N284  1  0.457400  0.729400  0.799000  1.0
  O  O285  1  0.870200  0.933400  0.394500  1
  O  O286  1  0.129800  0.066600  0.605500  1
  O  O287  1  0.745100  0.821400  0.432600  1
  O  O288  1  0.254900  0.178600  0.567400  1
  O  O289  1  0.681500  0.946900  0.466900  1
  O  O290  1  0.318500  0.053100  0.533100  1
  O  O291  1  0.267900  0.153000  0.998300  1
  O  O292  1  0.732100  0.847000  0.001700  1
  O  O293  1  0.082300  0.115100  0.058700  1
  O  O294  1  0.917700  0.884900  0.941300  1
  O  O295  1  0.285400  0.134900  0.113100  1
  O  O296  1  0.714600  0.865100  0.886900  1
  O  O297  1  0.791600  0.586500  0.252900  1
  O  O298  1  0.208400  0.413500  0.747100  1
  O  O299  1  0.336000  0.495900  0.963500  1
  O  O300  1  0.664000  0.504100  0.036500  1
  O  O301  1  0.126100  0.236300  0.151800  1
  O  O302  1  0.873900  0.763700  0.848200  1
  O  O303  1  0.069500  0.139200  0.071600  1
  O  O304  1  0.930500  0.860800  0.928400  1
  O  O305  1  0.265500  0.143000  0.127900  1
  O  O306  1  0.734500  0.857000  0.872100  1
  O  O307  1  0.986000  0.536000  0.112600  1
  O  O308  1  0.014000  0.464000  0.887400  1
  O  O309  1  0.904400  0.445300  0.143200  1
  O  O310  1  0.095600  0.554700  0.856800  1
  F  F311  1  0.924100  0.946400  0.544800  1
  F  F312  1  0.075900  0.053600  0.455200  1
  F  F313  1  0.966100  0.832900  0.515900  1
  F  F314  1  0.033900  0.167100  0.484100  1
  F  F315  1  0.802700  0.852600  0.580000  1
  F  F316  1  0.197300  0.147400  0.420000  1
  F  F317  1  0.106100  0.270800  0.121900  1
  F  F318  1  0.893900  0.729200  0.878100  1
  F  F319  1  0.263700  0.299000  0.061700  1
  F  F320  1  0.736300  0.701000  0.938300  1
  F  F321  1  0.084300  0.283100  0.019500  1
  F  F322  1  0.915700  0.716900  0.980500  1
  F  F323  1  0.256800  0.206600  0.969600  1
  F  F324  1  0.743200  0.793400  0.030400  1
  F  F325  1  0.304400  0.295100  0.044800  1
  F  F326  1  0.695600  0.704900  0.955200  1
  F  F327  1  0.116400  0.287000  0.000100  1
  F  F328  1  0.883600  0.713000  0.999900  1
