# generated using pymatgen
data_HgH46C57S2N6(O5F3)2
_symmetry_space_group_name_H-M   'P 1'
_cell_length_a   8.73800000
_cell_length_b   22.84000000
_cell_length_c   29.63200000
_cell_angle_alpha   90.00000000
_cell_angle_beta   90.00000000
_cell_angle_gamma   97.56800000
_symmetry_Int_Tables_number   1
_chemical_formula_structural   HgH46C57S2N6(O5F3)2
_chemical_formula_sum   'Hg4 H184 C228 S8 N24 O40 F24'
_cell_volume   5862.31974408
_cell_formula_units_Z   4
loop_
 _symmetry_equiv_pos_site_id
 _symmetry_equiv_pos_as_xyz
  1  'x, y, z'
loop_
 _atom_site_type_symbol
 _atom_site_label
 _atom_site_symmetry_multiplicity
 _atom_site_fract_x
 _atom_site_fract_y
 _atom_site_fract_z
 _atom_site_occupancy
  Hg  Hg1  1  0.303710  0.309260  0.011970  1.0
  Hg  Hg2  1  0.196290  0.190740  0.511970  1.0
  Hg  Hg3  1  0.696290  0.690740  0.988030  1.0
  Hg  Hg4  1  0.803710  0.809260  0.488030  1.0
  H  H5  1  0.764300  0.109200  0.842000  1
  H  H6  1  0.735700  0.390800  0.342000  1
  H  H7  1  0.235700  0.890800  0.158000  1
  H  H8  1  0.264300  0.609200  0.658000  1
  H  H9  1  0.630000  0.119300  0.807300  1
  H  H10  1  0.870000  0.380700  0.307300  1
  H  H11  1  0.370000  0.880700  0.192700  1
  H  H12  1  0.130000  0.619300  0.692700  1
  H  H13  1  0.659200  0.160300  0.851100  1
  H  H14  1  0.840800  0.339700  0.351100  1
  H  H15  1  0.340800  0.839700  0.148900  1
  H  H16  1  0.159200  0.660300  0.648900  1
  H  H17  1  0.328600  0.122000  0.948600  1
  H  H18  1  0.171400  0.378000  0.448600  1
  H  H19  1  0.671400  0.878000  0.051400  1
  H  H20  1  0.828600  0.622000  0.551400  1
  H  H21  1  0.437100  0.081400  0.923100  1
  H  H22  1  0.062900  0.418600  0.423100  1
  H  H23  1  0.562900  0.918600  0.076900  1
  H  H24  1  0.937100  0.581400  0.576900  1
  H  H25  1  0.493900  0.114000  0.969200  1
  H  H26  1  0.006100  0.386000  0.469200  1
  H  H27  1  0.506100  0.886000  0.030800  1
  H  H28  1  0.993900  0.614000  0.530800  1
  H  H29  1  0.131800  0.381700  0.862000  1.0
  H  H30  1  0.368200  0.118300  0.362000  1.0
  H  H31  1  0.868200  0.618300  0.138000  1.0
  H  H32  1  0.631800  0.881700  0.638000  1.0
  H  H33  1  0.201300  0.388100  0.937000  1.0
  H  H34  1  0.298700  0.111900  0.437000  1.0
  H  H35  1  0.798700  0.611900  0.063000  1.0
  H  H36  1  0.701300  0.888100  0.563000  1.0
  H  H37  1  0.547400  0.762700  0.916900  1.0
  H  H38  1  0.952600  0.737300  0.416900  1.0
  H  H39  1  0.452600  0.237300  0.083100  1.0
  H  H40  1  0.047400  0.262700  0.583100  1.0
  H  H41  1  0.293100  0.221600  0.934900  1.0
  H  H42  1  0.206900  0.278400  0.434900  1.0
  H  H43  1  0.706900  0.778400  0.065100  1.0
  H  H44  1  0.793100  0.721600  0.565100  1.0
  H  H45  1  0.725000  0.611700  0.908500  1.0
  H  H46  1  0.775000  0.888300  0.408500  1.0
  H  H47  1  0.275000  0.388300  0.091500  1.0
  H  H48  1  0.225000  0.111700  0.591500  1.0
  H  H49  1  0.129100  0.292700  0.822900  1.0
  H  H50  1  0.370900  0.207300  0.322900  1.0
  H  H51  1  0.870900  0.707300  0.177100  1.0
  H  H52  1  0.629100  0.792700  0.677100  1.0
  H  H53  1  0.528700  0.167000  0.708500  1.0
  H  H54  1  0.971300  0.333000  0.208500  1.0
  H  H55  1  0.471300  0.833000  0.291500  1.0
  H  H56  1  0.028700  0.667000  0.791500  1.0
  H  H57  1  0.417100  0.267800  0.813200  1.0
  H  H58  1  0.082900  0.232200  0.313200  1.0
  H  H59  1  0.582900  0.732200  0.186800  1.0
  H  H60  1  0.917100  0.767800  0.686800  1.0
  H  H61  1  0.369300  0.087400  0.735000  1.0
  H  H62  1  0.130700  0.412600  0.235000  1.0
  H  H63  1  0.630700  0.912600  0.265000  1.0
  H  H64  1  0.869300  0.587400  0.765000  1.0
  H  H65  1  0.747000  0.782900  0.800900  1.0
  H  H66  1  0.753000  0.717100  0.300900  1.0
  H  H67  1  0.253000  0.217100  0.199100  1.0
  H  H68  1  0.247000  0.282900  0.699100  1.0
  H  H69  1  0.895300  0.801900  0.875700  1.0
  H  H70  1  0.604700  0.698100  0.375700  1.0
  H  H71  1  0.104700  0.198100  0.124300  1.0
  H  H72  1  0.395300  0.301900  0.624300  1.0
  H  H73  1  0.558300  0.258000  0.747900  1.0
  H  H74  1  0.941700  0.242000  0.247900  1.0
  H  H75  1  0.441700  0.742000  0.252100  1.0
  H  H76  1  0.058300  0.758000  0.752100  1.0
  H  H77  1  0.505400  0.935700  0.739700  1.0
  H  H78  1  0.994600  0.564300  0.239700  1.0
  H  H79  1  0.494600  0.064300  0.260300  1.0
  H  H80  1  0.005400  0.435700  0.760300  1.0
  H  H81  1  0.011300  0.180900  0.922600  1.0
  H  H82  1  0.488700  0.319100  0.422600  1.0
  H  H83  1  0.988700  0.819100  0.077400  1.0
  H  H84  1  0.511300  0.680900  0.577400  1.0
  H  H85  1  0.803800  0.427500  0.978900  1.0
  H  H86  1  0.696200  0.072500  0.478900  1.0
  H  H87  1  0.196200  0.572500  0.021100  1.0
  H  H88  1  0.303800  0.927500  0.521100  1.0
  H  H89  1  0.786600  0.484700  0.008700  1.0
  H  H90  1  0.713400  0.015300  0.508700  1.0
  H  H91  1  0.213400  0.515300  0.991300  1.0
  H  H92  1  0.286600  0.984700  0.491300  1.0
  H  H93  1  0.743100  0.483700  0.956300  1.0
  H  H94  1  0.756900  0.016300  0.456300  1.0
  H  H95  1  0.256900  0.516300  0.043700  1.0
  H  H96  1  0.243100  0.983700  0.543700  1.0
  H  H97  1  0.264100  0.712900  0.888800  1.0
  H  H98  1  0.235900  0.787100  0.388800  1.0
  H  H99  1  0.735900  0.287100  0.111200  1.0
  H  H100  1  0.764100  0.212900  0.611200  1.0
  H  H101  1  0.752400  0.923200  0.718100  1.0
  H  H102  1  0.747600  0.576800  0.218100  1.0
  H  H103  1  0.247600  0.076800  0.281900  1.0
  H  H104  1  0.252400  0.423200  0.781900  1.0
  H  H105  1  0.871700  0.844900  0.748100  1.0
  H  H106  1  0.628300  0.655100  0.248100  1.0
  H  H107  1  0.128300  0.155100  0.251900  1.0
  H  H108  1  0.371700  0.344900  0.751900  1.0
  H  H109  1  0.312500  0.980200  0.826500  1.0
  H  H110  1  0.187500  0.519800  0.326500  1.0
  H  H111  1  0.687500  0.019800  0.173500  1.0
  H  H112  1  0.812500  0.480200  0.673500  1.0
  H  H113  1  0.557200  0.681600  0.796100  1.0
  H  H114  1  0.942800  0.818400  0.296100  1.0
  H  H115  1  0.442800  0.318400  0.203900  1.0
  H  H116  1  0.057200  0.181600  0.703900  1.0
  H  H117  1  0.854100  0.099400  0.949700  1.0
  H  H118  1  0.645900  0.400600  0.449700  1.0
  H  H119  1  0.145900  0.900600  0.050300  1.0
  H  H120  1  0.354100  0.599400  0.550300  1.0
  H  H121  1  0.993600  0.996800  0.851300  1.0
  H  H122  1  0.506400  0.503200  0.351300  1.0
  H  H123  1  0.006400  0.003200  0.148700  1.0
  H  H124  1  0.493600  0.496800  0.648700  1.0
  H  H125  1  0.017600  0.723600  0.907600  1.0
  H  H126  1  0.482400  0.776400  0.407600  1.0
  H  H127  1  0.982400  0.276400  0.092400  1.0
  H  H128  1  0.517600  0.223600  0.592400  1.0
  H  H129  1  0.028700  0.867500  0.827300  1.0
  H  H130  1  0.471300  0.632500  0.327300  1.0
  H  H131  1  0.971300  0.132500  0.172700  1.0
  H  H132  1  0.528700  0.367500  0.672700  1.0
  H  H133  1  0.674700  0.607100  0.831700  1.0
  H  H134  1  0.825300  0.892900  0.331700  1.0
  H  H135  1  0.325300  0.392900  0.168300  1.0
  H  H136  1  0.174700  0.107100  0.668300  1.0
  H  H137  1  0.850700  0.007300  0.914700  1.0
  H  H138  1  0.649300  0.492700  0.414700  1.0
  H  H139  1  0.149300  0.992700  0.085300  1.0
  H  H140  1  0.350700  0.507300  0.585300  1.0
  H  H141  1  0.801300  0.021200  0.722600  1.0
  H  H142  1  0.698700  0.478800  0.222600  1.0
  H  H143  1  0.198700  0.978800  0.277400  1.0
  H  H144  1  0.301300  0.521200  0.777400  1.0
  H  H145  1  0.820800  0.091000  0.731200  1.0
  H  H146  1  0.679200  0.409000  0.231200  1.0
  H  H147  1  0.179200  0.909000  0.268800  1.0
  H  H148  1  0.320800  0.591000  0.768800  1.0
  H  H149  1  0.848300  0.047100  0.771600  1.0
  H  H150  1  0.651700  0.452900  0.271600  1.0
  H  H151  1  0.151700  0.952900  0.228400  1.0
  H  H152  1  0.348300  0.547100  0.728400  1.0
  H  H153  1  0.311300  0.882500  0.674900  1.0
  H  H154  1  0.188700  0.617500  0.174900  1.0
  H  H155  1  0.688700  0.117500  0.325100  1.0
  H  H156  1  0.811300  0.382500  0.825100  1.0
  H  H157  1  0.190000  0.829100  0.656800  1.0
  H  H158  1  0.310000  0.670900  0.156800  1.0
  H  H159  1  0.810000  0.170900  0.343200  1.0
  H  H160  1  0.690000  0.329100  0.843200  1.0
  H  H161  1  0.305900  0.818300  0.696900  1.0
  H  H162  1  0.194100  0.681700  0.196900  1.0
  H  H163  1  0.694100  0.181700  0.303100  1.0
  H  H164  1  0.805900  0.318300  0.803100  1.0
  H  H165  1  0.155500  0.992500  0.643700  1.0
  H  H166  1  0.344500  0.507500  0.143700  1.0
  H  H167  1  0.844500  0.007500  0.356300  1.0
  H  H168  1  0.655500  0.492500  0.856300  1.0
  H  H169  1  0.993300  0.974700  0.619000  1.0
  H  H170  1  0.506700  0.525300  0.119000  1.0
  H  H171  1  0.006700  0.025300  0.381000  1.0
  H  H172  1  0.493300  0.474700  0.881000  1.0
  H  H173  1  0.100700  0.925100  0.630400  1.0
  H  H174  1  0.399300  0.574900  0.130400  1.0
  H  H175  1  0.899300  0.074900  0.369600  1.0
  H  H176  1  0.600700  0.425100  0.869600  1.0
  H  H177  1  0.871800  0.111700  0.038500  1.0
  H  H178  1  0.628200  0.388300  0.538500  1.0
  H  H179  1  0.128200  0.888300  0.961500  1.0
  H  H180  1  0.371800  0.611700  0.461500  1.0
  H  H181  1  0.997200  0.092200  0.072800  1.0
  H  H182  1  0.502800  0.407800  0.572800  1.0
  H  H183  1  0.002800  0.907800  0.927200  1.0
  H  H184  1  0.497200  0.592200  0.427200  1.0
  H  H185  1  0.995800  0.071100  0.021300  1.0
  H  H186  1  0.504200  0.428900  0.521300  1.0
  H  H187  1  0.004200  0.928900  0.978700  1.0
  H  H188  1  0.495800  0.571100  0.478700  1.0
  C  C189  1  0.802500  0.431300  0.121700  1
  C  C190  1  0.697500  0.068700  0.621700  1
  C  C191  1  0.197500  0.568700  0.878300  1
  C  C192  1  0.302500  0.931300  0.378300  1
  C  C193  1  0.708800  0.138900  0.827800  1
  C  C194  1  0.791200  0.361100  0.327800  1
  C  C195  1  0.291200  0.861100  0.172200  1
  C  C196  1  0.208800  0.638900  0.672200  1
  C  C197  1  0.819500  0.181100  0.801700  1
  C  C198  1  0.680500  0.318900  0.301700  1
  C  C199  1  0.180500  0.818900  0.198300  1
  C  C200  1  0.319500  0.681100  0.698300  1
  C  C201  1  0.404000  0.094300  0.952700  1
  C  C202  1  0.096000  0.405700  0.452700  1
  C  C203  1  0.596000  0.905700  0.047300  1
  C  C204  1  0.904000  0.594300  0.547300  1
  C  C205  1  0.336000  0.044700  0.977600  1
  C  C206  1  0.164000  0.455300  0.477600  1
  C  C207  1  0.664000  0.955300  0.022400  1
  C  C208  1  0.836000  0.544700  0.522400  1
  C  C209  1  0.161900  0.348200  0.876900  1.0
  C  C210  1  0.338100  0.151800  0.376900  1.0
  C  C211  1  0.838100  0.651800  0.123100  1.0
  C  C212  1  0.661900  0.848200  0.623100  1.0
  C  C213  1  0.204700  0.352100  0.921100  1.0
  C  C214  1  0.295300  0.147900  0.421100  1.0
  C  C215  1  0.795300  0.647900  0.078900  1.0
  C  C216  1  0.704700  0.852100  0.578900  1.0
  C  C217  1  0.211200  0.246800  0.875600  1.0
  C  C218  1  0.288800  0.253200  0.375600  1.0
  C  C219  1  0.788800  0.753200  0.124400  1.0
  C  C220  1  0.711200  0.746800  0.624400  1.0
  C  C221  1  0.573700  0.731000  0.898900  1.0
  C  C222  1  0.926300  0.769000  0.398900  1.0
  C  C223  1  0.426300  0.269000  0.101100  1.0
  C  C224  1  0.073700  0.231000  0.601100  1.0
  C  C225  1  0.159500  0.914400  0.736800  1.0
  C  C226  1  0.340500  0.585600  0.236800  1.0
  C  C227  1  0.840500  0.085600  0.263200  1.0
  C  C228  1  0.659500  0.414400  0.763200  1.0
  C  C229  1  0.256900  0.253800  0.919800  1.0
  C  C230  1  0.243100  0.246200  0.419800  1.0
  C  C231  1  0.743100  0.746200  0.080200  1.0
  C  C232  1  0.756900  0.753800  0.580200  1.0
  C  C233  1  0.678900  0.642300  0.894300  1.0
  C  C234  1  0.821100  0.857700  0.394300  1.0
  C  C235  1  0.321100  0.357700  0.105700  1.0
  C  C236  1  0.178900  0.142300  0.605700  1.0
  C  C237  1  0.161900  0.295700  0.853500  1.0
  C  C238  1  0.338100  0.204300  0.353500  1.0
  C  C239  1  0.838100  0.704300  0.146500  1.0
  C  C240  1  0.661900  0.795700  0.646500  1.0
  C  C241  1  0.189100  0.078200  0.808200  1.0
  C  C242  1  0.310900  0.421800  0.308200  1.0
  C  C243  1  0.810900  0.921800  0.191800  1.0
  C  C244  1  0.689100  0.578200  0.691800  1.0
  C  C245  1  0.241500  0.921200  0.776700  1.0
  C  C246  1  0.258500  0.578800  0.276700  1.0
  C  C247  1  0.758500  0.078800  0.223300  1.0
  C  C248  1  0.741500  0.421200  0.723300  1.0
  C  C249  1  0.538400  0.730400  0.853900  1.0
  C  C250  1  0.961600  0.769600  0.353900  1.0
  C  C251  1  0.461600  0.269600  0.146100  1.0
  C  C252  1  0.038400  0.230400  0.646100  1.0
  C  C253  1  0.461200  0.779000  0.833600  1.0
  C  C254  1  0.038800  0.721000  0.333600  1.0
  C  C255  1  0.538800  0.221000  0.166400  1.0
  C  C256  1  0.961200  0.279000  0.666400  1.0
  C  C257  1  0.297700  0.183100  0.814300  1.0
  C  C258  1  0.202300  0.316900  0.314300  1.0
  C  C259  1  0.702300  0.816900  0.185700  1.0
  C  C260  1  0.797700  0.683100  0.685700  1.0
  C  C261  1  0.543100  0.817800  0.802100  1.0
  C  C262  1  0.956900  0.682200  0.302100  1.0
  C  C263  1  0.456900  0.182200  0.197900  1.0
  C  C264  1  0.043100  0.317800  0.697900  1.0
  C  C265  1  0.286600  0.127800  0.791300  1.0
  C  C266  1  0.213400  0.372200  0.291300  1.0
  C  C267  1  0.713400  0.872200  0.208700  1.0
  C  C268  1  0.786600  0.627800  0.708700  1.0
  C  C269  1  0.308400  0.784600  0.845400  1.0
  C  C270  1  0.191600  0.715400  0.345400  1.0
  C  C271  1  0.691600  0.215400  0.154600  1.0
  C  C272  1  0.808400  0.284600  0.654600  1.0
  C  C273  1  0.235000  0.831900  0.826700  1.0
  C  C274  1  0.265000  0.668100  0.326700  1.0
  C  C275  1  0.765000  0.168100  0.173300  1.0
  C  C276  1  0.735000  0.331900  0.673300  1.0
  C  C277  1  0.472000  0.170700  0.735500  1.0
  C  C278  1  0.028000  0.329300  0.235500  1.0
  C  C279  1  0.528000  0.829300  0.264500  1.0
  C  C280  1  0.972000  0.670700  0.764500  1.0
  C  C281  1  0.207400  0.188800  0.852600  1.0
  C  C282  1  0.292600  0.311200  0.352600  1.0
  C  C283  1  0.792600  0.811200  0.147400  1.0
  C  C284  1  0.707400  0.688800  0.647400  1.0
  C  C285  1  0.404500  0.231300  0.797500  1.0
  C  C286  1  0.095500  0.268700  0.297500  1.0
  C  C287  1  0.595500  0.768700  0.202500  1.0
  C  C288  1  0.904500  0.731300  0.702500  1.0
  C  C289  1  0.377000  0.123800  0.751000  1.0
  C  C290  1  0.123000  0.376200  0.251000  1.0
  C  C291  1  0.623000  0.876200  0.249000  1.0
  C  C292  1  0.877000  0.623800  0.749000  1.0
  C  C293  1  0.695300  0.813100  0.788300  1.0
  C  C294  1  0.804700  0.686900  0.288300  1.0
  C  C295  1  0.304700  0.186900  0.211700  1.0
  C  C296  1  0.195300  0.313100  0.711700  1.0
  C  C297  1  0.468200  0.865200  0.783700  1.0
  C  C298  1  0.031800  0.634800  0.283700  1.0
  C  C299  1  0.531800  0.134800  0.216300  1.0
  C  C300  1  0.968200  0.365200  0.716300  1.0
  C  C301  1  0.999000  0.797900  0.868000  1.0
  C  C302  1  0.501000  0.702100  0.368000  1.0
  C  C303  1  0.001000  0.202100  0.132000  1.0
  C  C304  1  0.499000  0.297900  0.632000  1.0
  C  C305  1  0.317900  0.871500  0.796000  1.0
  C  C306  1  0.182100  0.628500  0.296000  1.0
  C  C307  1  0.682100  0.128500  0.204000  1.0
  C  C308  1  0.817900  0.371500  0.704000  1.0
  C  C309  1  0.085000  0.960200  0.719400  1.0
  C  C310  1  0.415000  0.539800  0.219400  1.0
  C  C311  1  0.915000  0.039800  0.280600  1.0
  C  C312  1  0.585000  0.460200  0.780600  1.0
  C  C313  1  0.489100  0.225500  0.758800  1.0
  C  C314  1  0.010900  0.274500  0.258800  1.0
  C  C315  1  0.510900  0.774500  0.241200  1.0
  C  C316  1  0.989100  0.725500  0.741200  1.0
  C  C317  1  0.552200  0.904100  0.752100  1.0
  C  C318  1  0.947800  0.595900  0.252100  1.0
  C  C319  1  0.447800  0.095900  0.247900  1.0
  C  C320  1  0.052200  0.404100  0.747900  1.0
  C  C321  1  0.103100  0.083600  0.847100  1.0
  C  C322  1  0.396900  0.416400  0.347100  1.0
  C  C323  1  0.896900  0.916400  0.152900  1.0
  C  C324  1  0.603100  0.583600  0.652900  1.0
  C  C325  1  0.694300  0.273700  0.933600  1.0
  C  C326  1  0.805700  0.226300  0.433600  1.0
  C  C327  1  0.305700  0.726300  0.066400  1.0
  C  C328  1  0.194300  0.773700  0.566400  1.0
  C  C329  1  0.011200  0.143800  0.908100  1.0
  C  C330  1  0.488800  0.356200  0.408100  1.0
  C  C331  1  0.988800  0.856200  0.091900  1.0
  C  C332  1  0.511200  0.643800  0.591900  1.0
  C  C333  1  0.742300  0.459900  0.983800  1.0
  C  C334  1  0.757700  0.040100  0.483800  1.0
  C  C335  1  0.257700  0.540100  0.016200  1.0
  C  C336  1  0.242300  0.959900  0.516200  1.0
  C  C337  1  0.218300  0.744600  0.876000  1.0
  C  C338  1  0.281700  0.755400  0.376000  1.0
  C  C339  1  0.781700  0.255400  0.124000  1.0
  C  C340  1  0.718300  0.244600  0.624000  1.0
  C  C341  1  0.698700  0.896800  0.739300  1.0
  C  C342  1  0.801300  0.603200  0.239300  1.0
  C  C343  1  0.301300  0.103200  0.260700  1.0
  C  C344  1  0.198700  0.396800  0.760700  1.0
  C  C345  1  0.090500  0.012700  0.743400  1.0
  C  C346  1  0.409500  0.487300  0.243400  1.0
  C  C347  1  0.909500  0.987300  0.256600  1.0
  C  C348  1  0.590500  0.512700  0.756600  1.0
  C  C349  1  0.770500  0.850300  0.757500  1.0
  C  C350  1  0.729500  0.649700  0.257500  1.0
  C  C351  1  0.229500  0.149700  0.242500  1.0
  C  C352  1  0.270500  0.350300  0.742500  1.0
  C  C353  1  0.252700  0.974800  0.799700  1.0
  C  C354  1  0.247300  0.525200  0.299700  1.0
  C  C355  1  0.747300  0.025200  0.200300  1.0
  C  C356  1  0.752700  0.474800  0.700300  1.0
  C  C357  1  0.577800  0.683400  0.827600  1.0
  C  C358  1  0.922200  0.816600  0.327600  1.0
  C  C359  1  0.422200  0.316600  0.172400  1.0
  C  C360  1  0.077800  0.183400  0.672400  1.0
  C  C361  1  0.108000  0.139600  0.870300  1.0
  C  C362  1  0.392000  0.360400  0.370300  1.0
  C  C363  1  0.892000  0.860400  0.129700  1.0
  C  C364  1  0.608000  0.639600  0.629700  1.0
  C  C365  1  0.917400  0.095600  0.924100  1.0
  C  C366  1  0.582600  0.404400  0.424100  1.0
  C  C367  1  0.082600  0.904400  0.075900  1.0
  C  C368  1  0.417400  0.595600  0.575900  1.0
  C  C369  1  0.176000  0.020700  0.783500  1.0
  C  C370  1  0.324000  0.479300  0.283500  1.0
  C  C371  1  0.824000  0.979300  0.216500  1.0
  C  C372  1  0.676000  0.520700  0.716500  1.0
  C  C373  1  0.000400  0.034300  0.865600  1.0
  C  C374  1  0.499600  0.465700  0.365600  1.0
  C  C375  1  0.999600  0.965700  0.134400  1.0
  C  C376  1  0.500400  0.534300  0.634400  1.0
  C  C377  1  0.584400  0.435700  0.994800  1.0
  C  C378  1  0.915600  0.064300  0.494800  1.0
  C  C379  1  0.415600  0.564300  0.005200  1.0
  C  C380  1  0.084400  0.935700  0.505200  1.0
  C  C381  1  0.072700  0.750600  0.887100  1.0
  C  C382  1  0.427300  0.749400  0.387100  1.0
  C  C383  1  0.927300  0.249400  0.112900  1.0
  C  C384  1  0.572700  0.250600  0.612900  1.0
  C  C385  1  0.078000  0.836300  0.839500  1.0
  C  C386  1  0.422000  0.663700  0.339500  1.0
  C  C387  1  0.922000  0.163700  0.160500  1.0
  C  C388  1  0.578000  0.336300  0.660500  1.0
  C  C389  1  0.648000  0.639400  0.848900  1.0
  C  C390  1  0.852000  0.860600  0.348900  1.0
  C  C391  1  0.352000  0.360600  0.151100  1.0
  C  C392  1  0.148000  0.139400  0.651100  1.0
  C  C393  1  0.914400  0.040700  0.902800  1.0
  C  C394  1  0.585600  0.459300  0.402800  1.0
  C  C395  1  0.085600  0.959300  0.097200  1.0
  C  C396  1  0.414400  0.540700  0.597200  1.0
  C  C397  1  0.859900  0.054000  0.739100  1.0
  C  C398  1  0.640100  0.446000  0.239100  1.0
  C  C399  1  0.140100  0.946000  0.260900  1.0
  C  C400  1  0.359900  0.554000  0.760900  1.0
  C  C401  1  0.243800  0.846600  0.683600  1.0
  C  C402  1  0.256200  0.653400  0.183600  1.0
  C  C403  1  0.756200  0.153400  0.316400  1.0
  C  C404  1  0.743800  0.346600  0.816400  1.0
  C  C405  1  0.066200  0.961900  0.640800  1.0
  C  C406  1  0.433800  0.538100  0.140800  1.0
  C  C407  1  0.933800  0.038100  0.359200  1.0
  C  C408  1  0.566200  0.461900  0.859200  1.0
  C  C409  1  0.082600  0.155600  0.030000  1.0
  C  C410  1  0.417400  0.344400  0.530000  1.0
  C  C411  1  0.917400  0.844400  0.970000  1.0
  C  C412  1  0.582600  0.655600  0.470000  1.0
  C  C413  1  0.979000  0.103500  0.041600  1.0
  C  C414  1  0.521000  0.396500  0.541600  1.0
  C  C415  1  0.021000  0.896500  0.958400  1.0
  C  C416  1  0.479000  0.603500  0.458400  1.0
  S  S417  1  0.973800  0.486900  0.109860  1
  S  S418  1  0.526200  0.013100  0.609860  1
  S  S419  1  0.026200  0.513100  0.890140  1
  S  S420  1  0.473800  0.986900  0.390140  1
  S  S421  1  0.688000  0.250580  0.991800  1.0
  S  S422  1  0.812000  0.249420  0.491800  1.0
  S  S423  1  0.312000  0.749420  0.008200  1.0
  S  S424  1  0.188000  0.750580  0.508200  1.0
  N  N425  1  0.907000  0.211000  0.782300  1
  N  N426  1  0.593000  0.289000  0.282300  1
  N  N427  1  0.093000  0.789000  0.217700  1
  N  N428  1  0.407000  0.711000  0.717700  1
  N  N429  1  0.300000  0.005200  0.999600  1
  N  N430  1  0.200000  0.494800  0.499600  1
  N  N431  1  0.700000  0.994800  0.000400  1
  N  N432  1  0.800000  0.505200  0.500400  1
  N  N433  1  0.643700  0.688900  0.919000  1.0
  N  N434  1  0.856300  0.811100  0.419000  1.0
  N  N435  1  0.356300  0.311100  0.081000  1.0
  N  N436  1  0.143700  0.188900  0.581000  1.0
  N  N437  1  0.252600  0.305100  0.943100  1.0
  N  N438  1  0.247400  0.194900  0.443100  1.0
  N  N439  1  0.747400  0.694900  0.056900  1.0
  N  N440  1  0.752600  0.805100  0.556900  1.0
  N  N441  1  0.459600  0.416900  0.002900  1.0
  N  N442  1  0.040400  0.083100  0.502900  1.0
  N  N443  1  0.540400  0.583100  0.997100  1.0
  N  N444  1  0.959600  0.916900  0.497100  1.0
  N  N445  1  0.142500  0.202200  0.017300  1.0
  N  N446  1  0.357500  0.297800  0.517300  1.0
  N  N447  1  0.857500  0.797800  0.982700  1.0
  N  N448  1  0.642500  0.702200  0.482700  1.0
  O  O449  1  0.083400  0.449300  0.093400  1
  O  O450  1  0.416600  0.050700  0.593400  1
  O  O451  1  0.916600  0.550700  0.906600  1
  O  O452  1  0.583400  0.949300  0.406600  1
  O  O453  1  0.918100  0.524100  0.076700  1
  O  O454  1  0.581900  0.975900  0.576700  1
  O  O455  1  0.081900  0.475900  0.923300  1
  O  O456  1  0.418100  0.024100  0.423300  1
  O  O457  1  0.006700  0.514000  0.151800  1
  O  O458  1  0.493300  0.986000  0.651800  1
  O  O459  1  0.993300  0.486000  0.848200  1
  O  O460  1  0.506700  0.014000  0.348200  1
  O  O461  1  0.522800  0.236900  0.999900  1.0
  O  O462  1  0.977200  0.263100  0.499900  1.0
  O  O463  1  0.477200  0.763100  0.000100  1.0
  O  O464  1  0.022800  0.736900  0.500100  1.0
  O  O465  1  0.062300  0.361600  0.023400  1.0
  O  O466  1  0.437700  0.138400  0.523400  1.0
  O  O467  1  0.937700  0.638400  0.976600  1.0
  O  O468  1  0.562300  0.861600  0.476600  1.0
  O  O469  1  0.137000  0.860500  0.714700  1.0
  O  O470  1  0.363000  0.639500  0.214700  1.0
  O  O471  1  0.863000  0.139500  0.285300  1.0
  O  O472  1  0.637000  0.360500  0.785300  1.0
  O  O473  1  0.758300  0.302000  0.014700  1.0
  O  O474  1  0.741700  0.198000  0.514700  1.0
  O  O475  1  0.241700  0.698000  0.985300  1.0
  O  O476  1  0.258300  0.802000  0.485300  1.0
  O  O477  1  0.017800  0.058000  0.727300  1.0
  O  O478  1  0.482200  0.442000  0.227300  1.0
  O  O479  1  0.982200  0.942000  0.272700  1.0
  O  O480  1  0.517800  0.558000  0.772700  1.0
  O  O481  1  0.996100  0.952900  0.681400  1.0
  O  O482  1  0.503900  0.547100  0.181400  1.0
  O  O483  1  0.003900  0.047100  0.318600  1.0
  O  O484  1  0.496100  0.452900  0.818600  1.0
  O  O485  1  0.772300  0.201500  0.992600  1.0
  O  O486  1  0.727700  0.298500  0.492600  1.0
  O  O487  1  0.227700  0.798500  0.007400  1.0
  O  O488  1  0.272300  0.701500  0.507400  1.0
  F  F489  1  0.765200  0.400100  0.084600  1
  F  F490  1  0.734800  0.099900  0.584600  1
  F  F491  1  0.234800  0.599900  0.915400  1
  F  F492  1  0.265200  0.900100  0.415400  1
  F  F493  1  0.831800  0.395900  0.153400  1
  F  F494  1  0.668200  0.104100  0.653400  1
  F  F495  1  0.168200  0.604100  0.846600  1
  F  F496  1  0.331800  0.895900  0.346600  1
  F  F497  1  0.682400  0.458000  0.134200  1
  F  F498  1  0.817600  0.042000  0.634200  1
  F  F499  1  0.317600  0.542000  0.865800  1
  F  F500  1  0.182400  0.958000  0.365800  1
  F  F501  1  0.627400  0.321600  0.927400  1.0
  F  F502  1  0.872600  0.178400  0.427400  1.0
  F  F503  1  0.372600  0.678400  0.072600  1.0
  F  F504  1  0.127400  0.821600  0.572600  1.0
  F  F505  1  0.627100  0.231300  0.905600  1.0
  F  F506  1  0.872900  0.268700  0.405600  1.0
  F  F507  1  0.372900  0.768700  0.094400  1.0
  F  F508  1  0.127100  0.731300  0.594400  1.0
  F  F509  1  0.841600  0.287400  0.919300  1.0
  F  F510  1  0.658400  0.212600  0.419300  1.0
  F  F511  1  0.158400  0.712600  0.080700  1.0
  F  F512  1  0.341600  0.787400  0.580700  1.0
