# generated using pymatgen
data_P4H124Pd2C76N8O21F31
_symmetry_space_group_name_H-M   'P 1'
_cell_length_a   11.74830000
_cell_length_b   18.56090000
_cell_length_c   20.82820000
_cell_angle_alpha   63.75000000
_cell_angle_beta   78.30400000
_cell_angle_gamma   83.86000000
_symmetry_Int_Tables_number   1
_chemical_formula_structural   P4H124Pd2C76N8O21F31
_chemical_formula_sum   'P8 H248 Pd4 C152 N16 O42 F62'
_cell_volume   3988.04608701
_cell_formula_units_Z   2
loop_
 _symmetry_equiv_pos_site_id
 _symmetry_equiv_pos_as_xyz
  1  'x, y, z'
loop_
 _atom_site_type_symbol
 _atom_site_label
 _atom_site_symmetry_multiplicity
 _atom_site_fract_x
 _atom_site_fract_y
 _atom_site_fract_z
 _atom_site_occupancy
  P  P1  1  0.301020  0.679540  0.105120  1
  P  P2  1  0.698980  0.320460  0.894880  1
  P  P3  1  0.741820  0.663660  0.052290  1
  P  P4  1  0.258180  0.336340  0.947710  1
  P  P5  1  0.250540  0.440170  0.453320  1
  P  P6  1  0.749460  0.559830  0.546680  1
  P  P7  1  0.292180  0.793320  0.623050  1
  P  P8  1  0.707820  0.206680  0.376950  1
  H  H9  1  0.525800  0.207900  0.271300  1
  H  H10  1  0.474200  0.792100  0.728700  1
  H  H11  1  0.344200  0.153600  0.320800  1
  H  H12  1  0.655800  0.846400  0.679200  1
  H  H13  1  0.299300  0.195400  0.119700  1
  H  H14  1  0.700700  0.804600  0.880300  1
  H  H15  1  0.482300  0.251400  0.073900  1
  H  H16  1  0.517700  0.748600  0.926100  1
  H  H17  1  0.986900  0.099400  0.324700  1
  H  H18  1  0.013100  0.900600  0.675300  1
  H  H19  1  0.012900  0.082700  0.402800  1
  H  H20  1  0.987100  0.917300  0.597200  1
  H  H21  1  0.101000  0.951200  0.476500  1
  H  H22  1  0.899000  0.048800  0.523500  1
  H  H23  1  0.106600  0.815200  0.511700  1
  H  H24  1  0.893400  0.184800  0.488300  1
  H  H25  1  0.005400  0.851600  0.325600  1
  H  H26  1  0.994600  0.148400  0.674400  1
  H  H27  1  0.994100  0.988400  0.291800  1
  H  H28  1  0.005900  0.011600  0.708200  1
  H  H29  1  0.033400  0.702000  0.499100  1
  H  H30  1  0.966600  0.298000  0.500900  1
  H  H31  1  0.011800  0.716300  0.420800  1
  H  H32  1  0.988200  0.283700  0.579200  1
  H  H33  1  0.387100  0.668900  0.443600  1
  H  H34  1  0.612900  0.331100  0.556400  1
  H  H35  1  0.574900  0.626400  0.419000  1
  H  H36  1  0.425100  0.373600  0.581000  1
  H  H37  1  0.526200  0.651500  0.227400  1
  H  H38  1  0.473800  0.348500  0.772600  1
  H  H39  1  0.335100  0.690600  0.250300  1
  H  H40  1  0.664900  0.309400  0.749700  1
  H  H41  1  0.779100  0.722300  0.359300  1
  H  H42  1  0.220900  0.277700  0.640700  1
  H  H43  1  0.773300  0.858100  0.324700  1
  H  H44  1  0.226700  0.141900  0.675300  1
  H  H45  1  0.748500  0.894300  0.122400  1
  H  H46  1  0.251500  0.105700  0.877600  1
  H  H47  1  0.754500  0.755900  0.162400  1
  H  H48  1  0.245500  0.244100  0.837600  1
  H  H49  1  0.740800  0.016700  0.091000  1
  H  H50  1  0.259200  0.983300  0.909000  1
  H  H51  1  0.716800  0.151400  0.060900  1
  H  H52  1  0.283200  0.848600  0.939100  1
  H  H53  1  0.733400  0.113400  0.260200  1
  H  H54  1  0.266600  0.886600  0.739800  1
  H  H55  1  0.750900  0.976400  0.296200  1
  H  H56  1  0.249100  0.023600  0.703800  1
  H  H57  1  0.929900  0.392800  0.087500  1
  H  H58  1  0.070100  0.607200  0.912500  1
  H  H59  1  0.889300  0.401600  0.016000  1
  H  H60  1  0.110700  0.598400  0.984000  1
  H  H61  1  0.772600  0.468900  0.037900  1
  H  H62  1  0.227400  0.531100  0.962100  1
  H  H63  1  0.789300  0.434400  0.120200  1
  H  H64  1  0.210700  0.565600  0.879800  1
  H  H65  1  0.010800  0.273100  0.139900  1
  H  H66  1  0.989200  0.726900  0.860100  1
  H  H67  1  0.928700  0.196700  0.176300  1
  H  H68  1  0.071300  0.803300  0.823700  1
  H  H69  1  0.895400  0.270800  0.196800  1
  H  H70  1  0.104600  0.729200  0.803200  1
  H  H71  1  0.875900  0.289300  0.000400  1
  H  H72  1  0.124100  0.710700  0.999600  1
  H  H73  1  0.922500  0.208400  0.060600  1
  H  H74  1  0.077500  0.791600  0.939400  1
  H  H75  1  0.000100  0.287200  0.021800  1
  H  H76  1  0.999900  0.712800  0.978200  1
  H  H77  1  0.642900  0.378400  0.207100  1
  H  H78  1  0.357100  0.621600  0.792900  1
  H  H79  1  0.522800  0.368400  0.187200  1
  H  H80  1  0.477200  0.631600  0.812800  1
  H  H81  1  0.579100  0.455200  0.152800  1
  H  H82  1  0.420900  0.544800  0.847200  1
  H  H83  1  0.586600  0.479600  0.034500  1
  H  H84  1  0.413400  0.520400  0.965500  1
  H  H85  1  0.512600  0.399700  0.067500  1
  H  H86  1  0.487400  0.600300  0.932500  1
  H  H87  1  0.627400  0.410700  0.007800  1
  H  H88  1  0.372600  0.589300  0.992200  1
  H  H89  1  0.997100  0.468800  0.309800  1
  H  H90  1  0.002900  0.531200  0.690200  1
  H  H91  1  0.914600  0.473700  0.379300  1
  H  H92  1  0.085400  0.526300  0.620700  1
  H  H93  1  0.827700  0.393600  0.344800  1
  H  H94  1  0.172300  0.606400  0.655200  1
  H  H95  1  0.837400  0.462900  0.263300  1
  H  H96  1  0.162600  0.537100  0.736700  1
  H  H97  1  0.039400  0.582600  0.201400  1
  H  H98  1  0.960600  0.417400  0.798600  1
  H  H99  1  0.961600  0.663200  0.182900  1
  H  H100  1  0.038400  0.336800  0.817100  1
  H  H101  1  0.910200  0.584600  0.186800  1
  H  H102  1  0.089800  0.415400  0.813200  1
  H  H103  1  0.066100  0.593200  0.311500  1
  H  H104  1  0.933900  0.406800  0.688500  1
  H  H105  1  0.953900  0.598600  0.367400  1
  H  H106  1  0.046100  0.401400  0.632600  1
  H  H107  1  0.984600  0.672200  0.288900  1
  H  H108  1  0.015400  0.327800  0.711100  1
  H  H109  1  0.662100  0.389400  0.430500  1
  H  H110  1  0.337900  0.610600  0.569500  1
  H  H111  1  0.596100  0.470600  0.427600  1
  H  H112  1  0.403900  0.529400  0.572400  1
  H  H113  1  0.728000  0.454000  0.440500  1
  H  H114  1  0.272000  0.546000  0.559500  1
  H  H115  1  0.645200  0.500300  0.248100  1
  H  H116  1  0.354800  0.499700  0.751900  1
  H  H117  1  0.547300  0.495200  0.315700  1
  H  H118  1  0.452700  0.504800  0.684300  1
  H  H119  1  0.616300  0.415600  0.316800  1
  H  H120  1  0.383700  0.584400  0.683200  1
  H  H121  1  0.669700  0.116100  0.778100  1
  H  H122  1  0.330300  0.883900  0.221900  1
  H  H123  1  0.540000  0.132600  0.761600  1
  H  H124  1  0.460000  0.867400  0.238400  1
  H  H125  1  0.648900  0.992000  0.814100  1
  H  H126  1  0.351100  0.008000  0.185900  1
  H  H127  1  0.532600  0.988300  0.786600  1
  H  H128  1  0.467400  0.011700  0.213400  1
  H  H129  1  0.508100  0.146700  0.643600  1
  H  H130  1  0.491900  0.853300  0.356400  1
  H  H131  1  0.619200  0.156000  0.581700  1
  H  H132  1  0.380800  0.844000  0.418300  1
  H  H133  1  0.666667  0.027400  0.642400  1
  H  H134  1  0.333333  0.972600  0.357600  1
  H  H135  1  0.538400  0.038200  0.623400  1
  H  H136  1  0.461600  0.961800  0.376600  1
  H  H137  1  0.396500  0.226400  0.439800  1
  H  H138  1  0.603500  0.773600  0.560200  1
  H  H139  1  0.262000  0.244700  0.434300  1
  H  H140  1  0.738000  0.755300  0.565700  1
  H  H141  1  0.437800  0.171200  0.492900  1
  H  H142  1  0.562200  0.828800  0.507100  1
  H  H143  1  0.366200  0.222500  0.535000  1
  H  H144  1  0.633800  0.777500  0.465000  1
  H  H145  1  0.361400  0.990700  0.581100  1
  H  H146  1  0.638600  0.009300  0.418900  1
  H  H147  1  0.439700  0.064300  0.516900  1
  H  H148  1  0.560300  0.935700  0.483100  1
  H  H149  1  0.259600  0.032900  0.471700  1
  H  H150  1  0.740400  0.967100  0.528300  1
  H  H151  1  0.178200  0.069100  0.522800  1
  H  H152  1  0.821800  0.930900  0.477200  1
  H  H153  1  0.149600  0.876800  0.155300  1
  H  H154  1  0.850400  0.123200  0.844700  1
  H  H155  1  0.022900  0.844900  0.165800  1
  H  H156  1  0.977100  0.155100  0.834200  1
  H  H157  1  0.003000  0.059700  0.041200  1
  H  H158  1  0.997000  0.940300  0.958800  1
  H  H159  1  0.122100  0.106100  0.019900  1
  H  H160  1  0.877900  0.893900  0.980100  1
  H  H161  1  0.170000  0.013500  0.140500  1
  H  H162  1  0.830000  0.986500  0.859500  1
  H  H163  1  0.052000  0.063900  0.148800  1
  H  H164  1  0.948000  0.936100  0.851200  1
  H  H165  1  0.100800  0.906400  0.055700  1
  H  H166  1  0.899200  0.093600  0.944300  1
  H  H167  1  0.227400  0.891000  0.075900  1
  H  H168  1  0.772600  0.109000  0.924100  1
  H  H169  1  0.018100  0.297900  0.310000  1
  H  H170  1  0.981900  0.702100  0.690000  1
  H  H171  1  0.089900  0.280200  0.244400  1
  H  H172  1  0.910100  0.719800  0.755600  1
  H  H173  1  0.173500  0.354800  0.316100  1
  H  H174  1  0.826500  0.645200  0.683900  1
  H  H175  1  0.210100  0.267300  0.320600  1
  H  H176  1  0.789900  0.732700  0.679400  1
  H  H177  1  0.110700  0.484900  0.121900  1
  H  H178  1  0.889300  0.515100  0.878100  1
  H  H179  1  0.152000  0.397500  0.127400  1
  H  H180  1  0.848000  0.602500  0.872600  1
  H  H181  1  0.304700  0.459900  0.139700  1
  H  H182  1  0.695300  0.540100  0.860300  1
  H  H183  1  0.225000  0.469200  0.208100  1
  H  H184  1  0.775000  0.530800  0.791900  1
  H  H185  1  0.553400  0.006200  0.830200  1
  H  H186  1  0.446600  0.993800  0.169800  1
  H  H187  1  0.676000  0.996900  0.784000  1
  H  H188  1  0.324000  0.003100  0.216000  1
  H  H189  1  0.209100  0.180100  0.539700  1
  H  H190  1  0.790900  0.819900  0.460300  1
  H  H191  1  0.319500  0.227500  0.533400  1
  H  H192  1  0.680500  0.772500  0.466600  1
  H  H193  1  0.317500  0.989400  0.585400  1
  H  H194  1  0.682500  0.010600  0.414600  1
  H  H195  1  0.207400  0.048400  0.567700  1
  H  H196  1  0.792600  0.951600  0.432300  1
  H  H197  1  0.259400  0.023200  0.488500  1
  H  H198  1  0.740600  0.976800  0.511500  1
  H  H199  1  0.393000  0.029800  0.488700  1
  H  H200  1  0.607000  0.970200  0.511300  1
  H  H201  1  0.002600  0.926700  0.058400  1
  H  H202  1  0.997400  0.073300  0.941600  1
  H  H203  1  0.123800  0.879600  0.055900  1
  H  H204  1  0.876200  0.120400  0.944100  1
  H  H205  1  0.154800  0.110200  0.029200  1
  H  H206  1  0.845200  0.889800  0.970800  1
  H  H207  1  0.218500  0.048300  0.094300  1
  H  H208  1  0.781500  0.951700  0.905700  1
  H  H209  1  0.164400  0.360400  0.339500  1
  H  H210  1  0.835600  0.639600  0.660500  1
  H  H211  1  0.180800  0.295200  0.306900  1
  H  H212  1  0.819200  0.704800  0.693100  1
  H  H213  1  0.297000  0.443600  0.240200  1
  H  H214  1  0.703000  0.556400  0.759800  1
  H  H215  1  0.356200  0.358500  0.284900  1
  H  H216  1  0.643800  0.641500  0.715100  1
  H  H217  1  0.069800  0.422200  0.148800  1
  H  H218  1  0.930200  0.577800  0.851200  1
  H  H219  1  0.117400  0.333400  0.193700  1
  H  H220  1  0.882600  0.666600  0.806300  1
  H  H221  1  0.264000  0.407700  0.100800  1
  H  H222  1  0.736000  0.592300  0.899200  1
  H  H223  1  0.251500  0.474700  0.130800  1
  H  H224  1  0.748500  0.525300  0.869200  1
  H  H225  1  0.533700  0.112400  0.798200  1
  H  H226  1  0.466300  0.887600  0.201800  1
  H  H227  1  0.654100  0.136100  0.742200  1
  H  H228  1  0.345900  0.863900  0.257800  1
  H  H229  1  0.664400  0.159800  0.623400  1
  H  H230  1  0.335600  0.840200  0.376600  1
  H  H231  1  0.546900  0.158200  0.595600  1
  H  H232  1  0.453100  0.841800  0.404400  1
  H  H233  1  0.527700  0.013800  0.682400  1
  H  H234  1  0.472300  0.986200  0.317600  1
  H  H235  1  0.642900  0.028300  0.622100  1
  H  H236  1  0.357100  0.971700  0.377900  1
  H  H237  1  0.180000  0.186300  0.504500  1
  H  H238  1  0.820000  0.813700  0.495500  1
  H  H239  1  0.256000  0.255000  0.435700  1
  H  H240  1  0.744000  0.745000  0.564300  1
  H  H241  1  0.025600  0.076400  0.133900  1
  H  H242  1  0.974400  0.923600  0.866100  1
  H  H243  1  0.985400  0.034400  0.089200  1
  H  H244  1  0.014600  0.965600  0.910800  1
  H  H245  1  0.167700  0.870200  0.177300  1
  H  H246  1  0.832300  0.129800  0.822700  1
  H  H247  1  0.043500  0.864100  0.160400  1
  H  H248  1  0.956500  0.135900  0.839600  1
  H  H249  1  0.392900  0.919500  0.013000  1.0
  H  H250  1  0.607100  0.080500  0.987000  1.0
  H  H251  1  0.503400  0.909000  0.959100  1.0
  H  H252  1  0.496600  0.091000  0.040900  1.0
  H  H253  1  0.487700  0.126300  0.920400  1.0
  H  H254  1  0.512300  0.873700  0.079600  1.0
  H  H255  1  0.380800  0.085000  0.983400  1.0
  H  H256  1  0.619200  0.915000  0.016600  1.0
  Pd  Pd257  1  0.691100  0.263660  0.132400  1
  Pd  Pd258  1  0.308900  0.736340  0.867600  1
  Pd  Pd259  1  0.739890  0.607370  0.301150  1
  Pd  Pd260  1  0.260110  0.392630  0.698850  1
  C  C261  1  0.478900  0.205000  0.240300  1
  C  C262  1  0.521100  0.795000  0.759700  1
  C  C263  1  0.371700  0.172700  0.270000  1
  C  C264  1  0.628300  0.827300  0.730000  1
  C  C265  1  0.345200  0.197600  0.151500  1
  C  C266  1  0.654800  0.802400  0.848500  1
  C  C267  1  0.453900  0.230200  0.124700  1
  C  C268  1  0.546100  0.769800  0.875300  1
  C  C269  1  0.303300  0.168000  0.225300  1
  C  C270  1  0.696700  0.832000  0.774700  1
  C  C271  1  0.185600  0.131900  0.253700  1
  C  C272  1  0.814400  0.868100  0.746300  1
  C  C273  1  0.041900  0.073000  0.359100  1
  C  C274  1  0.958100  0.927000  0.640900  1
  C  C275  1  0.046400  0.985300  0.380400  1
  C  C276  1  0.953600  0.014700  0.619600  1
  C  C277  1  0.080200  0.931200  0.445600  1
  C  C278  1  0.919800  0.068800  0.554400  1
  C  C279  1  0.084100  0.850200  0.466500  1
  C  C280  1  0.915900  0.149800  0.533500  1
  C  C281  1  0.056300  0.818000  0.423300  1
  C  C282  1  0.943700  0.182000  0.576700  1
  C  C283  1  0.023800  0.871700  0.357000  1
  C  C284  1  0.976200  0.128300  0.643000  1
  C  C285  1  0.018000  0.953300  0.336600  1
  C  C286  1  0.982000  0.046700  0.663400  1
  C  C287  1  0.062400  0.730100  0.446200  1
  C  C288  1  0.937600  0.269900  0.553800  1
  C  C289  1  0.215500  0.710500  0.362000  1
  C  C290  1  0.784500  0.289500  0.638000  1
  C  C291  1  0.340100  0.683800  0.349500  1
  C  C292  1  0.659900  0.316200  0.650500  1
  C  C293  1  0.414200  0.664800  0.399100  1
  C  C294  1  0.585800  0.335200  0.600900  1
  C  C295  1  0.525600  0.640400  0.384200  1
  C  C296  1  0.474400  0.359600  0.615800  1
  C  C297  1  0.496700  0.654500  0.272200  1
  C  C298  1  0.503300  0.345500  0.727800  1
  C  C299  1  0.383600  0.678200  0.285300  1
  C  C300  1  0.616400  0.321800  0.714700  1
  C  C301  1  0.771700  0.757700  0.310600  1
  C  C302  1  0.228300  0.242300  0.689400  1
  C  C303  1  0.768300  0.838500  0.290200  1
  C  C304  1  0.231700  0.161500  0.709800  1
  C  C305  1  0.757600  0.892400  0.219800  1
  C  C306  1  0.242400  0.107600  0.780200  1
  C  C307  1  0.753700  0.860000  0.171700  1
  C  C308  1  0.246300  0.140000  0.828300  1
  C  C309  1  0.757400  0.777300  0.195900  1
  C  C310  1  0.242600  0.222700  0.804100  1
  C  C311  1  0.748300  0.980400  0.197700  1
  C  C312  1  0.251700  0.019600  0.802300  1
  C  C313  1  0.738400  0.035200  0.127100  1
  C  C314  1  0.261600  0.964800  0.872900  1
  C  C315  1  0.725100  0.115400  0.109300  1
  C  C316  1  0.274900  0.884600  0.890700  1
  C  C317  1  0.733800  0.093200  0.225500  1
  C  C318  1  0.266200  0.906800  0.774500  1
  C  C319  1  0.745200  0.011400  0.247100  1
  C  C320  1  0.254800  0.988600  0.752900  1
  C  C321  1  0.866700  0.379900  0.069500  1
  C  C322  1  0.133300  0.620100  0.930500  1
  C  C323  1  0.776200  0.418600  0.082700  1
  C  C324  1  0.223800  0.581400  0.917300  1
  C  C325  1  0.930200  0.255300  0.157700  1
  C  C326  1  0.069800  0.744700  0.842300  1
  C  C327  1  0.920500  0.267200  0.040200  1
  C  C328  1  0.079500  0.732800  0.959800  1
  C  C329  1  0.595900  0.397600  0.168600  1
  C  C330  1  0.404100  0.602400  0.831400  1
  C  C331  1  0.591100  0.421500  0.049500  1
  C  C332  1  0.408900  0.578500  0.950500  1
  C  C333  1  0.921100  0.489000  0.326800  1
  C  C334  1  0.078900  0.511000  0.673200  1
  C  C335  1  0.826400  0.452500  0.315100  1
  C  C336  1  0.173600  0.547500  0.684900  1
  C  C337  1  0.960300  0.604400  0.207700  1
  C  C338  1  0.039700  0.395600  0.792300  1
  C  C339  1  0.985900  0.613500  0.316000  1
  C  C340  1  0.014100  0.386500  0.684000  1
  C  C341  1  0.671100  0.446900  0.415300  1
  C  C342  1  0.328900  0.553100  0.584700  1
  C  C343  1  0.622500  0.473400  0.301100  1
  C  C344  1  0.377500  0.526600  0.698900  1
  C  C345  1  0.615000  0.106600  0.752000  1
  C  C346  1  0.385000  0.893400  0.248000  1
  C  C347  1  0.607000  0.016900  0.772600  1
  C  C348  1  0.393000  0.983100  0.227400  1
  C  C349  1  0.589000  0.127000  0.634000  1
  C  C350  1  0.411000  0.873000  0.366000  1
  C  C351  1  0.587000  0.048000  0.652600  1
  C  C352  1  0.413000  0.952000  0.347400  1
  C  C353  1  0.318300  0.202600  0.458600  1
  C  C354  1  0.681700  0.797400  0.541400  1
  C  C355  1  0.361100  0.180700  0.518400  1
  C  C356  1  0.638900  0.819300  0.481600  1
  C  C357  1  0.360900  0.047900  0.545500  1
  C  C358  1  0.639100  0.952100  0.454500  1
  C  C359  1  0.256300  0.071400  0.493100  1
  C  C360  1  0.743700  0.928600  0.506900  1
  C  C361  1  0.071600  0.893300  0.141900  1
  C  C362  1  0.928400  0.106700  0.858100  1
  C  C363  1  0.084900  0.053100  0.048300  1
  C  C364  1  0.915100  0.946900  0.951700  1
  C  C365  1  0.089000  0.023600  0.131700  1
  C  C366  1  0.911000  0.976400  0.868300  1
  C  C367  1  0.155000  0.923100  0.077300  1
  C  C368  1  0.845000  0.076900  0.922700  1
  C  C369  1  0.079500  0.318700  0.266300  1
  C  C370  1  0.920500  0.681300  0.733700  1
  C  C371  1  0.186200  0.322200  0.288200  1
  C  C372  1  0.813800  0.677800  0.711800  1
  C  C373  1  0.134600  0.430300  0.155000  1
  C  C374  1  0.865400  0.569700  0.845000  1
  C  C375  1  0.241100  0.435300  0.181500  1
  C  C376  1  0.758900  0.564700  0.818500  1
  C  C377  1  0.599000  0.025000  0.780000  1
  C  C378  1  0.401000  0.975000  0.220000  1
  C  C379  1  0.295000  0.183600  0.524900  1
  C  C380  1  0.705000  0.816400  0.475100  1
  C  C381  1  0.293000  0.044800  0.554600  1
  C  C382  1  0.707000  0.955200  0.445400  1
  C  C383  1  0.315000  0.054600  0.495200  1
  C  C384  1  0.685000  0.945400  0.504800  1
  C  C385  1  0.081800  0.921000  0.069900  1
  C  C386  1  0.918200  0.079000  0.930100  1
  C  C387  1  0.156000  0.053900  0.066500  1
  C  C388  1  0.844000  0.946100  0.933500  1
  C  C389  1  0.182000  0.353300  0.294000  1
  C  C390  1  0.818000  0.646700  0.706000  1
  C  C391  1  0.296800  0.385300  0.253800  1
  C  C392  1  0.703200  0.614700  0.746200  1
  C  C393  1  0.124000  0.390600  0.182400  1
  C  C394  1  0.876000  0.609400  0.817600  1
  C  C395  1  0.245000  0.416600  0.145300  1
  C  C396  1  0.755000  0.583400  0.854700  1
  C  C397  1  0.580000  0.108000  0.754700  1
  C  C398  1  0.420000  0.892000  0.245300  1
  C  C399  1  0.588000  0.134000  0.638000  1
  C  C400  1  0.412000  0.866000  0.362000  1
  C  C401  1  0.604000  0.040000  0.663600  1
  C  C402  1  0.396000  0.960000  0.336400  1
  C  C403  1  0.256400  0.198100  0.471800  1
  C  C404  1  0.743600  0.801900  0.528200  1
  C  C405  1  0.047000  0.036000  0.114400  1
  C  C406  1  0.953000  0.964000  0.885600  1
  C  C407  1  0.108000  0.901000  0.147000  1
  C  C408  1  0.892000  0.099000  0.853000  1
  C  C409  1  0.471200  0.940300  0.986900  1.0
  C  C410  1  0.528800  0.059700  0.013100  1.0
  C  C411  1  0.461300  0.075400  0.962600  1.0
  C  C412  1  0.538700  0.924600  0.037400  1.0
  N  N413  1  0.723200  0.145200  0.157600  1
  N  N414  1  0.276800  0.854800  0.842400  1
  N  N415  1  0.521100  0.233000  0.168600  1
  N  N416  1  0.478900  0.767000  0.831400  1
  N  N417  1  0.864300  0.292800  0.098200  1
  N  N418  1  0.135700  0.707200  0.901800  1
  N  N419  1  0.660200  0.383700  0.106800  1
  N  N420  1  0.339800  0.616300  0.893200  1
  N  N421  1  0.764900  0.726700  0.264700  1
  N  N422  1  0.235100  0.273300  0.735300  1
  N  N423  1  0.567400  0.635500  0.321100  1
  N  N424  1  0.432600  0.364500  0.678900  1
  N  N425  1  0.712200  0.487200  0.335800  1
  N  N426  1  0.287800  0.512800  0.664200  1
  N  N427  1  0.914500  0.578100  0.286200  1
  N  N428  1  0.085500  0.421900  0.713800  1
  O  O429  1  0.155900  0.108200  0.325200  1
  O  O430  1  0.844100  0.891800  0.674800  1
  O  O431  1  0.125100  0.126800  0.216000  1
  O  O432  1  0.874900  0.873200  0.784000  1
  O  O433  1  0.181700  0.702800  0.429900  1
  O  O434  1  0.818300  0.297200  0.570100  1
  O  O435  1  0.155500  0.733800  0.317100  1
  O  O436  1  0.844500  0.266200  0.682900  1
  O  O437  1  0.660100  0.144800  0.675200  1
  O  O438  1  0.339900  0.855200  0.324800  1
  O  O439  1  0.669400  0.010100  0.715700  1
  O  O440  1  0.330600  0.989900  0.284300  1
  O  O441  1  0.316900  0.133400  0.436900  1
  O  O442  1  0.683100  0.866600  0.563100  1
  O  O443  1  0.348800  0.104600  0.574600  1
  O  O444  1  0.651200  0.895400  0.425400  1
  O  O445  1  0.022900  0.948500  0.168600  1
  O  O446  1  0.977100  0.051500  0.831400  1
  O  O447  1  0.141800  0.998900  0.023000  1
  O  O448  1  0.858200  0.001100  0.977000  1
  O  O449  1  0.041000  0.394900  0.215000  1
  O  O450  1  0.959000  0.605100  0.785000  1
  O  O451  1  0.275000  0.355700  0.228600  1
  O  O452  1  0.725000  0.644300  0.771400  1
  O  O453  1  0.536600  0.002900  0.734100  1
  O  O454  1  0.463400  0.997100  0.265900  1
  O  O455  1  0.065000  0.965000  0.166600  1
  O  O456  1  0.935000  0.035000  0.833400  1
  O  O457  1  0.180900  0.001600  0.032200  1
  O  O458  1  0.819100  0.998400  0.967800  1
  O  O459  1  0.091800  0.399600  0.244900  1
  O  O460  1  0.908200  0.600400  0.755100  1
  O  O461  1  0.323400  0.372700  0.192200  1
  O  O462  1  0.676600  0.627300  0.807800  1
  O  O463  1  0.521000  0.143900  0.698500  1
  O  O464  1  0.479000  0.856100  0.301500  1
  O  O465  1  0.277800  0.149200  0.438200  1
  O  O466  1  0.722200  0.850800  0.561800  1
  O  O467  1  0.304700  0.103600  0.578800  1
  O  O468  1  0.695300  0.896400  0.421200  1
  O  O469  1  0.457600  0.019200  0.937300  1.0
  O  O470  1  0.542400  0.980800  0.062700  1.0
  F  F471  1  0.196600  0.743000  0.086300  1
  F  F472  1  0.803400  0.257000  0.913700  1
  F  F473  1  0.352300  0.717000  0.020820  1
  F  F474  1  0.647700  0.283000  0.979180  1
  F  F475  1  0.224600  0.620200  0.094000  1
  F  F476  1  0.775400  0.379800  0.906000  1
  F  F477  1  0.225900  0.663200  0.183000  1
  F  F478  1  0.774100  0.336800  0.817000  1
  F  F479  1  0.349500  0.753000  0.113300  1
  F  F480  1  0.650500  0.247000  0.886700  1
  F  F481  1  0.401700  0.627200  0.133900  1
  F  F482  1  0.598300  0.372800  0.866100  1
  F  F483  1  0.653300  0.735700  0.024800  1
  F  F484  1  0.346700  0.264300  0.975200  1
  F  F485  1  0.806100  0.689000  0.970300  1
  F  F486  1  0.193900  0.311000  0.029700  1
  F  F487  1  0.658200  0.609100  0.043600  1
  F  F488  1  0.341800  0.390900  0.956400  1
  F  F489  1  0.834900  0.592700  0.076400  1
  F  F490  1  0.165100  0.407300  0.923600  1
  F  F491  1  0.681700  0.639800  0.133400  1
  F  F492  1  0.318300  0.360200  0.866600  1
  F  F493  1  0.827900  0.717800  0.061300  1
  F  F494  1  0.172100  0.282200  0.938700  1
  F  F495  1  0.184100  0.516700  0.444500  1
  F  F496  1  0.815900  0.483300  0.555500  1
  F  F497  1  0.279900  0.482200  0.371000  1
  F  F498  1  0.720100  0.517800  0.629000  1
  F  F499  1  0.143300  0.404700  0.448500  1
  F  F500  1  0.856700  0.595300  0.551500  1
  F  F501  1  0.331800  0.373600  0.450800  1
  F  F502  1  0.668200  0.626400  0.549200  1
  F  F503  1  0.226500  0.406900  0.535100  1
  F  F504  1  0.773500  0.593100  0.464900  1
  F  F505  1  0.364000  0.479600  0.454000  1
  F  F506  1  0.636000  0.520400  0.546000  1
  F  F507  1  0.316700  0.849900  0.542200  1
  F  F508  1  0.683300  0.150100  0.457800  1
  F  F509  1  0.394200  0.845000  0.622100  1
  F  F510  1  0.605800  0.155000  0.377900  1
  F  F511  1  0.404300  0.736900  0.636800  1
  F  F512  1  0.595700  0.263100  0.363200  1
  F  F513  1  0.272000  0.768400  0.706700  1
  F  F514  1  0.728000  0.231600  0.293300  1
  F  F515  1  0.197000  0.857200  0.609000  1
  F  F516  1  0.803000  0.142800  0.391000  1
  F  F517  1  0.178000  0.755300  0.627100  1
  F  F518  1  0.822000  0.244700  0.372900  1
  F  F519  1  0.260600  0.623400  0.190600  1
  F  F520  1  0.739400  0.376600  0.809400  1
  F  F521  1  0.395700  0.724200  0.117100  1
  F  F522  1  0.604300  0.275800  0.882900  1
  F  F523  1  0.400700  0.607300  0.108500  1
  F  F524  1  0.599300  0.392700  0.891500  1
  F  F525  1  0.271900  0.736900  0.586700  1
  F  F526  1  0.728100  0.263100  0.413300  1
  F  F527  1  0.361700  0.735800  0.594700  1
  F  F528  1  0.638300  0.264200  0.405300  1
  F  F529  1  0.225700  0.846400  0.662500  1
  F  F530  1  0.774300  0.153600  0.337500  1
  F  F531  1  0.264000  0.717100  0.699500  1
  F  F532  1  0.736000  0.282900  0.300500  1
