# generated using pymatgen
data_CuH32C38S2(N2O3)2
_symmetry_space_group_name_H-M   'P 1'
_cell_length_a   19.74038460
_cell_length_b   19.74038460
_cell_length_c   19.74038460
_cell_angle_alpha   61.96580548
_cell_angle_beta   61.96580548
_cell_angle_gamma   61.96580548
_symmetry_Int_Tables_number   1
_chemical_formula_structural   CuH32C38S2(N2O3)2
_chemical_formula_sum   'Cu6 H192 C228 S12 N24 O36'
_cell_volume   5678.64212357
_cell_formula_units_Z   6
loop_
 _symmetry_equiv_pos_site_id
 _symmetry_equiv_pos_as_xyz
  1  'x, y, z'
loop_
 _atom_site_type_symbol
 _atom_site_label
 _atom_site_symmetry_multiplicity
 _atom_site_fract_x
 _atom_site_fract_y
 _atom_site_fract_z
 _atom_site_occupancy
  C  C1  1  0.250000  0.318000  0.182000  1.0
  C  C2  1  0.182000  0.250000  0.318000  1.0
  C  C3  1  0.318000  0.182000  0.250000  1.0
  C  C4  1  0.818000  0.750000  0.682000  1.0
  C  C5  1  0.750000  0.682000  0.818000  1.0
  C  C6  1  0.682000  0.818000  0.750000  1.0
  C  C7  1  0.183000  0.317000  0.250000  1.0
  C  C8  1  0.250000  0.183000  0.317000  1.0
  C  C9  1  0.317000  0.250000  0.183000  1.0
  C  C10  1  0.817000  0.683000  0.750000  1.0
  C  C11  1  0.683000  0.750000  0.817000  1.0
  C  C12  1  0.750000  0.817000  0.683000  1.0
  C  C13  1  0.886230  0.448030  0.159630  1.0
  C  C14  1  0.159630  0.886230  0.448030  1.0
  C  C15  1  0.448030  0.159630  0.886230  1.0
  C  C16  1  0.340370  0.051970  0.613770  1.0
  C  C17  1  0.948030  0.386230  0.659630  1.0
  C  C18  1  0.386230  0.659630  0.948030  1.0
  C  C19  1  0.840370  0.113770  0.551970  1.0
  C  C20  1  0.551970  0.840370  0.113770  1.0
  C  C21  1  0.113770  0.551970  0.840370  1.0
  C  C22  1  0.659630  0.948030  0.386230  1.0
  C  C23  1  0.051970  0.613770  0.340370  1.0
  C  C24  1  0.613770  0.340370  0.051970  1.0
  C  C25  1  0.946900  0.437400  0.088200  1.0
  C  C26  1  0.088200  0.946900  0.437400  1.0
  C  C27  1  0.437400  0.088200  0.946900  1.0
  C  C28  1  0.411800  0.062600  0.553100  1.0
  C  C29  1  0.937400  0.446900  0.588200  1.0
  C  C30  1  0.446900  0.588200  0.937400  1.0
  C  C31  1  0.911800  0.053100  0.562600  1.0
  C  C32  1  0.562600  0.911800  0.053100  1.0
  C  C33  1  0.053100  0.562600  0.911800  1.0
  C  C34  1  0.588200  0.937400  0.446900  1.0
  C  C35  1  0.062600  0.553100  0.411800  1.0
  C  C36  1  0.553100  0.411800  0.062600  1.0
  C  C37  1  0.014700  0.367600  0.089300  1.0
  C  C38  1  0.089300  0.014700  0.367600  1.0
  C  C39  1  0.367600  0.089300  0.014700  1.0
  C  C40  1  0.410700  0.132400  0.485300  1.0
  C  C41  1  0.867600  0.514700  0.589300  1.0
  C  C42  1  0.514700  0.589300  0.867600  1.0
  C  C43  1  0.910700  0.985300  0.632400  1.0
  C  C44  1  0.632400  0.910700  0.985300  1.0
  C  C45  1  0.985300  0.632400  0.910700  1.0
  C  C46  1  0.589300  0.867600  0.514700  1.0
  C  C47  1  0.132400  0.485300  0.410700  1.0
  C  C48  1  0.485300  0.410700  0.132400  1.0
  C  C49  1  0.023050  0.308450  0.161250  1.0
  C  C50  1  0.161250  0.023050  0.308450  1.0
  C  C51  1  0.308450  0.161250  0.023050  1.0
  C  C52  1  0.338750  0.191550  0.476950  1.0
  C  C53  1  0.808450  0.523050  0.661250  1.0
  C  C54  1  0.523050  0.661250  0.808450  1.0
  C  C55  1  0.838750  0.976950  0.691550  1.0
  C  C56  1  0.691550  0.838750  0.976950  1.0
  C  C57  1  0.976950  0.691550  0.838750  1.0
  C  C58  1  0.661250  0.808450  0.523050  1.0
  C  C59  1  0.191550  0.476950  0.338750  1.0
  C  C60  1  0.476950  0.338750  0.191550  1.0
  C  C61  1  0.959070  0.318570  0.232570  1.0
  C  C62  1  0.232570  0.959070  0.318570  1.0
  C  C63  1  0.318570  0.232570  0.959070  1.0
  C  C64  1  0.267430  0.181430  0.540930  1.0
  C  C65  1  0.818570  0.459070  0.732570  1.0
  C  C66  1  0.459070  0.732570  0.818570  1.0
  C  C67  1  0.767430  0.040930  0.681430  1.0
  C  C68  1  0.681430  0.767430  0.040930  1.0
  C  C69  1  0.040930  0.681430  0.767430  1.0
  C  C70  1  0.732570  0.818570  0.459070  1.0
  C  C71  1  0.181430  0.540930  0.267430  1.0
  C  C72  1  0.540930  0.267430  0.181430  1.0
  C  C73  1  0.890740  0.387440  0.231040  1.0
  C  C74  1  0.231040  0.890740  0.387440  1.0
  C  C75  1  0.387440  0.231040  0.890740  1.0
  C  C76  1  0.268960  0.112560  0.609260  1.0
  C  C77  1  0.887440  0.390740  0.731040  1.0
  C  C78  1  0.390740  0.731040  0.887440  1.0
  C  C79  1  0.768960  0.109260  0.612560  1.0
  C  C80  1  0.612560  0.768960  0.109260  1.0
  C  C81  1  0.109260  0.612560  0.768960  1.0
  C  C82  1  0.731040  0.887440  0.390740  1.0
  C  C83  1  0.112560  0.609260  0.268960  1.0
  C  C84  1  0.609260  0.268960  0.112560  1.0
  C  C85  1  0.096240  0.234440  0.163540  1.0
  C  C86  1  0.163540  0.096240  0.234440  1.0
  C  C87  1  0.234440  0.163540  0.096240  1.0
  C  C88  1  0.336460  0.265560  0.403760  1.0
  C  C89  1  0.734440  0.596240  0.663540  1.0
  C  C90  1  0.596240  0.663540  0.734440  1.0
  C  C91  1  0.836460  0.903760  0.765560  1.0
  C  C92  1  0.765560  0.836460  0.903760  1.0
  C  C93  1  0.903760  0.765560  0.836460  1.0
  C  C94  1  0.663540  0.734440  0.596240  1.0
  C  C95  1  0.265560  0.403760  0.336460  1.0
  C  C96  1  0.403760  0.336460  0.265560  1.0
  C  C97  1  0.095090  0.166890  0.232690  1.0
  C  C98  1  0.232690  0.095090  0.166890  1.0
  C  C99  1  0.166890  0.232690  0.095090  1.0
  C  C100  1  0.267310  0.333110  0.404910  1.0
  C  C101  1  0.666890  0.595090  0.732690  1.0
  C  C102  1  0.595090  0.732690  0.666890  1.0
  C  C103  1  0.767310  0.904910  0.833110  1.0
  C  C104  1  0.833110  0.767310  0.904910  1.0
  C  C105  1  0.904910  0.833110  0.767310  1.0
  C  C106  1  0.732690  0.666890  0.595090  1.0
  C  C107  1  0.333110  0.404910  0.267310  1.0
  C  C108  1  0.404910  0.267310  0.333110  1.0
  C  C109  1  0.019900  0.531100  0.152200  1.0
  C  C110  1  0.152200  0.019900  0.531100  1.0
  C  C111  1  0.531100  0.152200  0.019900  1.0
  C  C112  1  0.347800  0.968900  0.480100  1.0
  C  C113  1  0.031100  0.519900  0.652200  1.0
  C  C114  1  0.519900  0.652200  0.031100  1.0
  C  C115  1  0.847800  0.980100  0.468900  1.0
  C  C116  1  0.468900  0.847800  0.980100  1.0
  C  C117  1  0.980100  0.468900  0.847800  1.0
  C  C118  1  0.652200  0.031100  0.519900  1.0
  C  C119  1  0.968900  0.480100  0.347800  1.0
  C  C120  1  0.480100  0.347800  0.968900  1.0
  C  C121  1  0.097200  0.514400  0.095800  1.0
  C  C122  1  0.095800  0.097200  0.514400  1.0
  C  C123  1  0.514400  0.095800  0.097200  1.0
  C  C124  1  0.404200  0.985600  0.402800  1.0
  C  C125  1  0.014400  0.597200  0.595800  1.0
  C  C126  1  0.597200  0.595800  0.014400  1.0
  C  C127  1  0.904200  0.902800  0.485600  1.0
  C  C128  1  0.485600  0.904200  0.902800  1.0
  C  C129  1  0.902800  0.485600  0.904200  1.0
  C  C130  1  0.595800  0.014400  0.597200  1.0
  C  C131  1  0.985600  0.402800  0.404200  1.0
  C  C132  1  0.402800  0.404200  0.985600  1.0
  C  C133  1  0.139100  0.567000  0.063700  1.0
  C  C134  1  0.063700  0.139100  0.567000  1.0
  C  C135  1  0.567000  0.063700  0.139100  1.0
  C  C136  1  0.436300  0.933000  0.360900  1.0
  C  C137  1  0.067000  0.639100  0.563700  1.0
  C  C138  1  0.639100  0.563700  0.067000  1.0
  C  C139  1  0.936300  0.860900  0.433000  1.0
  C  C140  1  0.433000  0.936300  0.860900  1.0
  C  C141  1  0.860900  0.433000  0.936300  1.0
  C  C142  1  0.563700  0.067000  0.639100  1.0
  C  C143  1  0.933000  0.360900  0.436300  1.0
  C  C144  1  0.360900  0.436300  0.933000  1.0
  C  C145  1  0.105000  0.636100  0.083600  1.0
  C  C146  1  0.083600  0.105000  0.636100  1.0
  C  C147  1  0.636100  0.083600  0.105000  1.0
  C  C148  1  0.416400  0.863900  0.395000  1.0
  C  C149  1  0.136100  0.605000  0.583600  1.0
  C  C150  1  0.605000  0.583600  0.136100  1.0
  C  C151  1  0.916400  0.895000  0.363900  1.0
  C  C152  1  0.363900  0.916400  0.895000  1.0
  C  C153  1  0.895000  0.363900  0.916400  1.0
  C  C154  1  0.583600  0.136100  0.605000  1.0
  C  C155  1  0.863900  0.395000  0.416400  1.0
  C  C156  1  0.395000  0.416400  0.863900  1.0
  C  C157  1  0.029800  0.650300  0.135600  1.0
  C  C158  1  0.135600  0.029800  0.650300  1.0
  C  C159  1  0.650300  0.135600  0.029800  1.0
  C  C160  1  0.364400  0.849700  0.470200  1.0
  C  C161  1  0.150300  0.529800  0.635600  1.0
  C  C162  1  0.529800  0.635600  0.150300  1.0
  C  C163  1  0.864400  0.970200  0.349700  1.0
  C  C164  1  0.349700  0.864400  0.970200  1.0
  C  C165  1  0.970200  0.349700  0.864400  1.0
  C  C166  1  0.635600  0.150300  0.529800  1.0
  C  C167  1  0.849700  0.470200  0.364400  1.0
  C  C168  1  0.470200  0.364400  0.849700  1.0
  C  C169  1  0.696430  0.682530  0.297630  1.0
  C  C170  1  0.297630  0.696430  0.682530  1.0
  C  C171  1  0.682530  0.297630  0.696430  1.0
  C  C172  1  0.202370  0.817470  0.803570  1.0
  C  C173  1  0.182530  0.196430  0.797630  1.0
  C  C174  1  0.196430  0.797630  0.182530  1.0
  C  C175  1  0.702370  0.303570  0.317470  1.0
  C  C176  1  0.317470  0.702370  0.303570  1.0
  C  C177  1  0.303570  0.317470  0.702370  1.0
  C  C178  1  0.797630  0.182530  0.196430  1.0
  C  C179  1  0.817470  0.803570  0.202370  1.0
  C  C180  1  0.803570  0.202370  0.817470  1.0
  C  C181  1  0.617800  0.700600  0.345800  1.0
  C  C182  1  0.345800  0.617800  0.700600  1.0
  C  C183  1  0.700600  0.345800  0.617800  1.0
  C  C184  1  0.154200  0.799400  0.882200  1.0
  C  C185  1  0.200600  0.117800  0.845800  1.0
  C  C186  1  0.117800  0.845800  0.200600  1.0
  C  C187  1  0.654200  0.382200  0.299400  1.0
  C  C188  1  0.299400  0.654200  0.382200  1.0
  C  C189  1  0.382200  0.299400  0.654200  1.0
  C  C190  1  0.845800  0.200600  0.117800  1.0
  C  C191  1  0.799400  0.882200  0.154200  1.0
  C  C192  1  0.882200  0.154200  0.799400  1.0
  C  C193  1  0.599600  0.690900  0.427700  1.0
  C  C194  1  0.427700  0.599600  0.690900  1.0
  C  C195  1  0.690900  0.427700  0.599600  1.0
  C  C196  1  0.072300  0.809100  0.900400  1.0
  C  C197  1  0.190900  0.099600  0.927700  1.0
  C  C198  1  0.099600  0.927700  0.190900  1.0
  C  C199  1  0.572300  0.400400  0.309100  1.0
  C  C200  1  0.309100  0.572300  0.400400  1.0
  C  C201  1  0.400400  0.309100  0.572300  1.0
  C  C202  1  0.927700  0.190900  0.099600  1.0
  C  C203  1  0.809100  0.900400  0.072300  1.0
  C  C204  1  0.900400  0.072300  0.809100  1.0
  C  C205  1  0.662800  0.665000  0.454000  1.0
  C  C206  1  0.454000  0.662800  0.665000  1.0
  C  C207  1  0.665000  0.454000  0.662800  1.0
  C  C208  1  0.046000  0.835000  0.837200  1.0
  C  C209  1  0.165000  0.162800  0.954000  1.0
  C  C210  1  0.162800  0.954000  0.165000  1.0
  C  C211  1  0.546000  0.337200  0.335000  1.0
  C  C212  1  0.335000  0.546000  0.337200  1.0
  C  C213  1  0.337200  0.335000  0.546000  1.0
  C  C214  1  0.954000  0.165000  0.162800  1.0
  C  C215  1  0.835000  0.837200  0.046000  1.0
  C  C216  1  0.837200  0.046000  0.835000  1.0
  C  C217  1  0.741160  0.645660  0.402660  1.0
  C  C218  1  0.402660  0.741160  0.645660  1.0
  C  C219  1  0.645660  0.402660  0.741160  1.0
  C  C220  1  0.097340  0.854340  0.758840  1.0
  C  C221  1  0.145660  0.241160  0.902660  1.0
  C  C222  1  0.241160  0.902660  0.145660  1.0
  C  C223  1  0.597340  0.258840  0.354340  1.0
  C  C224  1  0.354340  0.597340  0.258840  1.0
  C  C225  1  0.258840  0.354340  0.597340  1.0
  C  C226  1  0.902660  0.145660  0.241160  1.0
  C  C227  1  0.854340  0.758840  0.097340  1.0
  C  C228  1  0.758840  0.097340  0.854340  1.0
  Cu  Cu229  1  0.873780  0.626220  0.250000  1.0
  Cu  Cu230  1  0.250000  0.873780  0.626220  1.0
  Cu  Cu231  1  0.626220  0.250000  0.873780  1.0
  Cu  Cu232  1  0.126220  0.373780  0.750000  1.0
  Cu  Cu233  1  0.373780  0.750000  0.126220  1.0
  Cu  Cu234  1  0.750000  0.126220  0.373780  1.0
  H  H235  1  0.250000  0.363300  0.136700  1.0
  H  H236  1  0.136700  0.250000  0.363300  1.0
  H  H237  1  0.363300  0.136700  0.250000  1.0
  H  H238  1  0.863300  0.750000  0.636700  1.0
  H  H239  1  0.750000  0.636700  0.863300  1.0
  H  H240  1  0.636700  0.863300  0.750000  1.0
  H  H241  1  0.137600  0.362400  0.250000  1.0
  H  H242  1  0.250000  0.137600  0.362400  1.0
  H  H243  1  0.362400  0.250000  0.137600  1.0
  H  H244  1  0.862400  0.637600  0.750000  1.0
  H  H245  1  0.637600  0.750000  0.862400  1.0
  H  H246  1  0.750000  0.862400  0.637600  1.0
  H  H247  1  0.942400  0.477000  0.039000  1.0
  H  H248  1  0.039000  0.942400  0.477000  1.0
  H  H249  1  0.477000  0.039000  0.942400  1.0
  H  H250  1  0.461000  0.023000  0.557600  1.0
  H  H251  1  0.977000  0.442400  0.539000  1.0
  H  H252  1  0.442400  0.539000  0.977000  1.0
  H  H253  1  0.961000  0.057600  0.523000  1.0
  H  H254  1  0.523000  0.961000  0.057600  1.0
  H  H255  1  0.057600  0.523000  0.961000  1.0
  H  H256  1  0.539000  0.977000  0.442400  1.0
  H  H257  1  0.023000  0.557600  0.461000  1.0
  H  H258  1  0.557600  0.461000  0.023000  1.0
  H  H259  1  0.054600  0.361200  0.040800  1.0
  H  H260  1  0.040800  0.054600  0.361200  1.0
  H  H261  1  0.361200  0.040800  0.054600  1.0
  H  H262  1  0.459200  0.138800  0.445400  1.0
  H  H263  1  0.861200  0.554600  0.540800  1.0
  H  H264  1  0.554600  0.540800  0.861200  1.0
  H  H265  1  0.959200  0.945400  0.638800  1.0
  H  H266  1  0.638800  0.959200  0.945400  1.0
  H  H267  1  0.945400  0.638800  0.959200  1.0
  H  H268  1  0.540800  0.861200  0.554600  1.0
  H  H269  1  0.138800  0.445400  0.459200  1.0
  H  H270  1  0.445400  0.459200  0.138800  1.0
  H  H271  1  0.962300  0.278400  0.281900  1.0
  H  H272  1  0.281900  0.962300  0.278400  1.0
  H  H273  1  0.278400  0.281900  0.962300  1.0
  H  H274  1  0.218100  0.221600  0.537700  1.0
  H  H275  1  0.778400  0.462300  0.781900  1.0
  H  H276  1  0.462300  0.781900  0.778400  1.0
  H  H277  1  0.718100  0.037700  0.721600  1.0
  H  H278  1  0.721600  0.718100  0.037700  1.0
  H  H279  1  0.037700  0.721600  0.718100  1.0
  H  H280  1  0.781900  0.778400  0.462300  1.0
  H  H281  1  0.221600  0.537700  0.218100  1.0
  H  H282  1  0.537700  0.218100  0.221600  1.0
  H  H283  1  0.848200  0.392100  0.278700  1.0
  H  H284  1  0.278700  0.848200  0.392100  1.0
  H  H285  1  0.392100  0.278700  0.848200  1.0
  H  H286  1  0.221300  0.107900  0.651800  1.0
  H  H287  1  0.892100  0.348200  0.778700  1.0
  H  H288  1  0.348200  0.778700  0.892100  1.0
  H  H289  1  0.721300  0.151800  0.607900  1.0
  H  H290  1  0.607900  0.721300  0.151800  1.0
  H  H291  1  0.151800  0.607900  0.721300  1.0
  H  H292  1  0.778700  0.892100  0.348200  1.0
  H  H293  1  0.107900  0.651800  0.221300  1.0
  H  H294  1  0.651800  0.221300  0.107900  1.0
  H  H295  1  0.049100  0.168000  0.278200  1.0
  H  H296  1  0.278200  0.049100  0.168000  1.0
  H  H297  1  0.168000  0.278200  0.049100  1.0
  H  H298  1  0.221800  0.332000  0.450900  1.0
  H  H299  1  0.668000  0.549100  0.778200  1.0
  H  H300  1  0.549100  0.778200  0.668000  1.0
  H  H301  1  0.721800  0.950900  0.832000  1.0
  H  H302  1  0.832000  0.721800  0.950900  1.0
  H  H303  1  0.950900  0.832000  0.721800  1.0
  H  H304  1  0.778200  0.668000  0.549100  1.0
  H  H305  1  0.332000  0.450900  0.221800  1.0
  H  H306  1  0.450900  0.221800  0.332000  1.0
  H  H307  1  0.991900  0.493900  0.178100  1.0
  H  H308  1  0.178100  0.991900  0.493900  1.0
  H  H309  1  0.493900  0.178100  0.991900  1.0
  H  H310  1  0.321900  0.006100  0.508100  1.0
  H  H311  1  0.993900  0.491900  0.678100  1.0
  H  H312  1  0.491900  0.678100  0.993900  1.0
  H  H313  1  0.821900  0.008100  0.506100  1.0
  H  H314  1  0.506100  0.821900  0.008100  1.0
  H  H315  1  0.008100  0.506100  0.821900  1.0
  H  H316  1  0.678100  0.993900  0.491900  1.0
  H  H317  1  0.006100  0.508100  0.321900  1.0
  H  H318  1  0.508100  0.321900  0.006100  1.0
  H  H319  1  0.119600  0.468400  0.080400  1.0
  H  H320  1  0.080400  0.119600  0.468400  1.0
  H  H321  1  0.468400  0.080400  0.119600  1.0
  H  H322  1  0.419600  0.031600  0.380400  1.0
  H  H323  1  0.968400  0.619600  0.580400  1.0
  H  H324  1  0.619600  0.580400  0.968400  1.0
  H  H325  1  0.919600  0.880400  0.531600  1.0
  H  H326  1  0.531600  0.919600  0.880400  1.0
  H  H327  1  0.880400  0.531600  0.919600  1.0
  H  H328  1  0.580400  0.968400  0.619600  1.0
  H  H329  1  0.031600  0.380400  0.419600  1.0
  H  H330  1  0.380400  0.419600  0.031600  1.0
  H  H331  1  0.191700  0.555500  0.028000  1.0
  H  H332  1  0.028000  0.191700  0.555500  1.0
  H  H333  1  0.555500  0.028000  0.191700  1.0
  H  H334  1  0.472000  0.944500  0.308300  1.0
  H  H335  1  0.055500  0.691700  0.528000  1.0
  H  H336  1  0.691700  0.528000  0.055500  1.0
  H  H337  1  0.972000  0.808300  0.444500  1.0
  H  H338  1  0.444500  0.972000  0.808300  1.0
  H  H339  1  0.808300  0.444500  0.972000  1.0
  H  H340  1  0.528000  0.055500  0.691700  1.0
  H  H341  1  0.944500  0.308300  0.472000  1.0
  H  H342  1  0.308300  0.472000  0.944500  1.0
  H  H343  1  0.133200  0.672300  0.061500  1.0
  H  H344  1  0.061500  0.133200  0.672300  1.0
  H  H345  1  0.672300  0.061500  0.133200  1.0
  H  H346  1  0.438500  0.827700  0.366800  1.0
  H  H347  1  0.172300  0.633200  0.561500  1.0
  H  H348  1  0.633200  0.561500  0.172300  1.0
  H  H349  1  0.938500  0.866800  0.327700  1.0
  H  H350  1  0.327700  0.938500  0.866800  1.0
  H  H351  1  0.866800  0.327700  0.938500  1.0
  H  H352  1  0.561500  0.172300  0.633200  1.0
  H  H353  1  0.827700  0.366800  0.438500  1.0
  H  H354  1  0.366800  0.438500  0.827700  1.0
  H  H355  1  0.006500  0.697300  0.149400  1.0
  H  H356  1  0.149400  0.006500  0.697300  1.0
  H  H357  1  0.697300  0.149400  0.006500  1.0
  H  H358  1  0.350600  0.802700  0.493500  1.0
  H  H359  1  0.197300  0.506500  0.649400  1.0
  H  H360  1  0.506500  0.649400  0.197300  1.0
  H  H361  1  0.850600  0.993500  0.302700  1.0
  H  H362  1  0.302700  0.850600  0.993500  1.0
  H  H363  1  0.993500  0.302700  0.850600  1.0
  H  H364  1  0.649400  0.197300  0.506500  1.0
  H  H365  1  0.802700  0.493500  0.350600  1.0
  H  H366  1  0.493500  0.350600  0.802700  1.0
  H  H367  1  0.707900  0.690100  0.243700  1.0
  H  H368  1  0.243700  0.707900  0.690100  1.0
  H  H369  1  0.690100  0.243700  0.707900  1.0
  H  H370  1  0.256300  0.809900  0.792100  1.0
  H  H371  1  0.190100  0.207900  0.743700  1.0
  H  H372  1  0.207900  0.743700  0.190100  1.0
  H  H373  1  0.756300  0.292100  0.309900  1.0
  H  H374  1  0.309900  0.756300  0.292100  1.0
  H  H375  1  0.292100  0.309900  0.756300  1.0
  H  H376  1  0.743700  0.190100  0.207900  1.0
  H  H377  1  0.809900  0.792100  0.256300  1.0
  H  H378  1  0.792100  0.256300  0.809900  1.0
  H  H379  1  0.576300  0.718900  0.325200  1.0
  H  H380  1  0.325200  0.576300  0.718900  1.0
  H  H381  1  0.718900  0.325200  0.576300  1.0
  H  H382  1  0.174800  0.781100  0.923700  1.0
  H  H383  1  0.218900  0.076300  0.825200  1.0
  H  H384  1  0.076300  0.825200  0.218900  1.0
  H  H385  1  0.674800  0.423700  0.281100  1.0
  H  H386  1  0.281100  0.674800  0.423700  1.0
  H  H387  1  0.423700  0.281100  0.674800  1.0
  H  H388  1  0.825200  0.218900  0.076300  1.0
  H  H389  1  0.781100  0.923700  0.174800  1.0
  H  H390  1  0.923700  0.174800  0.781100  1.0
  H  H391  1  0.546500  0.702000  0.462200  1.0
  H  H392  1  0.462200  0.546500  0.702000  1.0
  H  H393  1  0.702000  0.462200  0.546500  1.0
  H  H394  1  0.037800  0.798000  0.953500  1.0
  H  H395  1  0.202000  0.046500  0.962200  1.0
  H  H396  1  0.046500  0.962200  0.202000  1.0
  H  H397  1  0.537800  0.453500  0.298000  1.0
  H  H398  1  0.298000  0.537800  0.453500  1.0
  H  H399  1  0.453500  0.298000  0.537800  1.0
  H  H400  1  0.962200  0.202000  0.046500  1.0
  H  H401  1  0.798000  0.953500  0.037800  1.0
  H  H402  1  0.953500  0.037800  0.798000  1.0
  H  H403  1  0.653000  0.660400  0.506500  1.0
  H  H404  1  0.506500  0.653000  0.660400  1.0
  H  H405  1  0.660400  0.506500  0.653000  1.0
  H  H406  1  0.993500  0.839600  0.847000  1.0
  H  H407  1  0.160400  0.153000  0.006500  1.0
  H  H408  1  0.153000  0.006500  0.160400  1.0
  H  H409  1  0.493500  0.347000  0.339600  1.0
  H  H410  1  0.339600  0.493500  0.347000  1.0
  H  H411  1  0.347000  0.339600  0.493500  1.0
  H  H412  1  0.006500  0.160400  0.153000  1.0
  H  H413  1  0.839600  0.847000  0.993500  1.0
  H  H414  1  0.847000  0.993500  0.839600  1.0
  H  H415  1  0.783600  0.626100  0.422500  1.0
  H  H416  1  0.422500  0.783600  0.626100  1.0
  H  H417  1  0.626100  0.422500  0.783600  1.0
  H  H418  1  0.077500  0.873900  0.716400  1.0
  H  H419  1  0.126100  0.283600  0.922500  1.0
  H  H420  1  0.283600  0.922500  0.126100  1.0
  H  H421  1  0.577500  0.216400  0.373900  1.0
  H  H422  1  0.373900  0.577500  0.216400  1.0
  H  H423  1  0.216400  0.373900  0.577500  1.0
  H  H424  1  0.922500  0.126100  0.283600  1.0
  H  H425  1  0.873900  0.716400  0.077500  1.0
  H  H426  1  0.716400  0.077500  0.873900  1.0
  N  N427  1  0.986150  0.600650  0.169050  1.0
  N  N428  1  0.169050  0.986150  0.600650  1.0
  N  N429  1  0.600650  0.169050  0.986150  1.0
  N  N430  1  0.330950  0.899350  0.513850  1.0
  N  N431  1  0.100650  0.486150  0.669050  1.0
  N  N432  1  0.486150  0.669050  0.100650  1.0
  N  N433  1  0.830950  0.013850  0.399350  1.0
  N  N434  1  0.399350  0.830950  0.013850  1.0
  N  N435  1  0.013850  0.399350  0.830950  1.0
  N  N436  1  0.669050  0.100650  0.486150  1.0
  N  N437  1  0.899350  0.513850  0.330950  1.0
  N  N438  1  0.513850  0.330950  0.899350  1.0
  N  N439  1  0.758320  0.653920  0.326120  1.0
  N  N440  1  0.326120  0.758320  0.653920  1.0
  N  N441  1  0.653920  0.326120  0.758320  1.0
  N  N442  1  0.173880  0.846080  0.741680  1.0
  N  N443  1  0.153920  0.258320  0.826120  1.0
  N  N444  1  0.258320  0.826120  0.153920  1.0
  N  N445  1  0.673880  0.241680  0.346080  1.0
  N  N446  1  0.346080  0.673880  0.241680  1.0
  N  N447  1  0.241680  0.346080  0.673880  1.0
  N  N448  1  0.826120  0.153920  0.258320  1.0
  N  N449  1  0.846080  0.741680  0.173880  1.0
  N  N450  1  0.741680  0.173880  0.846080  1.0
  O  O451  1  0.737460  0.524360  0.223760  1.0
  O  O452  1  0.223760  0.737460  0.524360  1.0
  O  O453  1  0.524360  0.223760  0.737460  1.0
  O  O454  1  0.276240  0.975640  0.762540  1.0
  O  O455  1  0.024360  0.237460  0.723760  1.0
  O  O456  1  0.237460  0.723760  0.024360  1.0
  O  O457  1  0.776240  0.262540  0.475640  1.0
  O  O458  1  0.475640  0.776240  0.262540  1.0
  O  O459  1  0.262540  0.475640  0.776240  1.0
  O  O460  1  0.723760  0.024360  0.237460  1.0
  O  O461  1  0.975640  0.762540  0.276240  1.0
  O  O462  1  0.762540  0.276240  0.975640  1.0
  O  O463  1  0.836470  0.587070  0.173670  1.0
  O  O464  1  0.173670  0.836470  0.587070  1.0
  O  O465  1  0.587070  0.173670  0.836470  1.0
  O  O466  1  0.326330  0.912930  0.663530  1.0
  O  O467  1  0.087070  0.336470  0.673670  1.0
  O  O468  1  0.336470  0.673670  0.087070  1.0
  O  O469  1  0.826330  0.163530  0.412930  1.0
  O  O470  1  0.412930  0.826330  0.163530  1.0
  O  O471  1  0.163530  0.412930  0.826330  1.0
  O  O472  1  0.673670  0.087070  0.336470  1.0
  O  O473  1  0.912930  0.663530  0.326330  1.0
  O  O474  1  0.663530  0.326330  0.912930  1.0
  O  O475  1  0.799610  0.576610  0.078910  1.0
  O  O476  1  0.078910  0.799610  0.576610  1.0
  O  O477  1  0.576610  0.078910  0.799610  1.0
  O  O478  1  0.421090  0.923390  0.700390  1.0
  O  O479  1  0.076610  0.299610  0.578910  1.0
  O  O480  1  0.299610  0.578910  0.076610  1.0
  O  O481  1  0.921090  0.200390  0.423390  1.0
  O  O482  1  0.423390  0.921090  0.200390  1.0
  O  O483  1  0.200390  0.423390  0.921090  1.0
  O  O484  1  0.578910  0.076610  0.299610  1.0
  O  O485  1  0.923390  0.700390  0.421090  1.0
  O  O486  1  0.700390  0.421090  0.923390  1.0
  S  S487  1  0.808430  0.542680  0.157390  1.0
  S  S488  1  0.157390  0.808430  0.542680  1.0
  S  S489  1  0.542680  0.157390  0.808430  1.0
  S  S490  1  0.342610  0.957320  0.691570  1.0
  S  S491  1  0.042680  0.308430  0.657390  1.0
  S  S492  1  0.308430  0.657390  0.042680  1.0
  S  S493  1  0.842610  0.191570  0.457320  1.0
  S  S494  1  0.457320  0.842610  0.191570  1.0
  S  S495  1  0.191570  0.457320  0.842610  1.0
  S  S496  1  0.657390  0.042680  0.308430  1.0
  S  S497  1  0.957320  0.691570  0.342610  1.0
  S  S498  1  0.691570  0.342610  0.957320  1.0
