# generated using pymatgen
data_B2P4H131Rh2C138N8Cl10(OF2)4
_symmetry_space_group_name_H-M   'P 1'
_cell_length_a   13.23050000
_cell_length_b   19.07030000
_cell_length_c   26.56940000
_cell_angle_alpha   78.99300000
_cell_angle_beta   83.28500000
_cell_angle_gamma   82.35400000
_symmetry_Int_Tables_number   1
_chemical_formula_structural   B2P4H131Rh2C138N8Cl10(OF2)4
_chemical_formula_sum   'B4 P8 H262 Rh4 C276 N16 Cl20 O8 F16'
_cell_volume   6492.96004390
_cell_formula_units_Z   2
loop_
 _symmetry_equiv_pos_site_id
 _symmetry_equiv_pos_as_xyz
  1  'x, y, z'
loop_
 _atom_site_type_symbol
 _atom_site_label
 _atom_site_symmetry_multiplicity
 _atom_site_fract_x
 _atom_site_fract_y
 _atom_site_fract_z
 _atom_site_occupancy
  B  B1  1  0.178800  0.204100  0.593800  1
  B  B2  1  0.821200  0.795900  0.406200  1
  B  B3  1  0.199500  0.762700  0.948100  1
  B  B4  1  0.800500  0.237300  0.051900  1
  P  P5  1  0.297780  0.222470  0.359560  1
  P  P6  1  0.702220  0.777530  0.640440  1
  P  P7  1  0.220790  0.050150  0.394860  1
  P  P8  1  0.779210  0.949850  0.605140  1
  P  P9  1  0.359040  0.537860  0.815560  1
  P  P10  1  0.640960  0.462140  0.184440  1
  P  P11  1  0.244460  0.431350  0.922030  1
  P  P12  1  0.755540  0.568650  0.077970  1
  H  H13  1  0.433900  0.201800  0.590100  1
  H  H14  1  0.566100  0.798200  0.409900  1
  H  H15  1  0.331300  0.200800  0.665800  1
  H  H16  1  0.668700  0.799200  0.334200  1
  H  H17  1  0.162600  0.012800  0.647300  1
  H  H18  1  0.837400  0.987200  0.352700  1
  H  H19  1  0.213000  0.095300  0.695600  1
  H  H20  1  0.787000  0.904700  0.304400  1
  H  H21  1  0.234200  0.189200  0.800700  1
  H  H22  1  0.765800  0.810800  0.199300  1
  H  H23  1  0.163200  0.226500  0.700800  1
  H  H24  1  0.836800  0.773500  0.299200  1
  H  H25  1  0.090400  0.226200  0.753400  1
  H  H26  1  0.909600  0.773800  0.246600  1
  H  H27  1  0.180700  0.316800  0.772500  1
  H  H28  1  0.819300  0.683200  0.227500  1
  H  H29  1  0.123600  0.343500  0.721200  1
  H  H30  1  0.876400  0.656500  0.278800  1
  H  H31  1  0.244500  0.319700  0.717300  1
  H  H32  1  0.755500  0.680300  0.282700  1
  H  H33  1  0.387700  0.195800  0.840000  1
  H  H34  1  0.612300  0.804200  0.160000  1
  H  H35  1  0.506000  0.164900  0.832900  1
  H  H36  1  0.494000  0.835100  0.167100  1
  H  H37  1  0.419400  0.111700  0.840500  1
  H  H38  1  0.580600  0.888300  0.159500  1
  H  H39  1  0.652900  0.159700  0.764700  1
  H  H40  1  0.347100  0.840300  0.235300  1
  H  H41  1  0.758900  0.168400  0.689400  1
  H  H42  1  0.241100  0.831600  0.310600  1
  H  H43  1  0.694800  0.190400  0.608700  1
  H  H44  1  0.305200  0.809600  0.391300  1
  H  H45  1  0.383500  0.146800  0.534700  1
  H  H46  1  0.616500  0.853200  0.465300  1
  H  H47  1  0.291800  0.151000  0.463800  1
  H  H48  1  0.708200  0.849000  0.536200  1
  H  H49  1  0.478600  0.287200  0.374700  1
  H  H50  1  0.521400  0.712800  0.625300  1
  H  H51  1  0.570300  0.282200  0.445200  1
  H  H52  1  0.429700  0.717800  0.554800  1
  H  H53  1  0.282600  0.319900  0.260900  1
  H  H54  1  0.717400  0.680100  0.739100  1
  H  H55  1  0.245600  0.443400  0.235300  1
  H  H56  1  0.754400  0.556600  0.764700  1
  H  H57  1  0.219800  0.518100  0.296100  1
  H  H58  1  0.780200  0.481900  0.703900  1
  H  H59  1  0.221100  0.469400  0.383000  1
  H  H60  1  0.778900  0.530600  0.617000  1
  H  H61  1  0.257700  0.345100  0.409700  1
  H  H62  1  0.742300  0.654900  0.590300  1
  H  H63  1  0.519400  0.187000  0.328200  1
  H  H64  1  0.480600  0.813000  0.671800  1
  H  H65  1  0.609300  0.149000  0.255600  1
  H  H66  1  0.390700  0.851000  0.744400  1
  H  H67  1  0.520600  0.137300  0.186800  1
  H  H68  1  0.479400  0.862700  0.813200  1
  H  H69  1  0.342300  0.154600  0.194000  1
  H  H70  1  0.657700  0.845400  0.806000  1
  H  H71  1  0.253000  0.186100  0.267900  1
  H  H72  1  0.747000  0.813900  0.732100  1
  H  H73  1  0.223100  0.102800  0.872500  1
  H  H74  1  0.776900  0.897200  0.127500  1
  H  H75  1  0.241400  0.017100  0.887700  1
  H  H76  1  0.758600  0.982900  0.112300  1
  H  H77  1  0.127200  0.057300  0.886700  1
  H  H78  1  0.872800  0.942700  0.113300  1
  H  H79  1  0.169300  0.904800  0.859900  1
  H  H80  1  0.830700  0.095200  0.140100  1
  H  H81  1  0.149200  0.819300  0.812700  1
  H  H82  1  0.850800  0.180700  0.187300  1
  H  H83  1  0.160300  0.844600  0.722800  1
  H  H84  1  0.839700  0.155400  0.277200  1
  H  H85  1  0.304800  0.871600  0.544000  1
  H  H86  1  0.695200  0.128400  0.456000  1
  H  H87  1  0.303500  0.917400  0.457400  1
  H  H88  1  0.696500  0.082600  0.542600  1
  H  H89  1  0.130300  0.096700  0.489500  1
  H  H90  1  0.869700  0.903300  0.510500  1
  H  H91  1  0.127900  0.050700  0.576300  1
  H  H92  1  0.872100  0.949300  0.423700  1
  H  H93  1  0.139400  0.064900  0.299300  1
  H  H94  1  0.860600  0.935100  0.700700  1
  H  H95  1  0.046600  0.997300  0.260300  1
  H  H96  1  0.953400  0.002700  0.739700  1
  H  H97  1  0.994800  0.889600  0.305800  1
  H  H98  1  0.005200  0.110400  0.694200  1
  H  H99  1  0.038300  0.845500  0.389300  1
  H  H100  1  0.961700  0.154500  0.610700  1
  H  H101  1  0.133700  0.912100  0.429100  1
  H  H102  1  0.866300  0.087900  0.570900  1
  H  H103  1  0.414100  0.040700  0.436200  1
  H  H104  1  0.585900  0.959300  0.563800  1
  H  H105  1  0.585300  0.008400  0.407200  1
  H  H106  1  0.414700  0.991600  0.592800  1
  H  H107  1  0.626500  0.974600  0.328000  1
  H  H108  1  0.373500  0.025400  0.672000  1
  H  H109  1  0.499500  0.972200  0.274700  1
  H  H110  1  0.500500  0.027800  0.725300  1
  H  H111  1  0.327200  0.000500  0.303800  1
  H  H112  1  0.672800  0.999500  0.696200  1
  H  H113  1  0.088000  0.299700  0.343400  1
  H  H114  1  0.912000  0.700300  0.656600  1
  H  H115  1  0.109100  0.263100  0.437800  1
  H  H116  1  0.890900  0.736900  0.562200  1
  H  H117  1  0.955000  0.199500  0.482400  1
  H  H118  1  0.045000  0.800500  0.517600  1
  H  H119  1  0.019200  0.090700  0.437200  1
  H  H120  1  0.980800  0.909300  0.562800  1
  H  H121  1  0.998400  0.128800  0.342800  1
  H  H122  1  0.001600  0.871200  0.657200  1
  H  H123  1  0.916400  0.260000  0.327300  1
  H  H124  1  0.083600  0.740000  0.672700  1
  H  H125  1  0.823800  0.217600  0.415900  1
  H  H126  1  0.176200  0.782400  0.584100  1
  H  H127  1  0.863500  0.294700  0.415800  1
  H  H128  1  0.136500  0.705300  0.584200  1
  H  H129  1  0.464000  0.769700  0.944900  1
  H  H130  1  0.536000  0.230300  0.055100  1
  H  H131  1  0.351500  0.836600  0.993300  1
  H  H132  1  0.648500  0.163400  0.006700  1
  H  H133  1  0.139600  0.658700  0.081200  1
  H  H134  1  0.860400  0.341300  0.918800  1
  H  H135  1  0.212300  0.772900  0.066600  1
  H  H136  1  0.787700  0.227100  0.933400  1
  H  H137  1  0.226800  0.960800  0.077600  1
  H  H138  1  0.773200  0.039200  0.922400  1
  H  H139  1  0.181900  0.973800  0.991000  1
  H  H140  1  0.818100  0.026200  0.009000  1
  H  H141  1  0.177300  0.888700  0.997400  1
  H  H142  1  0.822700  0.111300  0.002600  1
  H  H143  1  0.033900  0.990300  0.038800  1
  H  H144  1  0.966100  0.009700  0.961200  1
  H  H145  1  0.053600  0.914200  0.075900  1
  H  H146  1  0.946400  0.085800  0.924100  1
  H  H147  1  0.012500  0.918600  0.021000  1
  H  H148  1  0.987500  0.081400  0.979000  1
  H  H149  1  0.363500  0.022600  0.086300  1
  H  H150  1  0.636500  0.977400  0.913700  1
  H  H151  1  0.485000  0.009700  0.088900  1
  H  H152  1  0.515000  0.990300  0.911100  1
  H  H153  1  0.412100  0.961200  0.129500  1
  H  H154  1  0.587900  0.038800  0.870500  1
  H  H155  1  0.650100  0.936500  0.053500  1
  H  H156  1  0.349900  0.063500  0.946500  1
  H  H157  1  0.768600  0.868600  0.007300  1
  H  H158  1  0.231400  0.131400  0.992700  1
  H  H159  1  0.717300  0.795800  0.954800  1
  H  H160  1  0.282700  0.204200  0.045200  1
  H  H161  1  0.411600  0.667500  0.947900  1
  H  H162  1  0.588400  0.332500  0.052100  1
  H  H163  1  0.327800  0.593000  0.909400  1
  H  H164  1  0.672200  0.407000  0.090600  1
  H  H165  1  0.546800  0.605800  0.789400  1
  H  H166  1  0.453200  0.394200  0.210600  1
  H  H167  1  0.631400  0.676200  0.829200  1
  H  H168  1  0.368600  0.323800  0.170800  1
  H  H169  1  0.385500  0.512900  0.709300  1
  H  H170  1  0.614500  0.487100  0.290700  1
  H  H171  1  0.359600  0.586600  0.629600  1
  H  H172  1  0.640400  0.413400  0.370400  1
  H  H173  1  0.307900  0.712100  0.627500  1
  H  H174  1  0.692100  0.287900  0.372500  1
  H  H175  1  0.293100  0.759300  0.701700  1
  H  H176  1  0.706900  0.240700  0.298300  1
  H  H177  1  0.320800  0.687500  0.778900  1
  H  H178  1  0.679200  0.312500  0.221100  1
  H  H179  1  0.578000  0.479300  0.822600  1
  H  H180  1  0.422000  0.520700  0.177400  1
  H  H181  1  0.675200  0.380100  0.798100  1
  H  H182  1  0.324800  0.619900  0.201900  1
  H  H183  1  0.600300  0.297900  0.763700  1
  H  H184  1  0.399700  0.702100  0.236300  1
  H  H185  1  0.425100  0.314800  0.756300  1
  H  H186  1  0.574900  0.685200  0.243700  1
  H  H187  1  0.324800  0.413000  0.782000  1
  H  H188  1  0.675200  0.587000  0.218000  1
  H  H189  1  0.098500  0.949900  0.180900  1
  H  H190  1  0.901500  0.050100  0.819100  1
  H  H191  1  0.215000  0.959900  0.159700  1
  H  H192  1  0.785000  0.040100  0.840300  1
  H  H193  1  0.189100  0.913900  0.215700  1
  H  H194  1  0.810900  0.086100  0.784300  1
  H  H195  1  0.114500  0.784600  0.258700  1
  H  H196  1  0.885500  0.215400  0.741300  1
  H  H197  1  0.086800  0.664300  0.276300  1
  H  H198  1  0.913200  0.335700  0.723700  1
  H  H199  1  0.097400  0.600300  0.211100  1
  H  H200  1  0.902600  0.399700  0.788900  1
  H  H201  1  0.266600  0.438300  0.101900  1
  H  H202  1  0.733400  0.561700  0.898100  1
  H  H203  1  0.286000  0.384900  0.028700  1
  H  H204  1  0.714000  0.615100  0.971300  1
  H  H205  1  0.150500  0.564400  0.947300  1
  H  H206  1  0.849500  0.435600  0.052700  1
  H  H207  1  0.129200  0.620000  0.019800  1
  H  H208  1  0.870800  0.380000  0.980200  1
  H  H209  1  0.196200  0.340100  0.859300  1
  H  H210  1  0.803800  0.659900  0.140700  1
  H  H211  1  0.100600  0.243200  0.868100  1
  H  H212  1  0.899400  0.756800  0.131900  1
  H  H213  1  0.015000  0.201100  0.947000  1
  H  H214  1  0.985000  0.798900  0.053000  1
  H  H215  1  0.027200  0.252700  0.017400  1
  H  H216  1  0.972800  0.747300  0.982600  1
  H  H217  1  0.120900  0.354300  0.010000  1
  H  H218  1  0.879100  0.645700  0.990000  1
  H  H219  1  0.422900  0.474800  0.952100  1
  H  H220  1  0.577100  0.525200  0.047900  1
  H  H221  1  0.594100  0.426600  0.956400  1
  H  H222  1  0.405900  0.573400  0.043600  1
  H  H223  1  0.650900  0.316700  0.934000  1
  H  H224  1  0.349100  0.683300  0.066000  1
  H  H225  1  0.535900  0.251400  0.906900  1
  H  H226  1  0.464100  0.748600  0.093100  1
  H  H227  1  0.364800  0.296600  0.904700  1
  H  H228  1  0.635200  0.703400  0.095300  1
  H  H229  1  0.169800  0.575200  0.757100  1
  H  H230  1  0.830200  0.424800  0.242900  1
  H  H231  1  0.157300  0.649200  0.826700  1
  H  H232  1  0.842700  0.350800  0.173300  1
  H  H233  1  0.981000  0.639800  0.879000  1
  H  H234  1  0.019000  0.360200  0.121000  1
  H  H235  1  0.040100  0.508300  0.918400  1
  H  H236  1  0.959900  0.491700  0.081600  1
  H  H237  1  0.052800  0.435500  0.849000  1
  H  H238  1  0.947200  0.564500  0.151000  1
  H  H239  1  0.004400  0.514500  0.765700  1
  H  H240  1  0.995600  0.485500  0.234300  1
  H  H241  1  0.877600  0.575200  0.828600  1
  H  H242  1  0.122400  0.424800  0.171400  1
  H  H243  1  0.931400  0.637500  0.787900  1
  H  H244  1  0.068600  0.362500  0.212100  1
  H  H245  1  0.036100  0.206700  0.135100  1
  H  H246  1  0.963900  0.793300  0.864900  1
  H  H247  1  0.148500  0.228000  0.136500  1
  H  H248  1  0.851500  0.772000  0.863500  1
  H  H249  1  0.980100  0.556300  0.610200  1
  H  H250  1  0.019900  0.443700  0.389800  1
  H  H251  1  0.081000  0.528800  0.577100  1
  H  H252  1  0.919000  0.471200  0.422900  1
  H  H253  1  0.454600  0.629200  0.408300  1
  H  H254  1  0.545400  0.370800  0.591700  1
  H  H255  1  0.450200  0.662700  0.348600  1
  H  H256  1  0.549800  0.337300  0.651400  1
  H  H257  1  0.207000  0.353100  0.538600  1
  H  H258  1  0.793000  0.646900  0.461400  1
  H  H259  1  0.225200  0.425500  0.556300  1
  H  H260  1  0.774800  0.574500  0.443700  1
  H  H261  1  0.274900  0.675300  0.455200  1
  H  H262  1  0.725100  0.324700  0.544800  1
  H  H263  1  0.250800  0.598800  0.446700  1
  H  H264  1  0.749200  0.401200  0.553300  1
  H  H265  1  0.208400  0.926600  0.982800  1
  H  H266  1  0.791600  0.073400  0.017200  1
  H  H267  1  0.116500  0.894100  0.021600  1
  H  H268  1  0.883500  0.105900  0.978400  1
  H  H269  1  0.040100  0.002000  0.029600  1
  H  H270  1  0.959900  0.998000  0.970400  1
  H  H271  1  0.111200  0.030600  0.978800  1
  H  H272  1  0.888800  0.969400  0.021200  1
  H  H273  1  0.145800  0.031300  0.034500  1
  H  H274  1  0.854200  0.968700  0.965500  1
  Rh  Rh275  1  0.147100  0.169670  0.381800  1
  Rh  Rh276  1  0.852900  0.830330  0.618200  1
  Rh  Rh277  1  0.195320  0.515550  0.851250  1
  Rh  Rh278  1  0.804680  0.484450  0.148750  1
  C  C279  1  0.237600  0.178500  0.765100  1
  C  C280  1  0.762400  0.821500  0.234900  1
  C  C281  1  0.160100  0.233900  0.736900  1
  C  C282  1  0.839900  0.766100  0.263100  1
  C  C283  1  0.178900  0.310200  0.737000  1
  C  C284  1  0.821100  0.689800  0.263000  1
  C  C285  1  0.436800  0.160100  0.825300  1
  C  C286  1  0.563200  0.839900  0.174700  1
  C  C287  1  0.432400  0.172400  0.768300  1
  C  C288  1  0.567600  0.827600  0.231700  1
  C  C289  1  0.346400  0.182200  0.742600  1
  C  C290  1  0.653600  0.817800  0.257400  1
  C  C291  1  0.479000  0.189600  0.681400  1
  C  C292  1  0.521000  0.810400  0.318600  1
  C  C293  1  0.517000  0.176500  0.729900  1
  C  C294  1  0.483000  0.823500  0.270100  1
  C  C295  1  0.624900  0.168500  0.732500  1
  C  C296  1  0.375100  0.831500  0.267500  1
  C  C297  1  0.686800  0.173700  0.687800  1
  C  C298  1  0.313200  0.826300  0.312200  1
  C  C299  1  0.648600  0.186800  0.639000  1
  C  C300  1  0.351400  0.813200  0.361000  1
  C  C301  1  0.543200  0.194500  0.635200  1
  C  C302  1  0.456800  0.805500  0.364800  1
  C  C303  1  0.548700  0.216300  0.539700  1
  C  C304  1  0.451300  0.783700  0.460300  1
  C  C305  1  0.485700  0.215400  0.496400  1
  C  C306  1  0.514300  0.784600  0.503600  1
  C  C307  1  0.402700  0.175200  0.502400  1
  C  C308  1  0.597300  0.824800  0.497600  1
  C  C309  1  0.348900  0.177600  0.459900  1
  C  C310  1  0.651100  0.822400  0.540100  1
  C  C311  1  0.376600  0.217800  0.412200  1
  C  C312  1  0.623400  0.782200  0.587800  1
  C  C313  1  0.459500  0.258400  0.406800  1
  C  C314  1  0.540500  0.741600  0.593200  1
  C  C315  1  0.513200  0.255600  0.449000  1
  C  C316  1  0.486800  0.744400  0.551000  1
  C  C317  1  0.276000  0.318900  0.338200  1
  C  C318  1  0.724000  0.681100  0.661800  1
  C  C319  1  0.270900  0.349900  0.286100  1
  C  C320  1  0.729100  0.650100  0.713900  1
  C  C321  1  0.249100  0.423500  0.270800  1
  C  C322  1  0.750900  0.576500  0.729200  1
  C  C323  1  0.232600  0.467500  0.306700  1
  C  C324  1  0.767400  0.532500  0.693300  1
  C  C325  1  0.234600  0.438800  0.358100  1
  C  C326  1  0.765400  0.561200  0.641900  1
  C  C327  1  0.256300  0.364500  0.374100  1
  C  C328  1  0.743700  0.635500  0.625900  1
  C  C329  1  0.376300  0.191300  0.305600  1
  C  C330  1  0.623700  0.808700  0.694400  1
  C  C331  1  0.483100  0.179900  0.301200  1
  C  C332  1  0.516900  0.820100  0.698800  1
  C  C333  1  0.536700  0.158200  0.257700  1
  C  C334  1  0.463300  0.841800  0.742300  1
  C  C335  1  0.483900  0.150200  0.217300  1
  C  C336  1  0.516100  0.849800  0.782700  1
  C  C337  1  0.378500  0.160700  0.221400  1
  C  C338  1  0.621500  0.839300  0.778600  1
  C  C339  1  0.325700  0.180100  0.265100  1
  C  C340  1  0.674300  0.819900  0.734900  1
  C  C341  1  0.197400  0.057700  0.870200  1
  C  C342  1  0.802600  0.942300  0.129800  1
  C  C343  1  0.198500  0.051600  0.813600  1
  C  C344  1  0.801500  0.948400  0.186400  1
  C  C345  1  0.211200  0.102200  0.771000  1
  C  C346  1  0.788800  0.897800  0.229000  1
  C  C347  1  0.190500  0.001800  0.743100  1
  C  C348  1  0.809500  0.998200  0.256900  1
  C  C349  1  0.183900  0.986700  0.797500  1
  C  C350  1  0.816100  0.013300  0.202500  1
  C  C351  1  0.170900  0.916600  0.823400  1
  C  C352  1  0.829100  0.083400  0.176600  1
  C  C353  1  0.160800  0.866400  0.795400  1
  C  C354  1  0.839200  0.133600  0.204600  1
  C  C355  1  0.166800  0.881600  0.741200  1
  C  C356  1  0.833200  0.118400  0.258800  1
  C  C357  1  0.181800  0.948600  0.714600  1
  C  C358  1  0.818200  0.051400  0.285400  1
  C  C359  1  0.224000  0.925400  0.625500  1
  C  C360  1  0.776000  0.074600  0.374500  1
  C  C361  1  0.218000  0.957000  0.569700  1
  C  C362  1  0.782000  0.043000  0.430300  1
  C  C363  1  0.269200  0.917700  0.533100  1
  C  C364  1  0.730800  0.082300  0.466900  1
  C  C365  1  0.268200  0.945100  0.481600  1
  C  C366  1  0.731800  0.054900  0.518400  1
  C  C367  1  0.216700  0.012700  0.463400  1
  C  C368  1  0.783300  0.987300  0.536600  1
  C  C369  1  0.165800  0.050600  0.500400  1
  C  C370  1  0.834200  0.949400  0.499600  1
  C  C371  1  0.165000  0.023600  0.552200  1
  C  C372  1  0.835000  0.976400  0.447800  1
  C  C373  1  0.146800  0.993800  0.368100  1
  C  C374  1  0.853200  0.006200  0.631900  1
  C  C375  1  0.119600  0.020200  0.317500  1
  C  C376  1  0.880400  0.979800  0.682500  1
  C  C377  1  0.064000  0.980400  0.294500  1
  C  C378  1  0.936000  0.019600  0.705500  1
  C  C379  1  0.033800  0.916300  0.321600  1
  C  C380  1  0.966200  0.083700  0.678400  1
  C  C381  1  0.059200  0.890000  0.371300  1
  C  C382  1  0.940800  0.110000  0.628700  1
  C  C383  1  0.116200  0.929500  0.394900  1
  C  C384  1  0.883800  0.070500  0.605100  1
  C  C385  1  0.354400  0.023600  0.372200  1
  C  C386  1  0.645600  0.976400  0.627800  1
  C  C387  1  0.430900  0.026300  0.403700  1
  C  C388  1  0.569100  0.973700  0.596300  1
  C  C389  1  0.532400  0.007400  0.386200  1
  C  C390  1  0.467600  0.992600  0.613800  1
  C  C391  1  0.556800  0.987400  0.339200  1
  C  C392  1  0.443200  0.012600  0.660800  1
  C  C393  1  0.481700  0.985300  0.307600  1
  C  C394  1  0.518300  0.014700  0.692400  1
  C  C395  1  0.379700  0.002800  0.324800  1
  C  C396  1  0.620300  0.997200  0.675200  1
  C  C397  1  0.045600  0.271600  0.368500  1
  C  C398  1  0.954400  0.728400  0.631500  1
  C  C399  1  0.056900  0.251300  0.420200  1
  C  C400  1  0.943100  0.748700  0.579800  1
  C  C401  1  0.970500  0.206300  0.444200  1
  C  C402  1  0.029500  0.793700  0.555800  1
  C  C403  1  0.998100  0.137800  0.419900  1
  C  C404  1  0.001900  0.862200  0.580100  1
  C  C405  1  0.986200  0.158600  0.368200  1
  C  C406  1  0.013800  0.841400  0.631800  1
  C  C407  1  0.949500  0.239100  0.359700  1
  C  C408  1  0.050500  0.760900  0.640300  1
  C  C409  1  0.884400  0.244500  0.411000  1
  C  C410  1  0.115600  0.755500  0.589000  1
  C  C411  1  0.237400  0.916100  0.062200  1
  C  C412  1  0.762600  0.083900  0.937800  1
  C  C413  1  0.166300  0.930000  0.015800  1
  C  C414  1  0.833700  0.070000  0.984200  1
  C  C415  1  0.056900  0.939000  0.040000  1
  C  C416  1  0.943100  0.061000  0.960000  1
  C  C417  1  0.422100  0.986300  0.093800  1
  C  C418  1  0.577900  0.013700  0.906200  1
  C  C419  1  0.431000  0.932500  0.057700  1
  C  C420  1  0.569000  0.067500  0.942300  1
  C  C421  1  0.348000  0.905400  0.043700  1
  C  C422  1  0.652000  0.094600  0.956300  1
  C  C423  1  0.493400  0.856100  0.001200  1
  C  C424  1  0.506600  0.143900  0.998800  1
  C  C425  1  0.522900  0.902000  0.032600  1
  C  C426  1  0.477100  0.098000  0.967400  1
  C  C427  1  0.628200  0.906100  0.033500  1
  C  C428  1  0.371800  0.093900  0.966500  1
  C  C429  1  0.697700  0.866700  0.005700  1
  C  C430  1  0.302300  0.133300  0.994300  1
  C  C431  1  0.667000  0.822400  0.974400  1
  C  C432  1  0.333000  0.177600  0.025600  1
  C  C433  1  0.565900  0.817700  0.972100  1
  C  C434  1  0.434100  0.182300  0.027900  1
  C  C435  1  0.588000  0.728600  0.912800  1
  C  C436  1  0.412000  0.271400  0.087200  1
  C  C437  1  0.528300  0.680900  0.890900  1
  C  C438  1  0.471700  0.319100  0.109100  1
  C  C439  1  0.439100  0.655000  0.915700  1
  C  C440  1  0.560900  0.345000  0.084300  1
  C  C441  1  0.389700  0.610100  0.892900  1
  C  C442  1  0.610300  0.389900  0.107100  1
  C  C443  1  0.429900  0.590500  0.846700  1
  C  C444  1  0.570100  0.409500  0.153300  1
  C  C445  1  0.519700  0.617200  0.821900  1
  C  C446  1  0.480300  0.382800  0.178100  1
  C  C447  1  0.568400  0.660300  0.845200  1
  C  C448  1  0.431600  0.339700  0.154800  1
  C  C449  1  0.354700  0.593100  0.752100  1
  C  C450  1  0.645300  0.406900  0.247900  1
  C  C451  1  0.366600  0.563100  0.707300  1
  C  C452  1  0.633400  0.436900  0.292700  1
  C  C453  1  0.350900  0.606200  0.660300  1
  C  C454  1  0.649100  0.393800  0.339700  1
  C  C455  1  0.321100  0.681300  0.659200  1
  C  C456  1  0.678900  0.318700  0.340800  1
  C  C457  1  0.311600  0.709200  0.703200  1
  C  C458  1  0.688400  0.290800  0.296800  1
  C  C459  1  0.327800  0.666900  0.748700  1
  C  C460  1  0.672200  0.333100  0.251300  1
  C  C461  1  0.441000  0.458800  0.803700  1
  C  C462  1  0.559000  0.541200  0.196300  1
  C  C463  1  0.546200  0.446200  0.808800  1
  C  C464  1  0.453800  0.553800  0.191200  1
  C  C465  1  0.603900  0.387500  0.794400  1
  C  C466  1  0.396100  0.612500  0.205600  1
  C  C467  1  0.559500  0.338300  0.774300  1
  C  C468  1  0.440500  0.661700  0.225700  1
  C  C469  1  0.455900  0.348600  0.769800  1
  C  C470  1  0.544100  0.651400  0.230200  1
  C  C471  1  0.396600  0.407200  0.784600  1
  C  C472  1  0.603400  0.592800  0.215400  1
  C  C473  1  0.169200  0.926700  0.180400  1
  C  C474  1  0.830800  0.073300  0.819600  1
  C  C475  1  0.177100  0.858400  0.156800  1
  C  C476  1  0.822900  0.141600  0.843200  1
  C  C477  1  0.206400  0.857700  0.103100  1
  C  C478  1  0.793600  0.142300  0.896900  1
  C  C479  1  0.163000  0.743500  0.142000  1
  C  C480  1  0.837000  0.256500  0.858000  1
  C  C481  1  0.153600  0.788700  0.180900  1
  C  C482  1  0.846400  0.211300  0.819100  1
  C  C483  1  0.122900  0.757200  0.231800  1
  C  C484  1  0.877100  0.242800  0.768200  1
  C  C485  1  0.105300  0.686800  0.241900  1
  C  C486  1  0.894700  0.313200  0.758100  1
  C  C487  1  0.114200  0.648400  0.202700  1
  C  C488  1  0.885800  0.351600  0.797300  1
  C  C489  1  0.145100  0.673700  0.152900  1
  C  C490  1  0.854900  0.326300  0.847100  1
  C  C491  1  0.193700  0.565300  0.116100  1
  C  C492  1  0.806300  0.434700  0.883900  1
  C  C493  1  0.198700  0.533700  0.067700  1
  C  C494  1  0.801300  0.466300  0.932300  1
  C  C495  1  0.243300  0.464600  0.070500  1
  C  C496  1  0.756700  0.535400  0.929500  1
  C  C497  1  0.254400  0.432900  0.026900  1
  C  C498  1  0.745600  0.567100  0.973100  1
  C  C499  1  0.220100  0.470300  0.980600  1
  C  C500  1  0.779900  0.529700  0.019400  1
  C  C501  1  0.174500  0.538700  0.978700  1
  C  C502  1  0.825500  0.461300  0.021300  1
  C  C503  1  0.161900  0.572200  0.021700  1
  C  C504  1  0.838100  0.427800  0.978300  1
  C  C505  1  0.168700  0.355400  0.933300  1
  C  C506  1  0.831300  0.644600  0.066700  1
  C  C507  1  0.161600  0.322800  0.891800  1
  C  C508  1  0.838400  0.677200  0.108200  1
  C  C509  1  0.104600  0.265200  0.896900  1
  C  C510  1  0.895400  0.734800  0.103100  1
  C  C511  1  0.054500  0.240200  0.943500  1
  C  C512  1  0.945500  0.759800  0.056500  1
  C  C513  1  0.061200  0.271500  0.985100  1
  C  C514  1  0.938800  0.728500  0.014900  1
  C  C515  1  0.118100  0.331800  0.981300  1
  C  C516  1  0.881900  0.668200  0.018700  1
  C  C517  1  0.376700  0.390000  0.927100  1
  C  C518  1  0.623300  0.610000  0.072900  1
  C  C519  1  0.445600  0.429000  0.943000  1
  C  C520  1  0.554400  0.571000  0.057000  1
  C  C521  1  0.547300  0.400300  0.945400  1
  C  C522  1  0.452700  0.599700  0.054600  1
  C  C523  1  0.581000  0.335600  0.932300  1
  C  C524  1  0.419000  0.664400  0.067700  1
  C  C525  1  0.512700  0.296700  0.916500  1
  C  C526  1  0.487300  0.703300  0.083500  1
  C  C527  1  0.411500  0.324000  0.914700  1
  C  C528  1  0.588500  0.676000  0.085300  1
  C  C529  1  0.116800  0.577400  0.784300  1
  C  C530  1  0.883200  0.422600  0.215700  1
  C  C531  1  0.109700  0.618200  0.822400  1
  C  C532  1  0.890300  0.381800  0.177600  1
  C  C533  1  0.009900  0.603900  0.856600  1
  C  C534  1  0.990100  0.396100  0.143400  1
  C  C535  1  0.032500  0.525700  0.882900  1
  C  C536  1  0.967500  0.474300  0.117100  1
  C  C537  1  0.039300  0.486400  0.844700  1
  C  C538  1  0.960700  0.513600  0.155300  1
  C  C539  1  0.022300  0.536100  0.794500  1
  C  C540  1  0.977700  0.463900  0.205500  1
  C  C541  1  0.943400  0.593500  0.814200  1
  C  C542  1  0.056600  0.406500  0.185800  1
  C  C543  1  0.098000  0.195300  0.154100  1
  C  C544  1  0.902000  0.804700  0.845900  1
  C  C545  1  0.042500  0.521300  0.611600  1
  C  C546  1  0.957500  0.478700  0.388400  1
  C  C547  1  0.475700  0.619700  0.373000  1
  C  C548  1  0.524300  0.380300  0.627000  1
  C  C549  1  0.225000  0.402600  0.525900  1
  C  C550  1  0.775000  0.597400  0.474100  1
  C  C551  1  0.234500  0.634700  0.469700  1
  C  C552  1  0.765500  0.365300  0.530300  1
  C  C553  1  0.111000  0.005000  0.015000  1
  C  C554  1  0.889000  0.995000  0.985000  1
  N  N555  1  0.500300  0.204000  0.588000  1
  N  N556  1  0.499700  0.796000  0.412000  1
  N  N557  1  0.373900  0.193100  0.689800  1
  N  N558  1  0.626100  0.806900  0.310200  1
  N  N559  1  0.186500  0.968400  0.659900  1
  N  N560  1  0.813500  0.031600  0.340100  1
  N  N561  1  0.206700  0.072500  0.727700  1
  N  N562  1  0.793300  0.927500  0.272300  1
  N  N563  1  0.530700  0.770800  0.942800  1
  N  N564  1  0.469300  0.229200  0.057200  1
  N  N565  1  0.388700  0.859800  0.008600  1
  N  N566  1  0.611300  0.140200  0.991400  1
  N  N567  1  0.156900  0.635600  0.111400  1
  N  N568  1  0.843100  0.364400  0.888600  1
  N  N569  1  0.197600  0.787600  0.096300  1
  N  N570  1  0.802400  0.212400  0.903700  1
  Cl  Cl571  1  0.066300  0.210800  0.215190  1
  Cl  Cl572  1  0.933700  0.789200  0.784810  1
  Cl  Cl573  1  0.147900  0.109600  0.151400  1
  Cl  Cl574  1  0.852100  0.890400  0.848600  1
  Cl  Cl575  1  0.006400  0.438000  0.623500  1
  Cl  Cl576  1  0.993600  0.562000  0.376500  1
  Cl  Cl577  1  0.115300  0.540100  0.654300  1
  Cl  Cl578  1  0.884700  0.459900  0.345700  1
  Cl  Cl579  1  0.418100  0.549500  0.364900  1
  Cl  Cl580  1  0.581900  0.450500  0.635100  1
  Cl  Cl581  1  0.605100  0.609400  0.364300  1
  Cl  Cl582  1  0.394900  0.390600  0.635700  1
  Cl  Cl583  1  0.344700  0.397600  0.495500  1
  Cl  Cl584  1  0.655300  0.602400  0.504500  1
  Cl  Cl585  1  0.133000  0.448700  0.489500  1
  Cl  Cl586  1  0.867000  0.551300  0.510500  1
  Cl  Cl587  1  0.109400  0.665400  0.468900  1
  Cl  Cl588  1  0.890600  0.334600  0.531100  1
  Cl  Cl589  1  0.273400  0.596500  0.528400  1
  Cl  Cl590  1  0.726600  0.403500  0.471600  1
  O  O591  1  0.639200  0.225400  0.530300  1
  O  O592  1  0.360800  0.774600  0.469700  1
  O  O593  1  0.260600  0.862800  0.638300  1
  O  O594  1  0.739400  0.137200  0.361700  1
  O  O595  1  0.680200  0.727100  0.902600  1
  O  O596  1  0.319800  0.272900  0.097400  1
  O  O597  1  0.220700  0.530700  0.155900  1
  O  O598  1  0.779300  0.469300  0.844100  1
  F  F599  1  0.163800  0.202100  0.543600  1
  F  F600  1  0.836200  0.797900  0.456400  1
  F  F601  1  0.265400  0.239400  0.595200  1
  F  F602  1  0.734600  0.760600  0.404800  1
  F  F603  1  0.094600  0.238600  0.618000  1
  F  F604  1  0.905400  0.761400  0.382000  1
  F  F605  1  0.199500  0.134300  0.621000  1
  F  F606  1  0.800500  0.865700  0.379000  1
  F  F607  1  0.118300  0.816700  0.940200  1
  F  F608  1  0.881700  0.183300  0.059800  1
  F  F609  1  0.197100  0.737000  0.001300  1
  F  F610  1  0.802900  0.263000  0.998700  1
  F  F611  1  0.192000  0.710300  0.921500  1
  F  F612  1  0.808000  0.289700  0.078500  1
  F  F613  1  0.290600  0.795600  0.933900  1
  F  F614  1  0.709400  0.204400  0.066100  1
