# generated using pymatgen
data_P2H41PtC24(ClO)2
_symmetry_space_group_name_H-M   'P 1'
_cell_length_a   14.82510000
_cell_length_b   17.52600000
_cell_length_c   18.82290000
_cell_angle_alpha   104.65390000
_cell_angle_beta   90.00000000
_cell_angle_gamma   90.00000000
_symmetry_Int_Tables_number   1
_chemical_formula_structural   P2H41PtC24(ClO)2
_chemical_formula_sum   'P16 H328 Pt8 C192 Cl16 O16'
_cell_volume   4731.56929323
_cell_formula_units_Z   8
loop_
 _symmetry_equiv_pos_site_id
 _symmetry_equiv_pos_as_xyz
  1  'x, y, z'
loop_
 _atom_site_type_symbol
 _atom_site_label
 _atom_site_symmetry_multiplicity
 _atom_site_fract_x
 _atom_site_fract_y
 _atom_site_fract_z
 _atom_site_occupancy
  P  P1  1  0.671010  0.994810  0.824340  1.0
  P  P2  1  0.171010  0.505190  0.675660  1.0
  P  P3  1  0.328990  0.005190  0.175660  1.0
  P  P4  1  0.828990  0.494810  0.324340  1.0
  P  P5  1  0.386900  0.944510  0.721910  1.0
  P  P6  1  0.886900  0.555490  0.778090  1.0
  P  P7  1  0.613100  0.055490  0.278090  1.0
  P  P8  1  0.113100  0.444510  0.221910  1.0
  P  P9  1  0.616550  0.760990  0.063210  1.0
  P  P10  1  0.116550  0.739010  0.436790  1.0
  P  P11  1  0.383450  0.239010  0.936790  1.0
  P  P12  1  0.883450  0.260990  0.563210  1.0
  P  P13  1  0.317580  0.705180  0.010420  1.0
  P  P14  1  0.817580  0.794820  0.489580  1.0
  P  P15  1  0.682420  0.294820  0.989580  1.0
  P  P16  1  0.182420  0.205180  0.510420  1.0
  H  H17  1  0.120600  0.897900  0.930400  1
  H  H18  1  0.620600  0.602100  0.569600  1
  H  H19  1  0.879400  0.102100  0.069600  1
  H  H20  1  0.379400  0.397900  0.430400  1
  H  H21  1  0.083500  0.978100  0.984500  1
  H  H22  1  0.583500  0.521900  0.515500  1
  H  H23  1  0.916500  0.021900  0.015500  1
  H  H24  1  0.416500  0.478100  0.484500  1
  H  H25  1  0.247700  0.726500  0.118900  1
  H  H26  1  0.747700  0.773500  0.381100  1
  H  H27  1  0.752300  0.273500  0.881100  1
  H  H28  1  0.252300  0.226500  0.618900  1
  H  H29  1  0.228200  0.796300  0.080900  1
  H  H30  1  0.728200  0.703700  0.419100  1
  H  H31  1  0.771800  0.203700  0.919100  1
  H  H32  1  0.271800  0.296300  0.580900  1
  H  H33  1  0.092300  0.728200  0.093800  1
  H  H34  1  0.592300  0.771800  0.406200  1
  H  H35  1  0.907700  0.271800  0.906200  1
  H  H36  1  0.407700  0.228200  0.593800  1
  H  H37  1  0.132900  0.648200  0.043000  1
  H  H38  1  0.632900  0.851800  0.457000  1
  H  H39  1  0.867100  0.351800  0.957000  1
  H  H40  1  0.367100  0.148200  0.543000  1
  H  H41  1  0.111500  0.721000  0.008700  1
  H  H42  1  0.611500  0.779000  0.491300  1
  H  H43  1  0.888500  0.279000  0.991300  1
  H  H44  1  0.388500  0.221000  0.508700  1
  H  H45  1  0.323200  0.703200  0.881300  1
  H  H46  1  0.823200  0.796800  0.618700  1
  H  H47  1  0.676800  0.296800  0.118700  1
  H  H48  1  0.176800  0.203200  0.381300  1
  H  H49  1  0.221800  0.687900  0.903200  1
  H  H50  1  0.721800  0.812100  0.596800  1
  H  H51  1  0.778200  0.312100  0.096800  1
  H  H52  1  0.278200  0.187900  0.403200  1
  H  H53  1  0.234400  0.810200  0.874200  1
  H  H54  1  0.734400  0.689800  0.625800  1
  H  H55  1  0.765600  0.189800  0.125800  1
  H  H56  1  0.265600  0.310200  0.374200  1
  H  H57  1  0.305700  0.838800  0.939300  1
  H  H58  1  0.805700  0.661200  0.560700  1
  H  H59  1  0.694300  0.161200  0.060700  1
  H  H60  1  0.194300  0.338800  0.439300  1
  H  H61  1  0.203100  0.822500  0.957700  1
  H  H62  1  0.703100  0.677500  0.542300  1
  H  H63  1  0.796900  0.177500  0.042300  1
  H  H64  1  0.296900  0.322500  0.457700  1
  H  H65  1  0.116700  0.912800  0.934700  1
  H  H66  1  0.616700  0.587200  0.565300  1
  H  H67  1  0.883300  0.087200  0.065300  1
  H  H68  1  0.383300  0.412800  0.434700  1
  H  H69  1  0.076000  0.853900  0.862700  1
  H  H70  1  0.576000  0.646100  0.637300  1
  H  H71  1  0.924000  0.146100  0.137300  1
  H  H72  1  0.424000  0.353900  0.362700  1
  H  H73  1  0.456900  0.580900  0.076000  1.0
  H  H74  1  0.956900  0.919100  0.424000  1.0
  H  H75  1  0.543100  0.419100  0.924000  1.0
  H  H76  1  0.043100  0.080900  0.576000  1.0
  H  H77  1  0.438600  0.526600  0.176700  1.0
  H  H78  1  0.938600  0.973400  0.323300  1.0
  H  H79  1  0.561400  0.473400  0.823300  1.0
  H  H80  1  0.061400  0.026600  0.676700  1.0
  H  H81  1  0.418800  0.607500  0.293400  1.0
  H  H82  1  0.918800  0.892500  0.206600  1.0
  H  H83  1  0.581200  0.392500  0.706600  1.0
  H  H84  1  0.081200  0.107500  0.793400  1.0
  H  H85  1  0.410500  0.740600  0.374800  1.0
  H  H86  1  0.910500  0.759400  0.125200  1.0
  H  H87  1  0.589500  0.259400  0.625200  1.0
  H  H88  1  0.089500  0.240600  0.874800  1.0
  H  H89  1  0.398600  0.870800  0.460400  1.0
  H  H90  1  0.898600  0.629200  0.039600  1.0
  H  H91  1  0.601400  0.129200  0.539600  1.0
  H  H92  1  0.101400  0.370800  0.960400  1.0
  H  H93  1  0.398100  0.006300  0.480900  1.0
  H  H94  1  0.898100  0.493700  0.019100  1.0
  H  H95  1  0.601900  0.993700  0.519100  1.0
  H  H96  1  0.101900  0.506300  0.980900  1.0
  H  H97  1  0.421700  0.065600  0.385000  1.0
  H  H98  1  0.921700  0.434400  0.115000  1.0
  H  H99  1  0.578300  0.934400  0.615000  1.0
  H  H100  1  0.078300  0.565600  0.885000  1.0
  H  H101  1  0.457000  0.852700  0.177500  1.0
  H  H102  1  0.957000  0.647300  0.322500  1.0
  H  H103  1  0.543000  0.147300  0.822500  1.0
  H  H104  1  0.043000  0.352700  0.677500  1.0
  H  H105  1  0.753700  0.013600  0.725500  1.0
  H  H106  1  0.253700  0.486400  0.774500  1.0
  H  H107  1  0.246300  0.986400  0.274500  1.0
  H  H108  1  0.746300  0.513600  0.225500  1.0
  H  H109  1  0.729000  0.096700  0.779800  1.0
  H  H110  1  0.229000  0.403300  0.720200  1.0
  H  H111  1  0.271000  0.903300  0.220200  1.0
  H  H112  1  0.771000  0.596700  0.279800  1.0
  H  H113  1  0.885900  0.077300  0.778200  1.0
  H  H114  1  0.385900  0.422700  0.721800  1.0
  H  H115  1  0.114100  0.922700  0.221800  1.0
  H  H116  1  0.614100  0.577300  0.278200  1.0
  H  H117  1  0.873200  0.998000  0.804500  1.0
  H  H118  1  0.373200  0.502000  0.695500  1.0
  H  H119  1  0.126800  0.002000  0.195500  1.0
  H  H120  1  0.626800  0.498000  0.304500  1.0
  H  H121  1  0.848500  0.081500  0.858800  1.0
  H  H122  1  0.348500  0.418500  0.641200  1.0
  H  H123  1  0.151500  0.918500  0.141200  1.0
  H  H124  1  0.651500  0.581500  0.358800  1.0
  H  H125  1  0.780100  0.928200  0.874200  1.0
  H  H126  1  0.280100  0.571800  0.625800  1.0
  H  H127  1  0.219900  0.071800  0.125800  1.0
  H  H128  1  0.719900  0.428200  0.374200  1.0
  H  H129  1  0.686300  0.881600  0.866500  1.0
  H  H130  1  0.186300  0.618400  0.633500  1.0
  H  H131  1  0.313700  0.118400  0.133500  1.0
  H  H132  1  0.813700  0.381600  0.366500  1.0
  H  H133  1  0.791700  0.808900  0.783500  1.0
  H  H134  1  0.291700  0.691100  0.716500  1.0
  H  H135  1  0.208300  0.191100  0.216500  1.0
  H  H136  1  0.708300  0.308900  0.283500  1.0
  H  H137  1  0.804400  0.881200  0.746800  1.0
  H  H138  1  0.304400  0.618800  0.753200  1.0
  H  H139  1  0.195600  0.118800  0.253200  1.0
  H  H140  1  0.695600  0.381200  0.246800  1.0
  H  H141  1  0.710400  0.834900  0.738800  1.0
  H  H142  1  0.210400  0.665100  0.761200  1.0
  H  H143  1  0.289600  0.165100  0.261200  1.0
  H  H144  1  0.789600  0.334900  0.238800  1.0
  H  H145  1  0.725500  0.073400  0.937300  1.0
  H  H146  1  0.225500  0.426600  0.562700  1.0
  H  H147  1  0.274500  0.926600  0.062700  1.0
  H  H148  1  0.774500  0.573400  0.437300  1.0
  H  H149  1  0.635300  0.111400  0.914700  1.0
  H  H150  1  0.135300  0.388600  0.585300  1.0
  H  H151  1  0.364700  0.888600  0.085300  1.0
  H  H152  1  0.864700  0.611400  0.414700  1.0
  H  H153  1  0.609700  0.065600  0.018700  1.0
  H  H154  1  0.109700  0.434400  0.481300  1.0
  H  H155  1  0.390300  0.934400  0.981300  1.0
  H  H156  1  0.890300  0.565600  0.518700  1.0
  H  H157  1  0.639600  0.978600  0.975200  1.0
  H  H158  1  0.139600  0.521400  0.524800  1.0
  H  H159  1  0.360400  0.021400  0.024800  1.0
  H  H160  1  0.860400  0.478600  0.475200  1.0
  H  H161  1  0.549200  0.016300  0.952300  1.0
  H  H162  1  0.049200  0.483700  0.547700  1.0
  H  H163  1  0.450800  0.983700  0.047700  1.0
  H  H164  1  0.950800  0.516300  0.452300  1.0
  H  H165  1  0.248900  0.010600  0.727700  1.0
  H  H166  1  0.748900  0.489400  0.772300  1.0
  H  H167  1  0.751100  0.989400  0.272300  1.0
  H  H168  1  0.251100  0.510600  0.227700  1.0
  H  H169  1  0.320000  0.064600  0.781300  1.0
  H  H170  1  0.820000  0.435400  0.718700  1.0
  H  H171  1  0.680000  0.935400  0.218700  1.0
  H  H172  1  0.180000  0.564600  0.281300  1.0
  H  H173  1  0.281900  0.122400  0.686800  1.0
  H  H174  1  0.781900  0.377600  0.813200  1.0
  H  H175  1  0.718100  0.877600  0.313200  1.0
  H  H176  1  0.218100  0.622400  0.186800  1.0
  H  H177  1  0.315000  0.045600  0.626800  1.0
  H  H178  1  0.815000  0.454400  0.873200  1.0
  H  H179  1  0.685000  0.954400  0.373200  1.0
  H  H180  1  0.185000  0.545600  0.126800  1.0
  H  H181  1  0.386600  0.099600  0.680500  1.0
  H  H182  1  0.886600  0.400400  0.819500  1.0
  H  H183  1  0.613400  0.900400  0.319500  1.0
  H  H184  1  0.113400  0.599600  0.180500  1.0
  H  H185  1  0.316500  0.893500  0.608900  1.0
  H  H186  1  0.816500  0.606500  0.891100  1.0
  H  H187  1  0.683500  0.106500  0.391100  1.0
  H  H188  1  0.183500  0.393500  0.108900  1.0
  H  H189  1  0.412600  0.929700  0.596800  1.0
  H  H190  1  0.912600  0.570300  0.903200  1.0
  H  H191  1  0.587400  0.070300  0.403200  1.0
  H  H192  1  0.087400  0.429700  0.096800  1.0
  H  H193  1  0.416200  0.791200  0.551300  1.0
  H  H194  1  0.916200  0.708800  0.948700  1.0
  H  H195  1  0.583800  0.208800  0.448700  1.0
  H  H196  1  0.083800  0.291200  0.051300  1.0
  H  H197  1  0.389000  0.780400  0.630500  1.0
  H  H198  1  0.889000  0.719600  0.869500  1.0
  H  H199  1  0.611000  0.219600  0.369500  1.0
  H  H200  1  0.111000  0.280400  0.130500  1.0
  H  H201  1  0.485100  0.816700  0.618500  1.0
  H  H202  1  0.985100  0.683300  0.881500  1.0
  H  H203  1  0.514900  0.183300  0.381500  1.0
  H  H204  1  0.014900  0.316700  0.118500  1.0
  H  H205  1  0.357800  0.833300  0.764900  1.0
  H  H206  1  0.857800  0.666700  0.735100  1.0
  H  H207  1  0.642200  0.166700  0.235100  1.0
  H  H208  1  0.142200  0.333300  0.264900  1.0
  H  H209  1  0.312700  0.909300  0.818100  1.0
  H  H210  1  0.812700  0.590700  0.681900  1.0
  H  H211  1  0.687300  0.090700  0.181900  1.0
  H  H212  1  0.187300  0.409300  0.318100  1.0
  H  H213  1  0.200700  0.821800  0.758800  1.0
  H  H214  1  0.700700  0.678200  0.741200  1.0
  H  H215  1  0.799300  0.178200  0.241200  1.0
  H  H216  1  0.299300  0.321800  0.258800  1.0
  H  H217  1  0.238400  0.826800  0.680400  1.0
  H  H218  1  0.738400  0.673200  0.819600  1.0
  H  H219  1  0.761600  0.173200  0.319600  1.0
  H  H220  1  0.261600  0.326800  0.180400  1.0
  H  H221  1  0.193000  0.902600  0.734300  1.0
  H  H222  1  0.693000  0.597400  0.765700  1.0
  H  H223  1  0.807000  0.097400  0.265700  1.0
  H  H224  1  0.307000  0.402600  0.234300  1.0
  H  H225  1  0.622200  0.864200  0.005400  1.0
  H  H226  1  0.122200  0.635800  0.494600  1.0
  H  H227  1  0.377800  0.135800  0.994600  1.0
  H  H228  1  0.877800  0.364200  0.505400  1.0
  H  H229  1  0.624200  0.898600  0.092300  1.0
  H  H230  1  0.124200  0.601400  0.407700  1.0
  H  H231  1  0.375800  0.101400  0.907700  1.0
  H  H232  1  0.875800  0.398600  0.592300  1.0
  H  H233  1  0.762100  0.925900  0.041300  1.0
  H  H234  1  0.262100  0.574100  0.458700  1.0
  H  H235  1  0.237900  0.074100  0.958700  1.0
  H  H236  1  0.737900  0.425900  0.541300  1.0
  H  H237  1  0.778600  0.833800  0.006300  1.0
  H  H238  1  0.278600  0.666200  0.493700  1.0
  H  H239  1  0.221400  0.166200  0.993700  1.0
  H  H240  1  0.721400  0.333800  0.506300  1.0
  H  H241  1  0.780600  0.868400  0.093500  1.0
  H  H242  1  0.280600  0.631600  0.406500  1.0
  H  H243  1  0.219400  0.131600  0.906500  1.0
  H  H244  1  0.719400  0.368400  0.593500  1.0
  H  H245  1  0.681900  0.708200  0.947700  1.0
  H  H246  1  0.181900  0.791800  0.552300  1.0
  H  H247  1  0.318100  0.291800  0.052300  1.0
  H  H248  1  0.818100  0.208200  0.447700  1.0
  H  H249  1  0.745000  0.690800  0.010600  1.0
  H  H250  1  0.245000  0.809200  0.489400  1.0
  H  H251  1  0.255000  0.309200  0.989400  1.0
  H  H252  1  0.755000  0.190800  0.510600  1.0
  H  H253  1  0.683300  0.571700  0.939600  1.0
  H  H254  1  0.183300  0.928300  0.560400  1.0
  H  H255  1  0.316700  0.428300  0.060400  1.0
  H  H256  1  0.816700  0.071700  0.439600  1.0
  H  H257  1  0.583400  0.605100  0.959300  1.0
  H  H258  1  0.083400  0.894900  0.540700  1.0
  H  H259  1  0.416600  0.394900  0.040700  1.0
  H  H260  1  0.916600  0.105100  0.459300  1.0
  H  H261  1  0.646900  0.587600  0.022100  1.0
  H  H262  1  0.146900  0.912400  0.477900  1.0
  H  H263  1  0.353100  0.412400  0.977900  1.0
  H  H264  1  0.853100  0.087600  0.522100  1.0
  H  H265  1  0.726500  0.786600  0.155200  1.0
  H  H266  1  0.226500  0.713400  0.344800  1.0
  H  H267  1  0.273500  0.213400  0.844800  1.0
  H  H268  1  0.773500  0.286600  0.655200  1.0
  H  H269  1  0.628500  0.795700  0.191200  1.0
  H  H270  1  0.128500  0.704300  0.308800  1.0
  H  H271  1  0.371500  0.204300  0.808800  1.0
  H  H272  1  0.871500  0.295700  0.691200  1.0
  H  H273  1  0.704900  0.690300  0.220400  1.0
  H  H274  1  0.204900  0.809700  0.279600  1.0
  H  H275  1  0.295100  0.309700  0.779600  1.0
  H  H276  1  0.795100  0.190300  0.720400  1.0
  H  H277  1  0.716700  0.647600  0.135100  1.0
  H  H278  1  0.216700  0.852400  0.364900  1.0
  H  H279  1  0.283300  0.352400  0.864900  1.0
  H  H280  1  0.783300  0.147600  0.635100  1.0
  H  H281  1  0.618400  0.656900  0.171400  1.0
  H  H282  1  0.118400  0.843100  0.328600  1.0
  H  H283  1  0.381600  0.343100  0.828600  1.0
  H  H284  1  0.881600  0.156900  0.671400  1.0
  H  H285  1  0.309600  0.575900  0.024300  1.0
  H  H286  1  0.809600  0.924100  0.475700  1.0
  H  H287  1  0.690400  0.424100  0.975700  1.0
  H  H288  1  0.190400  0.075900  0.524300  1.0
  H  H289  1  0.236900  0.587600  0.965200  1.0
  H  H290  1  0.736900  0.912400  0.534800  1.0
  H  H291  1  0.763100  0.412400  0.034800  1.0
  H  H292  1  0.263100  0.087600  0.465200  1.0
  H  H293  1  0.351300  0.500700  0.906200  1.0
  H  H294  1  0.851300  0.999300  0.593800  1.0
  H  H295  1  0.648700  0.499300  0.093800  1.0
  H  H296  1  0.148700  0.000700  0.406200  1.0
  H  H297  1  0.426100  0.567000  0.935900  1.0
  H  H298  1  0.926100  0.933000  0.564100  1.0
  H  H299  1  0.573900  0.433000  0.064100  1.0
  H  H300  1  0.073900  0.067000  0.435900  1.0
  H  H301  1  0.353400  0.578800  0.876800  1.0
  H  H302  1  0.853400  0.921200  0.623200  1.0
  H  H303  1  0.646600  0.421200  0.123200  1.0
  H  H304  1  0.146600  0.078800  0.376800  1.0
  H  H305  1  0.264600  0.716500  0.133500  1.0
  H  H306  1  0.764600  0.783500  0.366500  1.0
  H  H307  1  0.735400  0.283500  0.866500  1.0
  H  H308  1  0.235400  0.216500  0.633500  1.0
  H  H309  1  0.253200  0.799100  0.113900  1.0
  H  H310  1  0.753200  0.700900  0.386100  1.0
  H  H311  1  0.746800  0.200900  0.886100  1.0
  H  H312  1  0.246800  0.299100  0.613900  1.0
  H  H313  1  0.113800  0.751600  0.137900  1.0
  H  H314  1  0.613800  0.748400  0.362100  1.0
  H  H315  1  0.886200  0.248400  0.862100  1.0
  H  H316  1  0.386200  0.251600  0.637900  1.0
  H  H317  1  0.128200  0.672900  0.073900  1.0
  H  H318  1  0.628200  0.827100  0.426100  1.0
  H  H319  1  0.871800  0.327100  0.926100  1.0
  H  H320  1  0.371800  0.172900  0.573900  1.0
  H  H321  1  0.116700  0.755800  0.054000  1.0
  H  H322  1  0.616700  0.744200  0.446000  1.0
  H  H323  1  0.883300  0.244200  0.946000  1.0
  H  H324  1  0.383300  0.255800  0.554000  1.0
  H  H325  1  0.275400  0.809200  0.964800  1.0
  H  H326  1  0.775400  0.690800  0.535200  1.0
  H  H327  1  0.724600  0.190800  0.035200  1.0
  H  H328  1  0.224600  0.309200  0.464800  1.0
  H  H329  1  0.320500  0.741600  0.901900  1.0
  H  H330  1  0.820500  0.758400  0.598100  1.0
  H  H331  1  0.679500  0.258400  0.098100  1.0
  H  H332  1  0.179500  0.241600  0.401900  1.0
  H  H333  1  0.168700  0.753600  0.874300  1.0
  H  H334  1  0.668700  0.746400  0.625700  1.0
  H  H335  1  0.831300  0.246400  0.125700  1.0
  H  H336  1  0.331300  0.253600  0.374300  1.0
  H  H337  1  0.139100  0.738200  0.951300  1.0
  H  H338  1  0.639100  0.761800  0.548700  1.0
  H  H339  1  0.860900  0.261800  0.048700  1.0
  H  H340  1  0.360900  0.238200  0.451300  1.0
  H  H341  1  0.184100  0.668800  0.889600  1.0
  H  H342  1  0.684100  0.831200  0.610400  1.0
  H  H343  1  0.815900  0.331200  0.110400  1.0
  H  H344  1  0.315900  0.168800  0.389600  1.0
  Pt  Pt345  1  0.530804  0.970041  0.770362  1.0
  Pt  Pt346  1  0.030804  0.529959  0.729638  1.0
  Pt  Pt347  1  0.469196  0.029959  0.229638  1.0
  Pt  Pt348  1  0.969196  0.470041  0.270362  1.0
  Pt  Pt349  1  0.464735  0.739590  0.041887  1.0
  Pt  Pt350  1  0.964735  0.760410  0.458113  1.0
  Pt  Pt351  1  0.535265  0.260410  0.958113  1.0
  Pt  Pt352  1  0.035265  0.239590  0.541887  1.0
  C  C353  1  0.070100  0.936200  0.939600  1
  C  C354  1  0.570100  0.563800  0.560400  1
  C  C355  1  0.929900  0.063800  0.060400  1
  C  C356  1  0.429900  0.436200  0.439600  1
  C  C357  1  0.231000  0.738100  0.071800  1
  C  C358  1  0.731000  0.761900  0.428200  1
  C  C359  1  0.769000  0.261900  0.928200  1
  C  C360  1  0.269000  0.238100  0.571800  1
  C  C361  1  0.132700  0.705900  0.052500  1
  C  C362  1  0.632700  0.794100  0.447500  1
  C  C363  1  0.867300  0.294100  0.947500  1
  C  C364  1  0.367300  0.205900  0.552500  1
  C  C365  1  0.275900  0.721000  0.919000  1
  C  C366  1  0.775900  0.779000  0.581000  1
  C  C367  1  0.724100  0.279000  0.081000  1
  C  C368  1  0.224100  0.221000  0.419000  1
  C  C369  1  0.252800  0.805400  0.922900  1
  C  C370  1  0.752800  0.694600  0.577100  1
  C  C371  1  0.747200  0.194600  0.077100  1
  C  C372  1  0.247200  0.305400  0.422900  1
  C  C373  1  0.064200  0.903000  0.901100  1
  C  C374  1  0.564200  0.597000  0.598900  1
  C  C375  1  0.935800  0.097000  0.098900  1
  C  C376  1  0.435800  0.403000  0.401100  1
  C  C377  1  0.509700  0.829800  0.840300  1.0
  C  C378  1  0.009700  0.670200  0.659700  1.0
  C  C379  1  0.490300  0.170200  0.159700  1.0
  C  C380  1  0.990300  0.329800  0.340300  1.0
  C  C381  1  0.531400  0.759800  0.780700  1.0
  C  C382  1  0.031400  0.740200  0.719300  1.0
  C  C383  1  0.468600  0.240200  0.219300  1.0
  C  C384  1  0.968600  0.259800  0.280700  1.0
  C  C385  1  0.517300  0.709500  0.833900  1.0
  C  C386  1  0.017300  0.790500  0.666100  1.0
  C  C387  1  0.482700  0.290500  0.166100  1.0
  C  C388  1  0.982700  0.209500  0.333900  1.0
  C  C389  1  0.497500  0.782700  0.891500  1.0
  C  C390  1  0.997500  0.717300  0.608500  1.0
  C  C391  1  0.502500  0.217300  0.108500  1.0
  C  C392  1  0.002500  0.282700  0.391500  1.0
  C  C393  1  0.451200  0.695600  0.130100  1.0
  C  C394  1  0.951200  0.804400  0.369900  1.0
  C  C395  1  0.548800  0.304400  0.869900  1.0
  C  C396  1  0.048800  0.195600  0.630100  1.0
  C  C397  1  0.449800  0.615500  0.123500  1.0
  C  C398  1  0.949800  0.884500  0.376500  1.0
  C  C399  1  0.550200  0.384500  0.876500  1.0
  C  C400  1  0.050200  0.115500  0.623500  1.0
  C  C401  1  0.438500  0.582300  0.184100  1.0
  C  C402  1  0.938500  0.917700  0.315900  1.0
  C  C403  1  0.561500  0.417700  0.815900  1.0
  C  C404  1  0.061500  0.082300  0.684100  1.0
  C  C405  1  0.427500  0.630000  0.253000  1.0
  C  C406  1  0.927500  0.870000  0.247000  1.0
  C  C407  1  0.572500  0.370000  0.747000  1.0
  C  C408  1  0.072500  0.130000  0.753000  1.0
  C  C409  1  0.429100  0.713600  0.264600  1.0
  C  C410  1  0.929100  0.786400  0.235400  1.0
  C  C411  1  0.570900  0.286400  0.735400  1.0
  C  C412  1  0.070900  0.213600  0.764600  1.0
  C  C413  1  0.419200  0.763500  0.334600  1.0
  C  C414  1  0.919200  0.736500  0.165400  1.0
  C  C415  1  0.580800  0.236500  0.665400  1.0
  C  C416  1  0.080800  0.263500  0.834600  1.0
  C  C417  1  0.421400  0.845900  0.348600  1.0
  C  C418  1  0.921400  0.654100  0.151400  1.0
  C  C419  1  0.578600  0.154100  0.651400  1.0
  C  C420  1  0.078600  0.345900  0.848600  1.0
  C  C421  1  0.407800  0.894200  0.420700  1.0
  C  C422  1  0.907800  0.605800  0.079300  1.0
  C  C423  1  0.592200  0.105800  0.579300  1.0
  C  C424  1  0.092200  0.394200  0.920700  1.0
  C  C425  1  0.408200  0.974200  0.432700  1.0
  C  C426  1  0.908200  0.525800  0.067300  1.0
  C  C427  1  0.591800  0.025800  0.567300  1.0
  C  C428  1  0.091800  0.474200  0.932700  1.0
  C  C429  1  0.423200  0.009700  0.374700  1.0
  C  C430  1  0.923200  0.490300  0.125300  1.0
  C  C431  1  0.576800  0.990300  0.625300  1.0
  C  C432  1  0.076800  0.509700  0.874700  1.0
  C  C433  1  0.559800  0.032700  0.696700  1.0
  C  C434  1  0.059800  0.467300  0.803300  1.0
  C  C435  1  0.440200  0.967300  0.303300  1.0
  C  C436  1  0.940200  0.532700  0.196700  1.0
  C  C437  1  0.436600  0.881400  0.288300  1.0
  C  C438  1  0.936600  0.618600  0.211700  1.0
  C  C439  1  0.563400  0.118600  0.711700  1.0
  C  C440  1  0.063400  0.381400  0.788300  1.0
  C  C441  1  0.446600  0.830000  0.217600  1.0
  C  C442  1  0.946600  0.670000  0.282400  1.0
  C  C443  1  0.553400  0.170000  0.782400  1.0
  C  C444  1  0.053400  0.330000  0.717600  1.0
  C  C445  1  0.442100  0.747700  0.203300  1.0
  C  C446  1  0.942100  0.752300  0.296700  1.0
  C  C447  1  0.557900  0.252300  0.796700  1.0
  C  C448  1  0.057900  0.247700  0.703300  1.0
  C  C449  1  0.751700  0.043000  0.777800  1.0
  C  C450  1  0.251700  0.457000  0.722200  1.0
  C  C451  1  0.248300  0.957000  0.222200  1.0
  C  C452  1  0.748300  0.543000  0.277800  1.0
  C  C453  1  0.848600  0.050700  0.807500  1.0
  C  C454  1  0.348600  0.449300  0.692500  1.0
  C  C455  1  0.151400  0.949300  0.192500  1.0
  C  C456  1  0.651400  0.550700  0.307500  1.0
  C  C457  1  0.728200  0.910000  0.841200  1.0
  C  C458  1  0.228200  0.590000  0.658800  1.0
  C  C459  1  0.271800  0.090000  0.158800  1.0
  C  C460  1  0.771800  0.410000  0.341200  1.0
  C  C461  1  0.761600  0.853800  0.771400  1.0
  C  C462  1  0.261600  0.646200  0.728600  1.0
  C  C463  1  0.238400  0.146200  0.228600  1.0
  C  C464  1  0.738400  0.353800  0.271400  1.0
  C  C465  1  0.663700  0.061200  0.917800  1.0
  C  C466  1  0.163700  0.438800  0.582200  1.0
  C  C467  1  0.336300  0.938800  0.082200  1.0
  C  C468  1  0.836300  0.561200  0.417800  1.0
  C  C469  1  0.611000  0.027500  0.970500  1.0
  C  C470  1  0.111000  0.472500  0.529500  1.0
  C  C471  1  0.389000  0.972500  0.029500  1.0
  C  C472  1  0.889000  0.527500  0.470500  1.0
  C  C473  1  0.311900  0.029700  0.731400  1.0
  C  C474  1  0.811900  0.470300  0.768600  1.0
  C  C475  1  0.688100  0.970300  0.268600  1.0
  C  C476  1  0.188100  0.529700  0.231400  1.0
  C  C477  1  0.325000  0.078600  0.676500  1.0
  C  C478  1  0.825000  0.421400  0.823500  1.0
  C  C479  1  0.675000  0.921400  0.323500  1.0
  C  C480  1  0.175000  0.578600  0.176500  1.0
  C  C481  1  0.380500  0.896800  0.624300  1.0
  C  C482  1  0.880500  0.603200  0.875700  1.0
  C  C483  1  0.619500  0.103200  0.375700  1.0
  C  C484  1  0.119500  0.396800  0.124300  1.0
  C  C485  1  0.421400  0.813800  0.604400  1.0
  C  C486  1  0.921400  0.686200  0.895600  1.0
  C  C487  1  0.578600  0.186200  0.395600  1.0
  C  C488  1  0.078600  0.313800  0.104400  1.0
  C  C489  1  0.321800  0.881200  0.766000  1.0
  C  C490  1  0.821800  0.618800  0.734000  1.0
  C  C491  1  0.678200  0.118800  0.234000  1.0
  C  C492  1  0.178200  0.381200  0.266000  1.0
  C  C493  1  0.230400  0.855800  0.731900  1.0
  C  C494  1  0.730400  0.644200  0.768100  1.0
  C  C495  1  0.769600  0.144200  0.268100  1.0
  C  C496  1  0.269600  0.355800  0.231900  1.0
  C  C497  1  0.650000  0.857500  0.051200  1.0
  C  C498  1  0.150000  0.642500  0.448800  1.0
  C  C499  1  0.350000  0.142500  0.948800  1.0
  C  C500  1  0.850000  0.357500  0.551200  1.0
  C  C501  1  0.752100  0.872800  0.047800  1.0
  C  C502  1  0.252100  0.627200  0.452200  1.0
  C  C503  1  0.247900  0.127200  0.952200  1.0
  C  C504  1  0.747900  0.372800  0.547800  1.0
  C  C505  1  0.681800  0.690600  0.993600  1.0
  C  C506  1  0.181800  0.809400  0.506400  1.0
  C  C507  1  0.318200  0.309400  0.006400  1.0
  C  C508  1  0.818200  0.190600  0.493600  1.0
  C  C509  1  0.645600  0.606100  0.977200  1.0
  C  C510  1  0.145600  0.893900  0.522800  1.0
  C  C511  1  0.354400  0.393900  0.022800  1.0
  C  C512  1  0.854400  0.106100  0.477200  1.0
  C  C513  1  0.666300  0.761600  0.152600  1.0
  C  C514  1  0.166300  0.738400  0.347400  1.0
  C  C515  1  0.333700  0.238400  0.847400  1.0
  C  C516  1  0.833700  0.261600  0.652600  1.0
  C  C517  1  0.677600  0.681900  0.171600  1.0
  C  C518  1  0.177600  0.818100  0.328400  1.0
  C  C519  1  0.322400  0.318100  0.828400  1.0
  C  C520  1  0.822400  0.181900  0.671600  1.0
  C  C521  1  0.300100  0.598400  0.981600  1.0
  C  C522  1  0.800100  0.901600  0.518400  1.0
  C  C523  1  0.699900  0.401600  0.018400  1.0
  C  C524  1  0.199900  0.098400  0.481600  1.0
  C  C525  1  0.363400  0.557600  0.919600  1.0
  C  C526  1  0.863400  0.942400  0.580400  1.0
  C  C527  1  0.636600  0.442400  0.080400  1.0
  C  C528  1  0.136600  0.057600  0.419600  1.0
  C  C529  1  0.242500  0.741700  0.095300  1.0
  C  C530  1  0.742500  0.758300  0.404700  1.0
  C  C531  1  0.757500  0.258300  0.904700  1.0
  C  C532  1  0.257500  0.241700  0.595300  1.0
  C  C533  1  0.141400  0.729400  0.089800  1.0
  C  C534  1  0.641400  0.770600  0.410200  1.0
  C  C535  1  0.858600  0.270600  0.910200  1.0
  C  C536  1  0.358600  0.229400  0.589800  1.0
  C  C537  1  0.276800  0.751500  0.943000  1.0
  C  C538  1  0.776800  0.748500  0.557000  1.0
  C  C539  1  0.723200  0.248500  0.057000  1.0
  C  C540  1  0.223200  0.251500  0.443000  1.0
  C  C541  1  0.183900  0.725700  0.911700  1.0
  C  C542  1  0.683900  0.774300  0.588300  1.0
  C  C543  1  0.816100  0.274300  0.088300  1.0
  C  C544  1  0.316100  0.225700  0.411700  1.0
  Cl  Cl545  1  0.054100  0.978200  0.861400  1
  Cl  Cl546  1  0.554100  0.521800  0.638600  1
  Cl  Cl547  1  0.945900  0.021800  0.138600  1
  Cl  Cl548  1  0.445900  0.478200  0.361400  1
  Cl  Cl549  1  0.971300  0.890500  0.948800  1
  Cl  Cl550  1  0.471300  0.609500  0.551200  1
  Cl  Cl551  1  0.028700  0.109500  0.051200  1
  Cl  Cl552  1  0.528700  0.390500  0.448800  1
  Cl  Cl553  1  0.119800  0.956100  0.992900  1
  Cl  Cl554  1  0.619800  0.543900  0.507100  1
  Cl  Cl555  1  0.880200  0.043900  0.007100  1
  Cl  Cl556  1  0.380200  0.456100  0.492900  1
  Cl  Cl557  1  0.155400  0.923600  0.955000  1
  Cl  Cl558  1  0.655400  0.576400  0.545000  1
  Cl  Cl559  1  0.844600  0.076400  0.045000  1
  Cl  Cl560  1  0.344600  0.423600  0.455000  1
  O  O561  1  0.502400  0.904100  0.848180  1.0
  O  O562  1  0.002400  0.595900  0.651820  1.0
  O  O563  1  0.497600  0.095900  0.151820  1.0
  O  O564  1  0.997600  0.404100  0.348180  1.0
  O  O565  1  0.552100  0.747800  0.715700  1.0
  O  O566  1  0.052100  0.752200  0.784300  1.0
  O  O567  1  0.447900  0.252200  0.284300  1.0
  O  O568  1  0.947900  0.247800  0.215700  1.0
  O  O569  1  0.520300  0.639100  0.831200  1.0
  O  O570  1  0.020300  0.860900  0.668800  1.0
  O  O571  1  0.479700  0.360900  0.168800  1.0
  O  O572  1  0.979700  0.139100  0.331200  1.0
  O  O573  1  0.476100  0.801300  0.958900  1.0
  O  O574  1  0.976100  0.698700  0.541100  1.0
  O  O575  1  0.523900  0.198700  0.041100  1.0
  O  O576  1  0.023900  0.301300  0.458900  1.0
