# generated using pymatgen
data_P2H56PtC27(Cl3O)2
_symmetry_space_group_name_H-M   'P 1'
_cell_length_a   14.88060000
_cell_length_b   14.88060000
_cell_length_c   23.78530000
_cell_angle_alpha   90.00000000
_cell_angle_beta   90.00000000
_cell_angle_gamma   90.00000000
_symmetry_Int_Tables_number   1
_chemical_formula_structural   P2H56PtC27(Cl3O)2
_chemical_formula_sum   'P16 H448 Pt8 C216 Cl48 O16'
_cell_volume   5266.83264720
_cell_formula_units_Z   8
loop_
 _symmetry_equiv_pos_site_id
 _symmetry_equiv_pos_as_xyz
  1  'x, y, z'
loop_
 _atom_site_type_symbol
 _atom_site_label
 _atom_site_symmetry_multiplicity
 _atom_site_fract_x
 _atom_site_fract_y
 _atom_site_fract_z
 _atom_site_occupancy
  P  P1  1  0.709600  0.476800  0.616600  1.0
  P  P2  1  0.290400  0.523200  0.616600  1.0
  P  P3  1  0.209600  0.023200  0.883400  1.0
  P  P4  1  0.790400  0.976800  0.883400  1.0
  P  P5  1  0.523200  0.290400  0.383400  1.0
  P  P6  1  0.476800  0.709600  0.383400  1.0
  P  P7  1  0.976800  0.790400  0.116600  1.0
  P  P8  1  0.023200  0.209600  0.116600  1.0
  P  P9  1  0.618000  0.754870  0.675650  1.0
  P  P10  1  0.382000  0.245130  0.675650  1.0
  P  P11  1  0.118000  0.745130  0.824350  1.0
  P  P12  1  0.882000  0.254870  0.824350  1.0
  P  P13  1  0.245130  0.382000  0.324350  1.0
  P  P14  1  0.754870  0.618000  0.324350  1.0
  P  P15  1  0.254870  0.882000  0.175650  1.0
  P  P16  1  0.745130  0.118000  0.175650  1.0
  H  H17  1  0.411200  0.778800  0.960300  1
  H  H18  1  0.588800  0.221200  0.960300  1
  H  H19  1  0.911200  0.721200  0.539700  1
  H  H20  1  0.088800  0.278800  0.539700  1
  H  H21  1  0.221200  0.588800  0.039700  1
  H  H22  1  0.778800  0.411200  0.039700  1
  H  H23  1  0.278800  0.088800  0.460300  1
  H  H24  1  0.721200  0.911200  0.460300  1
  H  H25  1  0.946300  0.552700  0.612900  1
  H  H26  1  0.053700  0.447300  0.612900  1
  H  H27  1  0.446300  0.947300  0.887100  1
  H  H28  1  0.553700  0.052700  0.887100  1
  H  H29  1  0.447300  0.053700  0.387100  1
  H  H30  1  0.552700  0.946300  0.387100  1
  H  H31  1  0.052700  0.553700  0.112900  1
  H  H32  1  0.947300  0.446300  0.112900  1
  H  H33  1  0.889700  0.506200  0.662200  1
  H  H34  1  0.110300  0.493800  0.662200  1
  H  H35  1  0.389700  0.993800  0.837800  1
  H  H36  1  0.610300  0.006200  0.837800  1
  H  H37  1  0.493800  0.110300  0.337800  1
  H  H38  1  0.506200  0.889700  0.337800  1
  H  H39  1  0.006200  0.610300  0.162200  1
  H  H40  1  0.993800  0.389700  0.162200  1
  H  H41  1  0.858400  0.601000  0.637200  1
  H  H42  1  0.141600  0.399000  0.637200  1
  H  H43  1  0.358400  0.899000  0.862800  1
  H  H44  1  0.641600  0.101000  0.862800  1
  H  H45  1  0.399000  0.141600  0.362800  1
  H  H46  1  0.601000  0.858400  0.362800  1
  H  H47  1  0.101000  0.641600  0.137200  1
  H  H48  1  0.899000  0.358400  0.137200  1
  H  H49  1  0.563900  0.885400  0.645000  1
  H  H50  1  0.436100  0.114600  0.645000  1
  H  H51  1  0.063900  0.614600  0.855000  1
  H  H52  1  0.936100  0.385400  0.855000  1
  H  H53  1  0.114600  0.436100  0.355000  1
  H  H54  1  0.885400  0.563900  0.355000  1
  H  H55  1  0.385400  0.936100  0.145000  1
  H  H56  1  0.614600  0.063900  0.145000  1
  H  H57  1  0.625500  0.840200  0.598900  1
  H  H58  1  0.374500  0.159800  0.598900  1
  H  H59  1  0.125500  0.659800  0.901100  1
  H  H60  1  0.874500  0.340200  0.901100  1
  H  H61  1  0.159800  0.374500  0.401100  1
  H  H62  1  0.840200  0.625500  0.401100  1
  H  H63  1  0.340200  0.874500  0.098900  1
  H  H64  1  0.659800  0.125500  0.098900  1
  H  H65  1  0.636000  0.468600  0.525400  1
  H  H66  1  0.364000  0.531400  0.525400  1
  H  H67  1  0.136000  0.031400  0.974600  1
  H  H68  1  0.864000  0.968600  0.974600  1
  H  H69  1  0.531400  0.364000  0.474600  1
  H  H70  1  0.468600  0.636000  0.474600  1
  H  H71  1  0.968600  0.864000  0.025400  1
  H  H72  1  0.031400  0.136000  0.025400  1
  H  H73  1  0.664600  0.369100  0.545000  1
  H  H74  1  0.335400  0.630900  0.545000  1
  H  H75  1  0.164600  0.130900  0.955000  1
  H  H76  1  0.835400  0.869100  0.955000  1
  H  H77  1  0.630900  0.335400  0.455000  1
  H  H78  1  0.369100  0.664600  0.455000  1
  H  H79  1  0.869100  0.835400  0.045000  1
  H  H80  1  0.130900  0.164600  0.045000  1
  H  H81  1  0.512700  0.388300  0.553000  1
  H  H82  1  0.487300  0.611700  0.553000  1
  H  H83  1  0.012700  0.111700  0.947000  1
  H  H84  1  0.987300  0.888300  0.947000  1
  H  H85  1  0.611700  0.487300  0.447000  1
  H  H86  1  0.388300  0.512700  0.447000  1
  H  H87  1  0.888300  0.987300  0.053000  1
  H  H88  1  0.111700  0.012700  0.053000  1
  H  H89  1  0.528900  0.472000  0.594000  1
  H  H90  1  0.471100  0.528000  0.594000  1
  H  H91  1  0.028900  0.028000  0.906000  1
  H  H92  1  0.971100  0.972000  0.906000  1
  H  H93  1  0.528000  0.471100  0.406000  1
  H  H94  1  0.472000  0.528900  0.406000  1
  H  H95  1  0.972000  0.971100  0.094000  1
  H  H96  1  0.028000  0.028900  0.094000  1
  H  H97  1  0.557300  0.373100  0.613500  1
  H  H98  1  0.442700  0.626900  0.613500  1
  H  H99  1  0.057300  0.126900  0.886500  1
  H  H100  1  0.942700  0.873100  0.886500  1
  H  H101  1  0.626900  0.442700  0.386500  1
  H  H102  1  0.373100  0.557300  0.386500  1
  H  H103  1  0.873100  0.942700  0.113500  1
  H  H104  1  0.126900  0.057300  0.113500  1
  H  H105  1  0.853900  0.434400  0.573600  1
  H  H106  1  0.146100  0.565600  0.573600  1
  H  H107  1  0.353900  0.065600  0.926400  1
  H  H108  1  0.646100  0.934400  0.926400  1
  H  H109  1  0.565600  0.146100  0.426400  1
  H  H110  1  0.434400  0.853900  0.426400  1
  H  H111  1  0.934400  0.646100  0.073600  1
  H  H112  1  0.065600  0.353900  0.073600  1
  H  H113  1  0.822300  0.529600  0.548500  1
  H  H114  1  0.177700  0.470400  0.548500  1
  H  H115  1  0.322300  0.970400  0.951500  1
  H  H116  1  0.677700  0.029600  0.951500  1
  H  H117  1  0.470400  0.177700  0.451500  1
  H  H118  1  0.529600  0.822300  0.451500  1
  H  H119  1  0.029600  0.677700  0.048500  1
  H  H120  1  0.970400  0.322300  0.048500  1
  H  H121  1  0.469400  0.735900  0.710200  1
  H  H122  1  0.530600  0.264100  0.710200  1
  H  H123  1  0.969400  0.764100  0.789800  1
  H  H124  1  0.030600  0.235900  0.789800  1
  H  H125  1  0.264100  0.530600  0.289800  1
  H  H126  1  0.735900  0.469400  0.289800  1
  H  H127  1  0.235900  0.030600  0.210200  1
  H  H128  1  0.764100  0.969400  0.210200  1
  H  H129  1  0.538400  0.733700  0.761300  1
  H  H130  1  0.461600  0.266300  0.761300  1
  H  H131  1  0.038400  0.766300  0.738700  1
  H  H132  1  0.961600  0.233700  0.738700  1
  H  H133  1  0.266300  0.461600  0.238700  1
  H  H134  1  0.733700  0.538400  0.238700  1
  H  H135  1  0.233700  0.961600  0.261300  1
  H  H136  1  0.766300  0.038400  0.261300  1
  H  H137  1  0.440000  0.854800  0.771700  1
  H  H138  1  0.560000  0.145200  0.771700  1
  H  H139  1  0.940000  0.645200  0.728300  1
  H  H140  1  0.060000  0.354800  0.728300  1
  H  H141  1  0.145200  0.560000  0.228300  1
  H  H142  1  0.854800  0.440000  0.228300  1
  H  H143  1  0.354800  0.060000  0.271700  1
  H  H144  1  0.645200  0.940000  0.271700  1
  H  H145  1  0.470200  0.894900  0.712200  1
  H  H146  1  0.529800  0.105100  0.712200  1
  H  H147  1  0.970200  0.605100  0.787800  1
  H  H148  1  0.029800  0.394900  0.787800  1
  H  H149  1  0.105100  0.529800  0.287800  1
  H  H150  1  0.894900  0.470200  0.287800  1
  H  H151  1  0.394900  0.029800  0.212200  1
  H  H152  1  0.605100  0.970200  0.212200  1
  H  H153  1  0.539800  0.892700  0.763400  1
  H  H154  1  0.460200  0.107300  0.763400  1
  H  H155  1  0.039800  0.607300  0.736600  1
  H  H156  1  0.960200  0.392700  0.736600  1
  H  H157  1  0.107300  0.460200  0.236600  1
  H  H158  1  0.892700  0.539800  0.236600  1
  H  H159  1  0.392700  0.960200  0.263400  1
  H  H160  1  0.607300  0.039800  0.263400  1
  H  H161  1  0.492100  0.871800  0.563800  1
  H  H162  1  0.507900  0.128200  0.563800  1
  H  H163  1  0.992100  0.628200  0.936200  1
  H  H164  1  0.007900  0.371800  0.936200  1
  H  H165  1  0.128200  0.507900  0.436200  1
  H  H166  1  0.871800  0.492100  0.436200  1
  H  H167  1  0.371800  0.007900  0.063800  1
  H  H168  1  0.628200  0.992100  0.063800  1
  H  H169  1  0.442700  0.812400  0.610600  1
  H  H170  1  0.557300  0.187600  0.610600  1
  H  H171  1  0.942700  0.687600  0.889400  1
  H  H172  1  0.057300  0.312400  0.889400  1
  H  H173  1  0.187600  0.557300  0.389400  1
  H  H174  1  0.812400  0.442700  0.389400  1
  H  H175  1  0.312400  0.057300  0.110600  1
  H  H176  1  0.687600  0.942700  0.110600  1
  H  H177  1  0.504800  0.765000  0.564400  1
  H  H178  1  0.495200  0.235000  0.564400  1
  H  H179  1  0.004800  0.735000  0.935600  1
  H  H180  1  0.995200  0.265000  0.935600  1
  H  H181  1  0.235000  0.495200  0.435600  1
  H  H182  1  0.765000  0.504800  0.435600  1
  H  H183  1  0.265000  0.995200  0.064400  1
  H  H184  1  0.735000  0.004800  0.064400  1
  H  H185  1  0.406200  0.726500  0.968100  1
  H  H186  1  0.593800  0.273500  0.968100  1
  H  H187  1  0.906200  0.773500  0.531900  1
  H  H188  1  0.093800  0.226500  0.531900  1
  H  H189  1  0.273500  0.593800  0.031900  1
  H  H190  1  0.726500  0.406200  0.031900  1
  H  H191  1  0.226500  0.093800  0.468100  1
  H  H192  1  0.773500  0.906200  0.468100  1
  H  H193  1  0.500000  0.500000  0.882400  1.0
  H  H194  1  0.000000  0.000000  0.617600  1.0
  H  H195  1  0.500000  0.500000  0.117600  1.0
  H  H196  1  0.000000  0.000000  0.382400  1.0
  H  H197  1  0.500000  0.500000  0.686800  1.0
  H  H198  1  0.000000  0.000000  0.813200  1.0
  H  H199  1  0.500000  0.500000  0.313200  1.0
  H  H200  1  0.000000  0.000000  0.186800  1.0
  H  H201  1  0.780400  0.609400  0.739000  1.0
  H  H202  1  0.219600  0.390600  0.739000  1.0
  H  H203  1  0.280400  0.890600  0.761000  1.0
  H  H204  1  0.719600  0.109400  0.761000  1.0
  H  H205  1  0.390600  0.219600  0.261000  1.0
  H  H206  1  0.609400  0.780400  0.261000  1.0
  H  H207  1  0.109400  0.719600  0.239000  1.0
  H  H208  1  0.890600  0.280400  0.239000  1.0
  H  H209  1  0.783900  0.581400  0.836500  1.0
  H  H210  1  0.216100  0.418600  0.836500  1.0
  H  H211  1  0.283900  0.918600  0.663500  1.0
  H  H212  1  0.716100  0.081400  0.663500  1.0
  H  H213  1  0.418600  0.216100  0.163500  1.0
  H  H214  1  0.581400  0.783900  0.163500  1.0
  H  H215  1  0.081400  0.716100  0.336500  1.0
  H  H216  1  0.918600  0.283900  0.336500  1.0
  H  H217  1  0.658100  0.544600  0.883900  1.0
  H  H218  1  0.341900  0.455400  0.883900  1.0
  H  H219  1  0.158100  0.955400  0.616100  1.0
  H  H220  1  0.841900  0.044600  0.616100  1.0
  H  H221  1  0.455400  0.341900  0.116100  1.0
  H  H222  1  0.544600  0.658100  0.116100  1.0
  H  H223  1  0.044600  0.841900  0.383900  1.0
  H  H224  1  0.955400  0.158100  0.383900  1.0
  H  H225  1  0.716800  0.399200  0.694200  1.0
  H  H226  1  0.283200  0.600800  0.694200  1.0
  H  H227  1  0.216800  0.100800  0.805800  1.0
  H  H228  1  0.783200  0.899200  0.805800  1.0
  H  H229  1  0.600800  0.283200  0.305800  1.0
  H  H230  1  0.399200  0.716800  0.305800  1.0
  H  H231  1  0.899200  0.783200  0.194200  1.0
  H  H232  1  0.100800  0.216800  0.194200  1.0
  H  H233  1  0.625200  0.381300  0.661800  1.0
  H  H234  1  0.374800  0.618700  0.661800  1.0
  H  H235  1  0.125200  0.118700  0.838200  1.0
  H  H236  1  0.874800  0.881300  0.838200  1.0
  H  H237  1  0.618700  0.374800  0.338200  1.0
  H  H238  1  0.381300  0.625200  0.338200  1.0
  H  H239  1  0.881300  0.874800  0.161800  1.0
  H  H240  1  0.118700  0.125200  0.161800  1.0
  H  H241  1  0.707100  0.249900  0.669800  1.0
  H  H242  1  0.292900  0.750100  0.669800  1.0
  H  H243  1  0.207100  0.250100  0.830200  1.0
  H  H244  1  0.792900  0.749900  0.830200  1.0
  H  H245  1  0.750100  0.292900  0.330200  1.0
  H  H246  1  0.249900  0.707100  0.330200  1.0
  H  H247  1  0.749900  0.792900  0.169800  1.0
  H  H248  1  0.250100  0.207100  0.169800  1.0
  H  H249  1  0.789300  0.294000  0.636300  1.0
  H  H250  1  0.210700  0.706000  0.636300  1.0
  H  H251  1  0.289300  0.206000  0.863700  1.0
  H  H252  1  0.710700  0.794000  0.863700  1.0
  H  H253  1  0.706000  0.210700  0.363700  1.0
  H  H254  1  0.294000  0.789300  0.363700  1.0
  H  H255  1  0.794000  0.710700  0.136300  1.0
  H  H256  1  0.206000  0.289300  0.136300  1.0
  H  H257  1  0.696200  0.275200  0.604700  1.0
  H  H258  1  0.303800  0.724800  0.604700  1.0
  H  H259  1  0.196200  0.224800  0.895300  1.0
  H  H260  1  0.803800  0.775200  0.895300  1.0
  H  H261  1  0.724800  0.303800  0.395300  1.0
  H  H262  1  0.275200  0.696200  0.395300  1.0
  H  H263  1  0.775200  0.803800  0.104700  1.0
  H  H264  1  0.224800  0.196200  0.104700  1.0
  H  H265  1  0.677400  0.449100  0.530800  1.0
  H  H266  1  0.322600  0.550900  0.530800  1.0
  H  H267  1  0.177400  0.050900  0.969200  1.0
  H  H268  1  0.822600  0.949100  0.969200  1.0
  H  H269  1  0.550900  0.322600  0.469200  1.0
  H  H270  1  0.449100  0.677400  0.469200  1.0
  H  H271  1  0.949100  0.822600  0.030800  1.0
  H  H272  1  0.050900  0.177400  0.030800  1.0
  H  H273  1  0.755200  0.520200  0.535800  1.0
  H  H274  1  0.244800  0.479800  0.535800  1.0
  H  H275  1  0.255200  0.979800  0.964200  1.0
  H  H276  1  0.744800  0.020200  0.964200  1.0
  H  H277  1  0.479800  0.244800  0.464200  1.0
  H  H278  1  0.520200  0.755200  0.464200  1.0
  H  H279  1  0.020200  0.744800  0.035800  1.0
  H  H280  1  0.979800  0.255200  0.035800  1.0
  H  H281  1  0.792400  0.409000  0.478000  1.0
  H  H282  1  0.207600  0.591000  0.478000  1.0
  H  H283  1  0.292400  0.091000  0.022000  1.0
  H  H284  1  0.707600  0.909000  0.022000  1.0
  H  H285  1  0.591000  0.207600  0.522000  1.0
  H  H286  1  0.409000  0.792400  0.522000  1.0
  H  H287  1  0.909000  0.707600  0.978000  1.0
  H  H288  1  0.091000  0.292400  0.978000  1.0
  H  H289  1  0.781100  0.336100  0.527000  1.0
  H  H290  1  0.218900  0.663900  0.527000  1.0
  H  H291  1  0.281100  0.163900  0.973000  1.0
  H  H292  1  0.718900  0.836100  0.973000  1.0
  H  H293  1  0.663900  0.218900  0.473000  1.0
  H  H294  1  0.336100  0.781100  0.473000  1.0
  H  H295  1  0.836100  0.718900  0.027000  1.0
  H  H296  1  0.163900  0.281100  0.027000  1.0
  H  H297  1  0.859500  0.409500  0.530600  1.0
  H  H298  1  0.140500  0.590500  0.530600  1.0
  H  H299  1  0.359500  0.090500  0.969400  1.0
  H  H300  1  0.640500  0.909500  0.969400  1.0
  H  H301  1  0.590500  0.140500  0.469400  1.0
  H  H302  1  0.409500  0.859500  0.469400  1.0
  H  H303  1  0.909500  0.640500  0.030600  1.0
  H  H304  1  0.090500  0.359500  0.030600  1.0
  H  H305  1  0.837000  0.464500  0.691300  1.0
  H  H306  1  0.163000  0.535500  0.691300  1.0
  H  H307  1  0.337000  0.035500  0.808700  1.0
  H  H308  1  0.663000  0.964500  0.808700  1.0
  H  H309  1  0.535500  0.163000  0.308700  1.0
  H  H310  1  0.464500  0.837000  0.308700  1.0
  H  H311  1  0.964500  0.663000  0.191300  1.0
  H  H312  1  0.035500  0.337000  0.191300  1.0
  H  H313  1  0.867300  0.408000  0.636600  1.0
  H  H314  1  0.132700  0.592000  0.636600  1.0
  H  H315  1  0.367300  0.092000  0.863400  1.0
  H  H316  1  0.632700  0.908000  0.863400  1.0
  H  H317  1  0.592000  0.132700  0.363400  1.0
  H  H318  1  0.408000  0.867300  0.363400  1.0
  H  H319  1  0.908000  0.632700  0.136600  1.0
  H  H320  1  0.092000  0.367300  0.136600  1.0
  H  H321  1  0.947900  0.542600  0.642000  1.0
  H  H322  1  0.052100  0.457400  0.642000  1.0
  H  H323  1  0.447900  0.957400  0.858000  1.0
  H  H324  1  0.552100  0.042600  0.858000  1.0
  H  H325  1  0.457400  0.052100  0.358000  1.0
  H  H326  1  0.542600  0.947900  0.358000  1.0
  H  H327  1  0.042600  0.552100  0.142000  1.0
  H  H328  1  0.957400  0.447900  0.142000  1.0
  H  H329  1  0.855500  0.597600  0.640900  1.0
  H  H330  1  0.144500  0.402400  0.640900  1.0
  H  H331  1  0.355500  0.902400  0.859100  1.0
  H  H332  1  0.644500  0.097600  0.859100  1.0
  H  H333  1  0.402400  0.144500  0.359100  1.0
  H  H334  1  0.597600  0.855500  0.359100  1.0
  H  H335  1  0.097600  0.644500  0.140900  1.0
  H  H336  1  0.902400  0.355500  0.140900  1.0
  H  H337  1  0.886100  0.541300  0.586900  1.0
  H  H338  1  0.113900  0.458700  0.586900  1.0
  H  H339  1  0.386100  0.958700  0.913100  1.0
  H  H340  1  0.613900  0.041300  0.913100  1.0
  H  H341  1  0.458700  0.113900  0.413100  1.0
  H  H342  1  0.541300  0.886100  0.413100  1.0
  H  H343  1  0.041300  0.613900  0.086900  1.0
  H  H344  1  0.958700  0.386100  0.086900  1.0
  H  H345  1  0.601500  0.733500  0.773500  1.0
  H  H346  1  0.398500  0.266500  0.773500  1.0
  H  H347  1  0.101500  0.766500  0.726500  1.0
  H  H348  1  0.898500  0.233500  0.726500  1.0
  H  H349  1  0.266500  0.398500  0.226500  1.0
  H  H350  1  0.733500  0.601500  0.226500  1.0
  H  H351  1  0.233500  0.898500  0.273500  1.0
  H  H352  1  0.766500  0.101500  0.273500  1.0
  H  H353  1  0.568400  0.832400  0.756600  1.0
  H  H354  1  0.431600  0.167600  0.756600  1.0
  H  H355  1  0.068400  0.667600  0.743400  1.0
  H  H356  1  0.931600  0.332400  0.743400  1.0
  H  H357  1  0.167600  0.431600  0.243400  1.0
  H  H358  1  0.832400  0.568400  0.243400  1.0
  H  H359  1  0.332400  0.931600  0.256600  1.0
  H  H360  1  0.667600  0.068400  0.256600  1.0
  H  H361  1  0.444400  0.742600  0.781600  1.0
  H  H362  1  0.555600  0.257400  0.781600  1.0
  H  H363  1  0.944400  0.757400  0.718400  1.0
  H  H364  1  0.055600  0.242600  0.718400  1.0
  H  H365  1  0.257400  0.555600  0.218400  1.0
  H  H366  1  0.742600  0.444400  0.218400  1.0
  H  H367  1  0.242600  0.055600  0.281600  1.0
  H  H368  1  0.757400  0.944400  0.281600  1.0
  H  H369  1  0.470000  0.672300  0.733300  1.0
  H  H370  1  0.530000  0.327700  0.733300  1.0
  H  H371  1  0.970000  0.827700  0.766700  1.0
  H  H372  1  0.030000  0.172300  0.766700  1.0
  H  H373  1  0.327700  0.530000  0.266700  1.0
  H  H374  1  0.672300  0.470000  0.266700  1.0
  H  H375  1  0.172300  0.030000  0.233300  1.0
  H  H376  1  0.827700  0.970000  0.233300  1.0
  H  H377  1  0.436800  0.771200  0.716900  1.0
  H  H378  1  0.563200  0.228800  0.716900  1.0
  H  H379  1  0.936800  0.728800  0.783100  1.0
  H  H380  1  0.063200  0.271200  0.783100  1.0
  H  H381  1  0.228800  0.563200  0.283100  1.0
  H  H382  1  0.771200  0.436800  0.283100  1.0
  H  H383  1  0.271200  0.063200  0.216900  1.0
  H  H384  1  0.728800  0.936800  0.216900  1.0
  H  H385  1  0.700600  0.875700  0.706600  1.0
  H  H386  1  0.299400  0.124300  0.706600  1.0
  H  H387  1  0.200600  0.624300  0.793400  1.0
  H  H388  1  0.799400  0.375700  0.793400  1.0
  H  H389  1  0.124300  0.299400  0.293400  1.0
  H  H390  1  0.875700  0.700600  0.293400  1.0
  H  H391  1  0.375700  0.799400  0.206600  1.0
  H  H392  1  0.624300  0.200600  0.206600  1.0
  H  H393  1  0.740200  0.784600  0.731800  1.0
  H  H394  1  0.259800  0.215400  0.731800  1.0
  H  H395  1  0.240200  0.715400  0.768200  1.0
  H  H396  1  0.759800  0.284600  0.768200  1.0
  H  H397  1  0.215400  0.259800  0.268200  1.0
  H  H398  1  0.784600  0.740200  0.268200  1.0
  H  H399  1  0.284600  0.759800  0.231800  1.0
  H  H400  1  0.715400  0.240200  0.231800  1.0
  H  H401  1  0.843300  0.850000  0.671900  1.0
  H  H402  1  0.156700  0.150000  0.671900  1.0
  H  H403  1  0.343300  0.650000  0.828100  1.0
  H  H404  1  0.656700  0.350000  0.828100  1.0
  H  H405  1  0.150000  0.156700  0.328100  1.0
  H  H406  1  0.850000  0.843300  0.328100  1.0
  H  H407  1  0.350000  0.656700  0.171900  1.0
  H  H408  1  0.650000  0.343300  0.171900  1.0
  H  H409  1  0.772500  0.847100  0.621300  1.0
  H  H410  1  0.227500  0.152900  0.621300  1.0
  H  H411  1  0.272500  0.652900  0.878700  1.0
  H  H412  1  0.727500  0.347100  0.878700  1.0
  H  H413  1  0.152900  0.227500  0.378700  1.0
  H  H414  1  0.847100  0.772500  0.378700  1.0
  H  H415  1  0.347100  0.727500  0.121300  1.0
  H  H416  1  0.652900  0.272500  0.121300  1.0
  H  H417  1  0.812000  0.755500  0.646400  1.0
  H  H418  1  0.188000  0.244500  0.646400  1.0
  H  H419  1  0.312000  0.744500  0.853600  1.0
  H  H420  1  0.688000  0.255500  0.853600  1.0
  H  H421  1  0.244500  0.188000  0.353600  1.0
  H  H422  1  0.755500  0.812000  0.353600  1.0
  H  H423  1  0.255500  0.688000  0.146400  1.0
  H  H424  1  0.744500  0.312000  0.146400  1.0
  H  H425  1  0.622600  0.839400  0.596700  1.0
  H  H426  1  0.377400  0.160600  0.596700  1.0
  H  H427  1  0.122600  0.660600  0.903300  1.0
  H  H428  1  0.877400  0.339400  0.903300  1.0
  H  H429  1  0.160600  0.377400  0.403300  1.0
  H  H430  1  0.839400  0.622600  0.403300  1.0
  H  H431  1  0.339400  0.877400  0.096700  1.0
  H  H432  1  0.660600  0.122600  0.096700  1.0
  H  H433  1  0.525600  0.796300  0.604700  1.0
  H  H434  1  0.474400  0.203700  0.604700  1.0
  H  H435  1  0.025600  0.703700  0.895300  1.0
  H  H436  1  0.974400  0.296300  0.895300  1.0
  H  H437  1  0.203700  0.474400  0.395300  1.0
  H  H438  1  0.796300  0.525600  0.395300  1.0
  H  H439  1  0.296300  0.974400  0.104700  1.0
  H  H440  1  0.703700  0.025600  0.104700  1.0
  H  H441  1  0.518600  0.948300  0.608700  1.0
  H  H442  1  0.481400  0.051700  0.608700  1.0
  H  H443  1  0.018600  0.551700  0.891300  1.0
  H  H444  1  0.981400  0.448300  0.891300  1.0
  H  H445  1  0.051700  0.481400  0.391300  1.0
  H  H446  1  0.948300  0.518600  0.391300  1.0
  H  H447  1  0.448300  0.981400  0.108700  1.0
  H  H448  1  0.551700  0.018600  0.108700  1.0
  H  H449  1  0.587000  0.949600  0.660600  1.0
  H  H450  1  0.413000  0.050400  0.660600  1.0
  H  H451  1  0.087000  0.550400  0.839400  1.0
  H  H452  1  0.913000  0.449600  0.839400  1.0
  H  H453  1  0.050400  0.413000  0.339400  1.0
  H  H454  1  0.949600  0.587000  0.339400  1.0
  H  H455  1  0.449600  0.913000  0.160600  1.0
  H  H456  1  0.550400  0.087000  0.160600  1.0
  H  H457  1  0.489200  0.906500  0.667900  1.0
  H  H458  1  0.510800  0.093500  0.667900  1.0
  H  H459  1  0.989200  0.593500  0.832100  1.0
  H  H460  1  0.010800  0.406500  0.832100  1.0
  H  H461  1  0.093500  0.510800  0.332100  1.0
  H  H462  1  0.906500  0.489200  0.332100  1.0
  H  H463  1  0.406500  0.010800  0.167900  1.0
  H  H464  1  0.593500  0.989200  0.167900  1.0
  Pt  Pt465  1  0.651510  0.611900  0.644574  1.0
  Pt  Pt466  1  0.348490  0.388100  0.644574  1.0
  Pt  Pt467  1  0.151510  0.888100  0.855426  1.0
  Pt  Pt468  1  0.848490  0.111900  0.855426  1.0
  Pt  Pt469  1  0.388100  0.348490  0.355426  1.0
  Pt  Pt470  1  0.611900  0.651510  0.355426  1.0
  Pt  Pt471  1  0.111900  0.848490  0.144574  1.0
  Pt  Pt472  1  0.888100  0.151510  0.144574  1.0
  C  C473  1  0.469800  0.748000  0.967400  1
  C  C474  1  0.530200  0.252000  0.967400  1
  C  C475  1  0.969800  0.752000  0.532600  1
  C  C476  1  0.030200  0.248000  0.532600  1
  C  C477  1  0.252000  0.530200  0.032600  1
  C  C478  1  0.748000  0.469800  0.032600  1
  C  C479  1  0.248000  0.030200  0.467400  1
  C  C480  1  0.752000  0.969800  0.467400  1
  C  C481  1  0.639000  0.427000  0.557800  1
  C  C482  1  0.361000  0.573000  0.557800  1
  C  C483  1  0.139000  0.073000  0.942200  1
  C  C484  1  0.861000  0.927000  0.942200  1
  C  C485  1  0.573000  0.361000  0.442200  1
  C  C486  1  0.427000  0.639000  0.442200  1
  C  C487  1  0.927000  0.861000  0.057800  1
  C  C488  1  0.073000  0.139000  0.057800  1
  C  C489  1  0.552900  0.414100  0.581400  1
  C  C490  1  0.447100  0.585900  0.581400  1
  C  C491  1  0.052900  0.085900  0.918600  1
  C  C492  1  0.947100  0.914100  0.918600  1
  C  C493  1  0.585900  0.447100  0.418600  1
  C  C494  1  0.414100  0.552900  0.418600  1
  C  C495  1  0.914100  0.947100  0.081400  1
  C  C496  1  0.085900  0.052900  0.081400  1
  C  C497  1  0.827000  0.493200  0.583200  1
  C  C498  1  0.173000  0.506800  0.583200  1
  C  C499  1  0.327000  0.006800  0.916800  1
  C  C500  1  0.673000  0.993200  0.916800  1
  C  C501  1  0.506800  0.173000  0.416800  1
  C  C502  1  0.493200  0.827000  0.416800  1
  C  C503  1  0.993200  0.673000  0.083200  1
  C  C504  1  0.006800  0.327000  0.083200  1
  C  C505  1  0.522000  0.767100  0.726800  1
  C  C506  1  0.478000  0.232900  0.726800  1
  C  C507  1  0.022000  0.732900  0.773200  1
  C  C508  1  0.978000  0.267100  0.773200  1
  C  C509  1  0.232900  0.478000  0.273200  1
  C  C510  1  0.767100  0.522000  0.273200  1
  C  C511  1  0.267100  0.978000  0.226800  1
  C  C512  1  0.732900  0.022000  0.226800  1
  C  C513  1  0.490100  0.860900  0.745200  1
  C  C514  1  0.509900  0.139100  0.745200  1
  C  C515  1  0.990100  0.639100  0.754800  1
  C  C516  1  0.009900  0.360900  0.754800  1
  C  C517  1  0.139100  0.509900  0.254800  1
  C  C518  1  0.860900  0.490100  0.254800  1
  C  C519  1  0.360900  0.009900  0.245200  1
  C  C520  1  0.639100  0.990100  0.245200  1
  C  C521  1  0.497200  0.819000  0.587900  1
  C  C522  1  0.502800  0.181000  0.587900  1
  C  C523  1  0.997200  0.681000  0.912100  1
  C  C524  1  0.002800  0.319000  0.912100  1
  C  C525  1  0.181000  0.502800  0.412100  1
  C  C526  1  0.819000  0.497200  0.412100  1
  C  C527  1  0.319000  0.002800  0.087900  1
  C  C528  1  0.681000  0.997200  0.087900  1
  C  C529  1  0.500000  0.500000  0.842400  1.0
  C  C530  1  0.000000  0.000000  0.657600  1.0
  C  C531  1  0.500000  0.500000  0.157600  1.0
  C  C532  1  0.000000  0.000000  0.342400  1.0
  C  C533  1  0.500000  0.500000  0.726800  1.0
  C  C534  1  0.000000  0.000000  0.773200  1.0
  C  C535  1  0.500000  0.500000  0.273200  1.0
  C  C536  1  0.000000  0.000000  0.226800  1.0
  C  C537  1  0.706200  0.682900  0.529200  1.0
  C  C538  1  0.293800  0.317100  0.529200  1.0
  C  C539  1  0.206200  0.817100  0.970800  1.0
  C  C540  1  0.793800  0.182900  0.970800  1.0
  C  C541  1  0.317100  0.293800  0.470800  1.0
  C  C542  1  0.682900  0.706200  0.470800  1.0
  C  C543  1  0.182900  0.793800  0.029200  1.0
  C  C544  1  0.817100  0.206200  0.029200  1.0
  C  C545  1  0.653600  0.572600  0.725500  1.0
  C  C546  1  0.346400  0.427400  0.725500  1.0
  C  C547  1  0.153600  0.927400  0.774500  1.0
  C  C548  1  0.846400  0.072600  0.774500  1.0
  C  C549  1  0.427400  0.346400  0.274500  1.0
  C  C550  1  0.572600  0.653600  0.274500  1.0
  C  C551  1  0.072600  0.846400  0.225500  1.0
  C  C552  1  0.927400  0.153600  0.225500  1.0
  C  C553  1  0.727600  0.588000  0.757000  1.0
  C  C554  1  0.272400  0.412000  0.757000  1.0
  C  C555  1  0.227600  0.912000  0.743000  1.0
  C  C556  1  0.772400  0.088000  0.743000  1.0
  C  C557  1  0.412000  0.272400  0.243000  1.0
  C  C558  1  0.588000  0.727600  0.243000  1.0
  C  C559  1  0.088000  0.772400  0.257000  1.0
  C  C560  1  0.912000  0.227600  0.257000  1.0
  C  C561  1  0.729200  0.573200  0.816500  1.0
  C  C562  1  0.270800  0.426800  0.816500  1.0
  C  C563  1  0.229200  0.926800  0.683500  1.0
  C  C564  1  0.770800  0.073200  0.683500  1.0
  C  C565  1  0.426800  0.270800  0.183500  1.0
  C  C566  1  0.573200  0.729200  0.183500  1.0
  C  C567  1  0.073200  0.770800  0.316500  1.0
  C  C568  1  0.926800  0.229200  0.316500  1.0
  C  C569  1  0.656700  0.548400  0.844100  1.0
  C  C570  1  0.343300  0.451600  0.844100  1.0
  C  C571  1  0.156700  0.951600  0.655900  1.0
  C  C572  1  0.843300  0.048400  0.655900  1.0
  C  C573  1  0.451600  0.343300  0.155900  1.0
  C  C574  1  0.548400  0.656700  0.155900  1.0
  C  C575  1  0.048400  0.843300  0.344100  1.0
  C  C576  1  0.951600  0.156700  0.344100  1.0
  C  C577  1  0.576700  0.527300  0.814700  1.0
  C  C578  1  0.423300  0.472700  0.814700  1.0
  C  C579  1  0.076700  0.972700  0.685300  1.0
  C  C580  1  0.923300  0.027300  0.685300  1.0
  C  C581  1  0.472700  0.423300  0.185300  1.0
  C  C582  1  0.527300  0.576700  0.185300  1.0
  C  C583  1  0.027300  0.923300  0.314700  1.0
  C  C584  1  0.972700  0.076700  0.314700  1.0
  C  C585  1  0.576600  0.533100  0.754300  1.0
  C  C586  1  0.423400  0.466900  0.754300  1.0
  C  C587  1  0.076600  0.966900  0.745700  1.0
  C  C588  1  0.923400  0.033100  0.745700  1.0
  C  C589  1  0.466900  0.423400  0.245700  1.0
  C  C590  1  0.533100  0.576600  0.245700  1.0
  C  C591  1  0.033100  0.923400  0.254300  1.0
  C  C592  1  0.966900  0.076600  0.254300  1.0
  C  C593  1  0.691000  0.385900  0.656700  1.0
  C  C594  1  0.309000  0.614100  0.656700  1.0
  C  C595  1  0.191000  0.114100  0.843300  1.0
  C  C596  1  0.809000  0.885900  0.843300  1.0
  C  C597  1  0.614100  0.309000  0.343300  1.0
  C  C598  1  0.385900  0.691000  0.343300  1.0
  C  C599  1  0.885900  0.809000  0.156700  1.0
  C  C600  1  0.114100  0.191000  0.156700  1.0
  C  C601  1  0.723800  0.293100  0.640400  1.0
  C  C602  1  0.276200  0.706900  0.640400  1.0
  C  C603  1  0.223800  0.206900  0.859600  1.0
  C  C604  1  0.776200  0.793100  0.859600  1.0
  C  C605  1  0.706900  0.276200  0.359600  1.0
  C  C606  1  0.293100  0.723800  0.359600  1.0
  C  C607  1  0.793100  0.776200  0.140400  1.0
  C  C608  1  0.206900  0.223800  0.140400  1.0
  C  C609  1  0.736300  0.459900  0.548900  1.0
  C  C610  1  0.263700  0.540100  0.548900  1.0
  C  C611  1  0.236300  0.040100  0.951100  1.0
  C  C612  1  0.763700  0.959900  0.951100  1.0
  C  C613  1  0.540100  0.263700  0.451100  1.0
  C  C614  1  0.459900  0.736300  0.451100  1.0
  C  C615  1  0.959900  0.763700  0.048900  1.0
  C  C616  1  0.040100  0.236300  0.048900  1.0
  C  C617  1  0.797000  0.398000  0.518600  1.0
  C  C618  1  0.203000  0.602000  0.518600  1.0
  C  C619  1  0.297000  0.102000  0.981400  1.0
  C  C620  1  0.703000  0.898000  0.981400  1.0
  C  C621  1  0.602000  0.203000  0.481400  1.0
  C  C622  1  0.398000  0.797000  0.481400  1.0
  C  C623  1  0.898000  0.703000  0.018600  1.0
  C  C624  1  0.102000  0.297000  0.018600  1.0
  C  C625  1  0.838400  0.464200  0.649600  1.0
  C  C626  1  0.161600  0.535800  0.649600  1.0
  C  C627  1  0.338400  0.035800  0.850400  1.0
  C  C628  1  0.661600  0.964200  0.850400  1.0
  C  C629  1  0.535800  0.161600  0.350400  1.0
  C  C630  1  0.464200  0.838400  0.350400  1.0
  C  C631  1  0.964200  0.661600  0.149600  1.0
  C  C632  1  0.035800  0.338400  0.149600  1.0
  C  C633  1  0.885900  0.542900  0.628100  1.0
  C  C634  1  0.114100  0.457100  0.628100  1.0
  C  C635  1  0.385900  0.957100  0.871900  1.0
  C  C636  1  0.614100  0.042900  0.871900  1.0
  C  C637  1  0.457100  0.114100  0.371900  1.0
  C  C638  1  0.542900  0.885900  0.371900  1.0
  C  C639  1  0.042900  0.614100  0.128100  1.0
  C  C640  1  0.957100  0.385900  0.128100  1.0
  C  C641  1  0.566900  0.768300  0.745500  1.0
  C  C642  1  0.433100  0.231700  0.745500  1.0
  C  C643  1  0.066900  0.731700  0.754500  1.0
  C  C644  1  0.933100  0.268300  0.754500  1.0
  C  C645  1  0.231700  0.433100  0.254500  1.0
  C  C646  1  0.768300  0.566900  0.254500  1.0
  C  C647  1  0.268300  0.933100  0.245500  1.0
  C  C648  1  0.731700  0.066900  0.245500  1.0
  C  C649  1  0.471200  0.736000  0.744200  1.0
  C  C650  1  0.528800  0.264000  0.744200  1.0
  C  C651  1  0.971200  0.764000  0.755800  1.0
  C  C652  1  0.028800  0.236000  0.755800  1.0
  C  C653  1  0.264000  0.528800  0.255800  1.0
  C  C654  1  0.736000  0.471200  0.255800  1.0
  C  C655  1  0.236000  0.028800  0.244200  1.0
  C  C656  1  0.764000  0.971200  0.244200  1.0
  C  C657  1  0.717500  0.813200  0.697000  1.0
  C  C658  1  0.282500  0.186800  0.697000  1.0
  C  C659  1  0.217500  0.686800  0.803000  1.0
  C  C660  1  0.782500  0.313200  0.803000  1.0
  C  C661  1  0.186800  0.282500  0.303000  1.0
  C  C662  1  0.813200  0.717500  0.303000  1.0
  C  C663  1  0.313200  0.782500  0.197000  1.0
  C  C664  1  0.686800  0.217500  0.197000  1.0
  C  C665  1  0.792800  0.816700  0.655600  1.0
  C  C666  1  0.207200  0.183300  0.655600  1.0
  C  C667  1  0.292800  0.683300  0.844400  1.0
  C  C668  1  0.707200  0.316700  0.844400  1.0
  C  C669  1  0.183300  0.207200  0.344400  1.0
  C  C670  1  0.816700  0.792800  0.344400  1.0
  C  C671  1  0.316700  0.707200  0.155600  1.0
  C  C672  1  0.683300  0.292800  0.155600  1.0
  C  C673  1  0.574500  0.828400  0.624600  1.0
  C  C674  1  0.425500  0.171600  0.624600  1.0
  C  C675  1  0.074500  0.671600  0.875400  1.0
  C  C676  1  0.925500  0.328400  0.875400  1.0
  C  C677  1  0.171600  0.425500  0.375400  1.0
  C  C678  1  0.828400  0.574500  0.375400  1.0
  C  C679  1  0.328400  0.925500  0.124600  1.0
  C  C680  1  0.671600  0.074500  0.124600  1.0
  C  C681  1  0.539000  0.915300  0.641800  1.0
  C  C682  1  0.461000  0.084700  0.641800  1.0
  C  C683  1  0.039000  0.584700  0.858200  1.0
  C  C684  1  0.961000  0.415300  0.858200  1.0
  C  C685  1  0.084700  0.461000  0.358200  1.0
  C  C686  1  0.915300  0.539000  0.358200  1.0
  C  C687  1  0.415300  0.961000  0.141800  1.0
  C  C688  1  0.584700  0.039000  0.141800  1.0
  Cl  Cl689  1  0.527300  0.733600  0.906900  1
  Cl  Cl690  1  0.472700  0.266400  0.906900  1
  Cl  Cl691  1  0.027300  0.766400  0.593100  1
  Cl  Cl692  1  0.972700  0.233600  0.593100  1
  Cl  Cl693  1  0.266400  0.472700  0.093100  1
  Cl  Cl694  1  0.733600  0.527300  0.093100  1
  Cl  Cl695  1  0.233600  0.972700  0.406900  1
  Cl  Cl696  1  0.766400  0.027300  0.406900  1
  Cl  Cl697  1  0.527100  0.798900  0.022700  1
  Cl  Cl698  1  0.472900  0.201100  0.022700  1
  Cl  Cl699  1  0.027100  0.701100  0.477300  1
  Cl  Cl700  1  0.972900  0.298900  0.477300  1
  Cl  Cl701  1  0.201100  0.472900  0.977300  1
  Cl  Cl702  1  0.798900  0.527100  0.977300  1
  Cl  Cl703  1  0.298900  0.972900  0.522700  1
  Cl  Cl704  1  0.701100  0.027100  0.522700  1
  Cl  Cl705  1  0.451800  0.633400  0.995100  1
  Cl  Cl706  1  0.548200  0.366600  0.995100  1
  Cl  Cl707  1  0.951800  0.866600  0.504900  1
  Cl  Cl708  1  0.048200  0.133400  0.504900  1
  Cl  Cl709  1  0.366600  0.548200  0.004900  1
  Cl  Cl710  1  0.633400  0.451800  0.004900  1
  Cl  Cl711  1  0.133400  0.048200  0.495100  1
  Cl  Cl712  1  0.866600  0.951800  0.495100  1
  Cl  Cl713  1  0.508700  0.775300  0.899200  1
  Cl  Cl714  1  0.491300  0.224700  0.899200  1
  Cl  Cl715  1  0.008700  0.724700  0.600800  1
  Cl  Cl716  1  0.991300  0.275300  0.600800  1
  Cl  Cl717  1  0.224700  0.491300  0.100800  1
  Cl  Cl718  1  0.775300  0.508700  0.100800  1
  Cl  Cl719  1  0.275300  0.991300  0.399200  1
  Cl  Cl720  1  0.724700  0.008700  0.399200  1
  Cl  Cl721  1  0.489300  0.836600  0.011600  1
  Cl  Cl722  1  0.510700  0.163400  0.011600  1
  Cl  Cl723  1  0.989300  0.663400  0.488400  1
  Cl  Cl724  1  0.010700  0.336600  0.488400  1
  Cl  Cl725  1  0.163400  0.510700  0.988400  1
  Cl  Cl726  1  0.836600  0.489300  0.988400  1
  Cl  Cl727  1  0.336600  0.010700  0.511600  1
  Cl  Cl728  1  0.663400  0.989300  0.511600  1
  Cl  Cl729  1  0.549300  0.664100  0.989000  1
  Cl  Cl730  1  0.450700  0.335900  0.989000  1
  Cl  Cl731  1  0.049300  0.835900  0.511000  1
  Cl  Cl732  1  0.950700  0.164100  0.511000  1
  Cl  Cl733  1  0.335900  0.450700  0.011000  1
  Cl  Cl734  1  0.664100  0.549300  0.011000  1
  Cl  Cl735  1  0.164100  0.950700  0.489000  1
  Cl  Cl736  1  0.835900  0.049300  0.489000  1
  O  O737  1  0.642100  0.655500  0.559800  1.0
  O  O738  1  0.357900  0.344500  0.559800  1.0
  O  O739  1  0.142100  0.844500  0.940200  1.0
  O  O740  1  0.857900  0.155500  0.940200  1.0
  O  O741  1  0.344500  0.357900  0.440200  1.0
  O  O742  1  0.655500  0.642100  0.440200  1.0
  O  O743  1  0.155500  0.857900  0.059800  1.0
  O  O744  1  0.844500  0.142100  0.059800  1.0
  O  O745  1  0.782400  0.687400  0.544000  1.0
  O  O746  1  0.217600  0.312600  0.544000  1.0
  O  O747  1  0.282400  0.812600  0.956000  1.0
  O  O748  1  0.717600  0.187400  0.956000  1.0
  O  O749  1  0.312600  0.217600  0.456000  1.0
  O  O750  1  0.687400  0.782400  0.456000  1.0
  O  O751  1  0.187400  0.717600  0.044000  1.0
  O  O752  1  0.812600  0.282400  0.044000  1.0
