# generated using pymatgen
data_P4H70Pt2C45Cl8O5
_symmetry_space_group_name_H-M   'P 1'
_cell_length_a   14.19000000
_cell_length_b   19.76220000
_cell_length_c   19.97980000
_cell_angle_alpha   97.28340000
_cell_angle_beta   90.00000000
_cell_angle_gamma   90.00000000
_symmetry_Int_Tables_number   1
_chemical_formula_structural   P4H70Pt2C45Cl8O5
_chemical_formula_sum   'P16 H280 Pt8 C180 Cl32 O20'
_cell_volume   5557.63958691
_cell_formula_units_Z   4
loop_
 _symmetry_equiv_pos_site_id
 _symmetry_equiv_pos_as_xyz
  1  'x, y, z'
loop_
 _atom_site_type_symbol
 _atom_site_label
 _atom_site_symmetry_multiplicity
 _atom_site_fract_x
 _atom_site_fract_y
 _atom_site_fract_z
 _atom_site_occupancy
  P  P1  1  0.963340  0.757750  0.112660  1.0
  P  P2  1  0.463340  0.742250  0.387340  1.0
  P  P3  1  0.036660  0.242250  0.887340  1.0
  P  P4  1  0.536660  0.257750  0.612660  1.0
  P  P5  1  0.643870  0.794500  0.116720  1.0
  P  P6  1  0.143870  0.705500  0.383280  1.0
  P  P7  1  0.356130  0.205500  0.883280  1.0
  P  P8  1  0.856130  0.294500  0.616720  1.0
  P  P9  1  0.089000  0.850590  0.774900  1.0
  P  P10  1  0.589000  0.649410  0.725100  1.0
  P  P11  1  0.911000  0.149410  0.225100  1.0
  P  P12  1  0.411000  0.350590  0.274900  1.0
  P  P13  1  0.803830  0.919250  0.697420  1.0
  P  P14  1  0.303830  0.580750  0.802580  1.0
  P  P15  1  0.196170  0.080750  0.302580  1.0
  P  P16  1  0.696170  0.419250  0.197420  1.0
  H  H17  1  0.746900  0.506200  0.470600  1
  H  H18  1  0.246900  0.993800  0.029400  1
  H  H19  1  0.253100  0.493800  0.529400  1
  H  H20  1  0.753100  0.006200  0.970600  1
  H  H21  1  0.859300  0.605400  0.906900  1
  H  H22  1  0.359300  0.894600  0.593100  1
  H  H23  1  0.140700  0.394600  0.093100  1
  H  H24  1  0.640700  0.105400  0.406900  1
  H  H25  1  0.998400  0.881700  0.590400  1.0
  H  H26  1  0.498400  0.618300  0.909600  1.0
  H  H27  1  0.001600  0.118300  0.409600  1.0
  H  H28  1  0.501600  0.381700  0.090400  1.0
  H  H29  1  0.064800  0.952700  0.520000  1.0
  H  H30  1  0.564800  0.547300  0.980000  1.0
  H  H31  1  0.935200  0.047300  0.480000  1.0
  H  H32  1  0.435200  0.452700  0.020000  1.0
  H  H33  1  0.134200  0.064100  0.501700  1.0
  H  H34  1  0.634200  0.435900  0.998300  1.0
  H  H35  1  0.865800  0.935900  0.498300  1.0
  H  H36  1  0.365800  0.564100  0.001700  1.0
  H  H37  1  0.185900  0.170500  0.543400  1.0
  H  H38  1  0.685900  0.329500  0.956600  1.0
  H  H39  1  0.814100  0.829500  0.456600  1.0
  H  H40  1  0.314100  0.670500  0.043400  1.0
  H  H41  1  0.225000  0.257100  0.642400  1.0
  H  H42  1  0.725000  0.242900  0.857600  1.0
  H  H43  1  0.775000  0.742900  0.357600  1.0
  H  H44  1  0.275000  0.757100  0.142400  1.0
  H  H45  1  0.237100  0.287600  0.758000  1.0
  H  H46  1  0.737100  0.212400  0.742000  1.0
  H  H47  1  0.762900  0.712400  0.242000  1.0
  H  H48  1  0.262900  0.787600  0.258000  1.0
  H  H49  1  0.866800  0.895900  0.209900  1.0
  H  H50  1  0.366800  0.604100  0.290100  1.0
  H  H51  1  0.133200  0.104100  0.790100  1.0
  H  H52  1  0.633200  0.395900  0.709900  1.0
  H  H53  1  0.047200  0.022400  0.751400  1.0
  H  H54  1  0.547200  0.477600  0.748600  1.0
  H  H55  1  0.952800  0.977600  0.248600  1.0
  H  H56  1  0.452800  0.522400  0.251400  1.0
  H  H57  1  0.967700  0.681200  0.013300  1.0
  H  H58  1  0.467700  0.818800  0.486700  1.0
  H  H59  1  0.032300  0.318800  0.986700  1.0
  H  H60  1  0.532300  0.181200  0.513300  1.0
  H  H61  1  0.996900  0.755700  0.997800  1.0
  H  H62  1  0.496900  0.744300  0.502200  1.0
  H  H63  1  0.003100  0.244300  0.002200  1.0
  H  H64  1  0.503100  0.255700  0.497800  1.0
  H  H65  1  0.127000  0.681800  0.980400  1.0
  H  H66  1  0.627000  0.818200  0.519600  1.0
  H  H67  1  0.873000  0.318200  0.019600  1.0
  H  H68  1  0.373000  0.181800  0.480400  1.0
  H  H69  1  0.120500  0.665300  0.056700  1.0
  H  H70  1  0.620500  0.834700  0.443300  1.0
  H  H71  1  0.879500  0.334700  0.943300  1.0
  H  H72  1  0.379500  0.165300  0.556700  1.0
  H  H73  1  0.149800  0.740100  0.041500  1.0
  H  H74  1  0.649800  0.759900  0.458500  1.0
  H  H75  1  0.850200  0.259900  0.958500  1.0
  H  H76  1  0.350200  0.240100  0.541500  1.0
  H  H77  1  0.067200  0.690800  0.167400  1.0
  H  H78  1  0.567200  0.809200  0.332600  1.0
  H  H79  1  0.932800  0.309200  0.832600  1.0
  H  H80  1  0.432800  0.190800  0.667400  1.0
  H  H81  1  0.983400  0.718000  0.217300  1.0
  H  H82  1  0.483400  0.782000  0.282700  1.0
  H  H83  1  0.016600  0.282000  0.782700  1.0
  H  H84  1  0.516600  0.218000  0.717300  1.0
  H  H85  1  0.970600  0.599200  0.188500  1.0
  H  H86  1  0.470600  0.900800  0.311500  1.0
  H  H87  1  0.029400  0.400800  0.811500  1.0
  H  H88  1  0.529400  0.099200  0.688500  1.0
  H  H89  1  0.964700  0.608500  0.110200  1.0
  H  H90  1  0.464700  0.891500  0.389800  1.0
  H  H91  1  0.035300  0.391500  0.889800  1.0
  H  H92  1  0.535300  0.108500  0.610200  1.0
  H  H93  1  0.880900  0.635600  0.160200  1.0
  H  H94  1  0.380900  0.864400  0.339800  1.0
  H  H95  1  0.119100  0.364400  0.839800  1.0
  H  H96  1  0.619100  0.135600  0.660200  1.0
  H  H97  1  0.026000  0.849700  0.185800  1.0
  H  H98  1  0.526000  0.650300  0.314200  1.0
  H  H99  1  0.974000  0.150300  0.814200  1.0
  H  H100  1  0.474000  0.349700  0.685800  1.0
  H  H101  1  0.105200  0.818700  0.133600  1.0
  H  H102  1  0.605200  0.681300  0.366400  1.0
  H  H103  1  0.894800  0.181300  0.866400  1.0
  H  H104  1  0.394800  0.318700  0.633600  1.0
  H  H105  1  0.062000  0.928300  0.110400  1.0
  H  H106  1  0.562000  0.571700  0.389600  1.0
  H  H107  1  0.938000  0.071700  0.889600  1.0
  H  H108  1  0.438000  0.428300  0.610400  1.0
  H  H109  1  0.954700  0.904300  0.099900  1.0
  H  H110  1  0.454700  0.595700  0.400100  1.0
  H  H111  1  0.045300  0.095700  0.900100  1.0
  H  H112  1  0.545300  0.404300  0.599900  1.0
  H  H113  1  0.033800  0.873300  0.047700  1.0
  H  H114  1  0.533800  0.626700  0.452300  1.0
  H  H115  1  0.966200  0.126700  0.952300  1.0
  H  H116  1  0.466200  0.373300  0.547700  1.0
  H  H117  1  0.601900  0.718200  0.192200  1.0
  H  H118  1  0.101900  0.781800  0.307800  1.0
  H  H119  1  0.398100  0.281800  0.807800  1.0
  H  H120  1  0.898100  0.218200  0.692200  1.0
  H  H121  1  0.513900  0.731200  0.145400  1.0
  H  H122  1  0.013900  0.768800  0.354600  1.0
  H  H123  1  0.486100  0.268800  0.854600  1.0
  H  H124  1  0.986100  0.231200  0.645400  1.0
  H  H125  1  0.568800  0.618700  0.118300  1.0
  H  H126  1  0.068800  0.881300  0.381700  1.0
  H  H127  1  0.431200  0.381300  0.881700  1.0
  H  H128  1  0.931200  0.118700  0.618300  1.0
  H  H129  1  0.670900  0.646500  0.101400  1.0
  H  H130  1  0.170900  0.853500  0.398600  1.0
  H  H131  1  0.329100  0.353500  0.898600  1.0
  H  H132  1  0.829100  0.146500  0.601400  1.0
  H  H133  1  0.582700  0.659400  0.054700  1.0
  H  H134  1  0.082700  0.840600  0.445300  1.0
  H  H135  1  0.417300  0.340600  0.945300  1.0
  H  H136  1  0.917300  0.159400  0.554700  1.0
  H  H137  1  0.531100  0.867000  0.173000  1.0
  H  H138  1  0.031100  0.633000  0.327000  1.0
  H  H139  1  0.468900  0.133000  0.827000  1.0
  H  H140  1  0.968900  0.367000  0.673000  1.0
  H  H141  1  0.621700  0.862800  0.219900  1.0
  H  H142  1  0.121700  0.637200  0.280100  1.0
  H  H143  1  0.378300  0.137200  0.780100  1.0
  H  H144  1  0.878300  0.362800  0.719900  1.0
  H  H145  1  0.610100  0.973000  0.186700  1.0
  H  H146  1  0.110100  0.527000  0.313300  1.0
  H  H147  1  0.389900  0.027000  0.813300  1.0
  H  H148  1  0.889900  0.473000  0.686700  1.0
  H  H149  1  0.613700  0.941300  0.108900  1.0
  H  H150  1  0.113700  0.558700  0.391100  1.0
  H  H151  1  0.386300  0.058700  0.891100  1.0
  H  H152  1  0.886300  0.441300  0.608900  1.0
  H  H153  1  0.704400  0.937100  0.155800  1.0
  H  H154  1  0.204400  0.562900  0.344200  1.0
  H  H155  1  0.295600  0.062900  0.844200  1.0
  H  H156  1  0.795600  0.437100  0.655800  1.0
  H  H157  1  0.615600  0.845600  0.019300  1.0
  H  H158  1  0.115600  0.654400  0.480700  1.0
  H  H159  1  0.384400  0.154400  0.980700  1.0
  H  H160  1  0.884400  0.345600  0.519300  1.0
  H  H161  1  0.617100  0.764600  0.001300  1.0
  H  H162  1  0.117100  0.735400  0.498700  1.0
  H  H163  1  0.382900  0.235400  0.998700  1.0
  H  H164  1  0.882900  0.264600  0.501300  1.0
  H  H165  1  0.466600  0.806100  0.984200  1.0
  H  H166  1  0.966600  0.693900  0.515800  1.0
  H  H167  1  0.533400  0.193900  0.015800  1.0
  H  H168  1  0.033400  0.306100  0.484200  1.0
  H  H169  1  0.461400  0.840000  0.061200  1.0
  H  H170  1  0.961400  0.660000  0.438800  1.0
  H  H171  1  0.538600  0.160000  0.938800  1.0
  H  H172  1  0.038600  0.340000  0.561200  1.0
  H  H173  1  0.462900  0.758700  0.043400  1.0
  H  H174  1  0.962900  0.741300  0.456600  1.0
  H  H175  1  0.537100  0.241300  0.956600  1.0
  H  H176  1  0.037100  0.258700  0.543400  1.0
  H  H177  1  0.198700  0.879000  0.696500  1.0
  H  H178  1  0.698700  0.621000  0.803500  1.0
  H  H179  1  0.801300  0.121000  0.303500  1.0
  H  H180  1  0.301300  0.379000  0.196500  1.0
  H  H181  1  0.191400  0.938800  0.757900  1.0
  H  H182  1  0.691400  0.561200  0.742100  1.0
  H  H183  1  0.808600  0.061200  0.242100  1.0
  H  H184  1  0.308600  0.438800  0.257900  1.0
  H  H185  1  0.342100  0.888500  0.756300  1.0
  H  H186  1  0.842100  0.611500  0.743700  1.0
  H  H187  1  0.657900  0.111500  0.243700  1.0
  H  H188  1  0.157900  0.388500  0.256300  1.0
  H  H189  1  0.296300  0.815700  0.762900  1.0
  H  H190  1  0.796300  0.684300  0.737100  1.0
  H  H191  1  0.703700  0.184300  0.237100  1.0
  H  H192  1  0.203700  0.315700  0.262900  1.0
  H  H193  1  0.289200  0.875800  0.824300  1.0
  H  H194  1  0.789200  0.624200  0.675700  1.0
  H  H195  1  0.710800  0.124200  0.175700  1.0
  H  H196  1  0.210800  0.375800  0.324300  1.0
  H  H197  1  0.164300  0.744700  0.761700  1.0
  H  H198  1  0.664300  0.755300  0.738300  1.0
  H  H199  1  0.835700  0.255300  0.238300  1.0
  H  H200  1  0.335700  0.244700  0.261700  1.0
  H  H201  1  0.053400  0.734900  0.771500  1.0
  H  H202  1  0.553400  0.765100  0.728500  1.0
  H  H203  1  0.946600  0.265100  0.228500  1.0
  H  H204  1  0.446600  0.234900  0.271500  1.0
  H  H205  1  0.096800  0.691900  0.659900  1.0
  H  H206  1  0.596800  0.808100  0.840100  1.0
  H  H207  1  0.903200  0.308100  0.340100  1.0
  H  H208  1  0.403200  0.191900  0.159900  1.0
  H  H209  1  0.138300  0.764800  0.648300  1.0
  H  H210  1  0.638300  0.735200  0.851700  1.0
  H  H211  1  0.861700  0.235200  0.351700  1.0
  H  H212  1  0.361700  0.264800  0.148300  1.0
  H  H213  1  0.027400  0.755500  0.658000  1.0
  H  H214  1  0.527400  0.744500  0.842000  1.0
  H  H215  1  0.972600  0.244500  0.342000  1.0
  H  H216  1  0.472600  0.255500  0.158000  1.0
  H  H217  1  0.046200  0.833800  0.885400  1.0
  H  H218  1  0.546200  0.666200  0.614600  1.0
  H  H219  1  0.953800  0.166200  0.114600  1.0
  H  H220  1  0.453800  0.333800  0.385400  1.0
  H  H221  1  0.158400  0.839700  0.879900  1.0
  H  H222  1  0.658400  0.660300  0.620100  1.0
  H  H223  1  0.841600  0.160300  0.120100  1.0
  H  H224  1  0.341600  0.339700  0.379900  1.0
  H  H225  1  0.097700  0.938200  0.947000  1.0
  H  H226  1  0.597700  0.561800  0.553000  1.0
  H  H227  1  0.902300  0.061800  0.053000  1.0
  H  H228  1  0.402300  0.438200  0.447000  1.0
  H  H229  1  0.032400  0.954400  0.885700  1.0
  H  H230  1  0.532400  0.545600  0.614300  1.0
  H  H231  1  0.967600  0.045600  0.114300  1.0
  H  H232  1  0.467600  0.454400  0.385700  1.0
  H  H233  1  0.144500  0.960400  0.880200  1.0
  H  H234  1  0.644500  0.539600  0.619800  1.0
  H  H235  1  0.855500  0.039600  0.119800  1.0
  H  H236  1  0.355500  0.460400  0.380200  1.0
  H  H237  1  0.706400  0.875600  0.607700  1.0
  H  H238  1  0.206400  0.624400  0.892300  1.0
  H  H239  1  0.293600  0.124400  0.392300  1.0
  H  H240  1  0.793600  0.375600  0.107700  1.0
  H  H241  1  0.811500  0.884000  0.581300  1.0
  H  H242  1  0.311500  0.616000  0.918700  1.0
  H  H243  1  0.188500  0.116000  0.418700  1.0
  H  H244  1  0.688500  0.384000  0.081300  1.0
  H  H245  1  0.771100  0.769000  0.572500  1.0
  H  H246  1  0.271100  0.731000  0.927500  1.0
  H  H247  1  0.228900  0.231000  0.427500  1.0
  H  H248  1  0.728900  0.269000  0.072500  1.0
  H  H249  1  0.751100  0.775900  0.651900  1.0
  H  H250  1  0.251100  0.724100  0.848100  1.0
  H  H251  1  0.248900  0.224100  0.348100  1.0
  H  H252  1  0.748900  0.275900  0.151900  1.0
  H  H253  1  0.856100  0.784200  0.624800  1.0
  H  H254  1  0.356100  0.715800  0.875200  1.0
  H  H255  1  0.143900  0.215800  0.375200  1.0
  H  H256  1  0.643900  0.284200  0.124800  1.0
  H  H257  1  0.704400  0.863900  0.766100  1.0
  H  H258  1  0.204400  0.636100  0.733900  1.0
  H  H259  1  0.295600  0.136100  0.233900  1.0
  H  H260  1  0.795600  0.363900  0.266100  1.0
  H  H261  1  0.718000  0.941600  0.797400  1.0
  H  H262  1  0.218000  0.558400  0.702600  1.0
  H  H263  1  0.282000  0.058400  0.202600  1.0
  H  H264  1  0.782000  0.441600  0.297400  1.0
  H  H265  1  0.561200  0.922100  0.765300  1.0
  H  H266  1  0.061200  0.577900  0.734700  1.0
  H  H267  1  0.438800  0.077900  0.234700  1.0
  H  H268  1  0.938800  0.422100  0.265300  1.0
  H  H269  1  0.592800  0.897200  0.689300  1.0
  H  H270  1  0.092800  0.602800  0.810700  1.0
  H  H271  1  0.407200  0.102800  0.310700  1.0
  H  H272  1  0.907200  0.397200  0.189300  1.0
  H  H273  1  0.606600  0.975200  0.720400  1.0
  H  H274  1  0.106600  0.524800  0.779600  1.0
  H  H275  1  0.393400  0.024800  0.279600  1.0
  H  H276  1  0.893400  0.475200  0.220400  1.0
  H  H277  1  0.847700  0.012900  0.643800  1.0
  H  H278  1  0.347700  0.487100  0.856200  1.0
  H  H279  1  0.152300  0.987100  0.356200  1.0
  H  H280  1  0.652300  0.512900  0.143800  1.0
  H  H281  1  0.735800  0.012200  0.654100  1.0
  H  H282  1  0.235800  0.487800  0.845900  1.0
  H  H283  1  0.264200  0.987800  0.345900  1.0
  H  H284  1  0.764200  0.512200  0.154100  1.0
  H  H285  1  0.802300  0.105100  0.724600  1.0
  H  H286  1  0.302300  0.394900  0.775400  1.0
  H  H287  1  0.197700  0.894900  0.275400  1.0
  H  H288  1  0.697700  0.605100  0.224600  1.0
  H  H289  1  0.867600  0.054000  0.760000  1.0
  H  H290  1  0.367600  0.446000  0.740000  1.0
  H  H291  1  0.132400  0.946000  0.240000  1.0
  H  H292  1  0.632400  0.554000  0.260000  1.0
  H  H293  1  0.755800  0.053200  0.770400  1.0
  H  H294  1  0.255800  0.446800  0.729600  1.0
  H  H295  1  0.244200  0.946800  0.229600  1.0
  H  H296  1  0.744200  0.553200  0.270400  1.0
  Pt  Pt297  1  0.804117  0.778891  0.112578  1.0
  Pt  Pt298  1  0.304117  0.721109  0.387422  1.0
  Pt  Pt299  1  0.195883  0.221109  0.887422  1.0
  Pt  Pt300  1  0.695883  0.278891  0.612578  1.0
  Pt  Pt301  1  0.946303  0.887316  0.738439  1.0
  Pt  Pt302  1  0.446303  0.612684  0.761561  1.0
  Pt  Pt303  1  0.053697  0.112684  0.261561  1.0
  Pt  Pt304  1  0.553697  0.387316  0.238439  1.0
  C  C305  1  0.804200  0.534500  0.465500  1
  C  C306  1  0.304200  0.965500  0.034500  1
  C  C307  1  0.195800  0.465500  0.534500  1
  C  C308  1  0.695800  0.034500  0.965500  1
  C  C309  1  0.872700  0.559600  0.921000  1
  C  C310  1  0.372700  0.940400  0.579000  1
  C  C311  1  0.127300  0.440400  0.079000  1
  C  C312  1  0.627300  0.059600  0.421000  1
  C  C313  1  0.816600  0.788500  0.961400  1.0
  C  C314  1  0.316600  0.711500  0.538600  1.0
  C  C315  1  0.183400  0.211500  0.038600  1.0
  C  C316  1  0.683400  0.288500  0.461400  1.0
  C  C317  1  0.814200  0.863500  0.968100  1.0
  C  C318  1  0.314200  0.636500  0.531900  1.0
  C  C319  1  0.185800  0.136500  0.031900  1.0
  C  C320  1  0.685800  0.363500  0.468100  1.0
  C  C321  1  0.841400  0.883200  0.901300  1.0
  C  C322  1  0.341400  0.616800  0.598700  1.0
  C  C323  1  0.158600  0.116800  0.098700  1.0
  C  C324  1  0.658600  0.383200  0.401300  1.0
  C  C325  1  0.857500  0.819900  0.855300  1.0
  C  C326  1  0.357500  0.680100  0.644700  1.0
  C  C327  1  0.142500  0.180100  0.144700  1.0
  C  C328  1  0.642500  0.319900  0.355300  1.0
  C  C329  1  0.840600  0.761400  0.891900  1.0
  C  C330  1  0.340600  0.738600  0.608100  1.0
  C  C331  1  0.159400  0.238600  0.108100  1.0
  C  C332  1  0.659400  0.261400  0.391900  1.0
  C  C333  1  0.011700  0.946300  0.679000  1.0
  C  C334  1  0.511700  0.553700  0.821000  1.0
  C  C335  1  0.988300  0.053700  0.321000  1.0
  C  C336  1  0.488300  0.446300  0.179000  1.0
  C  C337  1  0.020600  0.925400  0.608900  1.0
  C  C338  1  0.520600  0.574600  0.891100  1.0
  C  C339  1  0.979400  0.074600  0.391100  1.0
  C  C340  1  0.479400  0.425400  0.108900  1.0
  C  C341  1  0.061100  0.967500  0.567100  1.0
  C  C342  1  0.561100  0.532500  0.932900  1.0
  C  C343  1  0.938900  0.032500  0.432900  1.0
  C  C344  1  0.438900  0.467500  0.067100  1.0
  C  C345  1  0.097100  0.032000  0.592500  1.0
  C  C346  1  0.597100  0.468000  0.907500  1.0
  C  C347  1  0.902900  0.968000  0.407500  1.0
  C  C348  1  0.402900  0.532000  0.092500  1.0
  C  C349  1  0.133100  0.077800  0.549100  1.0
  C  C350  1  0.633100  0.422200  0.950900  1.0
  C  C351  1  0.866900  0.922200  0.450900  1.0
  C  C352  1  0.366900  0.577800  0.049100  1.0
  C  C353  1  0.165600  0.140100  0.573700  1.0
  C  C354  1  0.665600  0.359900  0.926300  1.0
  C  C355  1  0.834400  0.859900  0.426300  1.0
  C  C356  1  0.334400  0.640100  0.073700  1.0
  C  C357  1  0.170000  0.161300  0.645200  1.0
  C  C358  1  0.670000  0.338700  0.854800  1.0
  C  C359  1  0.830000  0.838700  0.354800  1.0
  C  C360  1  0.330000  0.661300  0.145200  1.0
  C  C361  1  0.205900  0.225800  0.672100  1.0
  C  C362  1  0.705900  0.274200  0.827900  1.0
  C  C363  1  0.794100  0.774200  0.327900  1.0
  C  C364  1  0.294100  0.725800  0.172100  1.0
  C  C365  1  0.213600  0.243700  0.741100  1.0
  C  C366  1  0.713600  0.256300  0.758900  1.0
  C  C367  1  0.786400  0.756300  0.258900  1.0
  C  C368  1  0.286400  0.743700  0.241100  1.0
  C  C369  1  0.813000  0.802100  0.213100  1.0
  C  C370  1  0.313000  0.697900  0.286900  1.0
  C  C371  1  0.187000  0.197900  0.786900  1.0
  C  C372  1  0.687000  0.302100  0.713100  1.0
  C  C373  1  0.849200  0.864400  0.239910  1.0
  C  C374  1  0.349200  0.635600  0.260090  1.0
  C  C375  1  0.150800  0.135600  0.760090  1.0
  C  C376  1  0.650800  0.364400  0.739910  1.0
  C  C377  1  0.138700  0.116500  0.690520  1.0
  C  C378  1  0.638700  0.383500  0.809480  1.0
  C  C379  1  0.861300  0.883500  0.309480  1.0
  C  C380  1  0.361300  0.616500  0.190520  1.0
  C  C381  1  0.095100  0.051600  0.663110  1.0
  C  C382  1  0.595100  0.448400  0.836890  1.0
  C  C383  1  0.904900  0.948400  0.336890  1.0
  C  C384  1  0.404900  0.551600  0.163110  1.0
  C  C385  1  0.050600  0.008300  0.704200  1.0
  C  C386  1  0.550600  0.491700  0.795800  1.0
  C  C387  1  0.949400  0.991700  0.295800  1.0
  C  C388  1  0.449400  0.508300  0.204200  1.0
  C  C389  1  0.006500  0.721600  0.029500  1.0
  C  C390  1  0.506500  0.778400  0.470500  1.0
  C  C391  1  0.993500  0.278400  0.970500  1.0
  C  C392  1  0.493500  0.221600  0.529500  1.0
  C  C393  1  0.110300  0.700300  0.026800  1.0
  C  C394  1  0.610300  0.799700  0.473200  1.0
  C  C395  1  0.889700  0.299700  0.973200  1.0
  C  C396  1  0.389700  0.200300  0.526800  1.0
  C  C397  1  0.998200  0.697800  0.170500  1.0
  C  C398  1  0.498200  0.802200  0.329500  1.0
  C  C399  1  0.001800  0.302200  0.829500  1.0
  C  C400  1  0.501800  0.197800  0.670500  1.0
  C  C401  1  0.949300  0.629200  0.156100  1.0
  C  C402  1  0.449300  0.870800  0.343900  1.0
  C  C403  1  0.050700  0.370800  0.843900  1.0
  C  C404  1  0.550700  0.129200  0.656100  1.0
  C  C405  1  0.038200  0.832600  0.137800  1.0
  C  C406  1  0.538200  0.667400  0.362200  1.0
  C  C407  1  0.961800  0.167400  0.862200  1.0
  C  C408  1  0.461800  0.332600  0.637800  1.0
  C  C409  1  0.020600  0.889700  0.095200  1.0
  C  C410  1  0.520600  0.610300  0.404800  1.0
  C  C411  1  0.979400  0.110300  0.904800  1.0
  C  C412  1  0.479400  0.389700  0.595200  1.0
  C  C413  1  0.582600  0.722500  0.145300  1.0
  C  C414  1  0.082600  0.777500  0.354700  1.0
  C  C415  1  0.417400  0.277500  0.854700  1.0
  C  C416  1  0.917400  0.222500  0.645300  1.0
  C  C417  1  0.603100  0.655900  0.101000  1.0
  C  C418  1  0.103100  0.844100  0.399000  1.0
  C  C419  1  0.396900  0.344100  0.899000  1.0
  C  C420  1  0.896900  0.155900  0.601000  1.0
  C  C421  1  0.600900  0.867400  0.173400  1.0
  C  C422  1  0.100900  0.632600  0.326600  1.0
  C  C423  1  0.399100  0.132600  0.826600  1.0
  C  C424  1  0.899100  0.367400  0.673400  1.0
  C  C425  1  0.635400  0.935800  0.154500  1.0
  C  C426  1  0.135400  0.564200  0.345500  1.0
  C  C427  1  0.364600  0.064200  0.845500  1.0
  C  C428  1  0.864600  0.435800  0.654500  1.0
  C  C429  1  0.592900  0.802400  0.033900  1.0
  C  C430  1  0.092900  0.697600  0.466100  1.0
  C  C431  1  0.407100  0.197600  0.966100  1.0
  C  C432  1  0.907100  0.302400  0.533900  1.0
  C  C433  1  0.486600  0.801800  0.030400  1.0
  C  C434  1  0.986600  0.698200  0.469600  1.0
  C  C435  1  0.513400  0.198200  0.969600  1.0
  C  C436  1  0.013400  0.301800  0.530400  1.0
  C  C437  1  0.196000  0.888700  0.746300  1.0
  C  C438  1  0.696000  0.611300  0.753700  1.0
  C  C439  1  0.804000  0.111300  0.253700  1.0
  C  C440  1  0.304000  0.388700  0.246300  1.0
  C  C441  1  0.289400  0.865000  0.775000  1.0
  C  C442  1  0.789400  0.635000  0.725000  1.0
  C  C443  1  0.710600  0.135000  0.225000  1.0
  C  C444  1  0.210600  0.365000  0.275000  1.0
  C  C445  1  0.101300  0.759800  0.748100  1.0
  C  C446  1  0.601300  0.740200  0.751900  1.0
  C  C447  1  0.898700  0.240200  0.251900  1.0
  C  C448  1  0.398700  0.259800  0.248100  1.0
  C  C449  1  0.089900  0.741300  0.671700  1.0
  C  C450  1  0.589900  0.758700  0.828300  1.0
  C  C451  1  0.910100  0.258700  0.328300  1.0
  C  C452  1  0.410100  0.241300  0.171700  1.0
  C  C453  1  0.098000  0.859500  0.867000  1.0
  C  C454  1  0.598000  0.640500  0.633000  1.0
  C  C455  1  0.902000  0.140500  0.133000  1.0
  C  C456  1  0.402000  0.359500  0.367000  1.0
  C  C457  1  0.092700  0.935000  0.897800  1.0
  C  C458  1  0.592700  0.565000  0.602200  1.0
  C  C459  1  0.907300  0.065000  0.102200  1.0
  C  C460  1  0.407300  0.435000  0.397800  1.0
  C  C461  1  0.773600  0.867900  0.617700  1.0
  C  C462  1  0.273600  0.632100  0.882300  1.0
  C  C463  1  0.226400  0.132100  0.382300  1.0
  C  C464  1  0.726400  0.367900  0.117700  1.0
  C  C465  1  0.789300  0.792700  0.616600  1.0
  C  C466  1  0.289300  0.707300  0.883400  1.0
  C  C467  1  0.210700  0.207300  0.383400  1.0
  C  C468  1  0.710700  0.292700  0.116600  1.0
  C  C469  1  0.705400  0.911300  0.755000  1.0
  C  C470  1  0.205400  0.588700  0.745000  1.0
  C  C471  1  0.294600  0.088700  0.245000  1.0
  C  C472  1  0.794600  0.411300  0.255000  1.0
  C  C473  1  0.607900  0.927900  0.730300  1.0
  C  C474  1  0.107900  0.572100  0.769700  1.0
  C  C475  1  0.392100  0.072100  0.269700  1.0
  C  C476  1  0.892100  0.427900  0.230300  1.0
  C  C477  1  0.797000  0.005800  0.676300  1.0
  C  C478  1  0.297000  0.494200  0.823700  1.0
  C  C479  1  0.203000  0.994200  0.323700  1.0
  C  C480  1  0.703000  0.505800  0.176300  1.0
  C  C481  1  0.806500  0.059300  0.738400  1.0
  C  C482  1  0.306500  0.440700  0.761600  1.0
  C  C483  1  0.193500  0.940700  0.261600  1.0
  C  C484  1  0.693500  0.559300  0.238400  1.0
  Cl  Cl485  1  0.840080  0.570620  0.545770  1
  Cl  Cl486  1  0.340080  0.929380  0.954230  1
  Cl  Cl487  1  0.159920  0.429380  0.454230  1
  Cl  Cl488  1  0.659920  0.070620  0.045770  1
  Cl  Cl489  1  0.777500  0.593100  0.411700  1
  Cl  Cl490  1  0.277500  0.906900  0.088300  1
  Cl  Cl491  1  0.222500  0.406900  0.588300  1
  Cl  Cl492  1  0.722500  0.093100  0.911700  1
  Cl  Cl493  1  0.896670  0.479600  0.431850  1
  Cl  Cl494  1  0.396670  0.020400  0.068150  1
  Cl  Cl495  1  0.103330  0.520400  0.568150  1
  Cl  Cl496  1  0.603330  0.979600  0.931850  1
  Cl  Cl497  1  0.811340  0.553510  0.996390  1
  Cl  Cl498  1  0.311340  0.946490  0.503610  1
  Cl  Cl499  1  0.188660  0.446490  0.003610  1
  Cl  Cl500  1  0.688660  0.053510  0.496390  1
  Cl  Cl501  1  0.993590  0.553380  0.933330  1
  Cl  Cl502  1  0.493590  0.946620  0.566670  1
  Cl  Cl503  1  0.006410  0.446620  0.066670  1
  Cl  Cl504  1  0.506410  0.053380  0.433330  1
  Cl  Cl505  1  0.835430  0.497690  0.856440  1
  Cl  Cl506  1  0.335430  0.002310  0.643560  1
  Cl  Cl507  1  0.164570  0.502310  0.143560  1
  Cl  Cl508  1  0.664570  0.997690  0.356440  1
  Cl  Cl509  1  0.757200  0.616000  0.450000  1
  Cl  Cl510  1  0.257200  0.884000  0.050000  1
  Cl  Cl511  1  0.242800  0.384000  0.550000  1
  Cl  Cl512  1  0.742800  0.116000  0.950000  1
  Cl  Cl513  1  0.890000  0.511800  0.408000  1
  Cl  Cl514  1  0.390000  0.988200  0.092000  1
  Cl  Cl515  1  0.110000  0.488200  0.592000  1
  Cl  Cl516  1  0.610000  0.011800  0.908000  1
  O  O517  1  0.801000  0.750210  0.006280  1.0
  O  O518  1  0.301000  0.749790  0.493720  1.0
  O  O519  1  0.199000  0.249790  0.993720  1.0
  O  O520  1  0.699000  0.250210  0.506280  1.0
  O  O521  1  0.793600  0.902950  0.018430  1.0
  O  O522  1  0.293600  0.597050  0.481570  1.0
  O  O523  1  0.206400  0.097050  0.981570  1.0
  O  O524  1  0.706400  0.402950  0.518430  1.0
  O  O525  1  0.848400  0.941850  0.887470  1.0
  O  O526  1  0.348400  0.558150  0.612530  1.0
  O  O527  1  0.151600  0.058150  0.112530  1.0
  O  O528  1  0.651600  0.441850  0.387470  1.0
  O  O529  1  0.883000  0.814160  0.794750  1.0
  O  O530  1  0.383000  0.685840  0.705250  1.0
  O  O531  1  0.117000  0.185840  0.205250  1.0
  O  O532  1  0.617000  0.314160  0.294750  1.0
  O  O533  1  0.848700  0.700420  0.869340  1.0
  O  O534  1  0.348700  0.799580  0.630660  1.0
  O  O535  1  0.151300  0.299580  0.130660  1.0
  O  O536  1  0.651300  0.200420  0.369340  1.0
