# generated using pymatgen
data_FeB7H28C19N
_symmetry_space_group_name_H-M   'P 1'
_cell_length_a   9.63350000
_cell_length_b   10.56380000
_cell_length_c   11.05740000
_cell_angle_alpha   113.37000000
_cell_angle_beta   90.00000000
_cell_angle_gamma   90.00000000
_symmetry_Int_Tables_number   1
_chemical_formula_structural   FeB7H28C19N
_chemical_formula_sum   'Fe2 B14 H56 C38 N2'
_cell_volume   1032.95691412
_cell_formula_units_Z   2
loop_
 _symmetry_equiv_pos_site_id
 _symmetry_equiv_pos_as_xyz
  1  'x, y, z'
loop_
 _atom_site_type_symbol
 _atom_site_label
 _atom_site_symmetry_multiplicity
 _atom_site_fract_x
 _atom_site_fract_y
 _atom_site_fract_z
 _atom_site_occupancy
  Fe  Fe1  1  0.554940  0.679090  0.775150  1
  Fe  Fe2  1  0.054940  0.320910  0.224850  1
  B  B3  1  0.848800  0.853200  0.771400  1
  B  B4  1  0.348800  0.146800  0.228600  1
  B  B5  1  0.857900  0.699100  0.627000  1
  B  B6  1  0.357900  0.300900  0.373000  1
  B  B7  1  0.695500  0.775700  0.681000  1
  B  B8  1  0.195500  0.224300  0.319000  1
  B  B9  1  0.701300  0.847500  0.864200  1
  B  B10  1  0.201300  0.152500  0.135800  1
  B  B11  1  0.863800  0.813900  0.910000  1
  B  B12  1  0.363800  0.186100  0.090000  1
  B  B13  1  0.952700  0.708600  0.765000  1
  B  B14  1  0.452700  0.291400  0.235000  1
  B  B15  1  0.844300  0.562700  0.684500  1
  B  B16  1  0.344300  0.437300  0.315500  1
  H  H17  1  0.888900  0.951200  0.773300  1
  H  H18  1  0.388900  0.048800  0.226700  1
  H  H19  1  0.912200  0.694100  0.538000  1
  H  H20  1  0.412200  0.305900  0.462000  1
  H  H21  1  0.639000  0.824500  0.624000  1
  H  H22  1  0.139000  0.175500  0.376000  1
  H  H23  1  0.647500  0.943100  0.926400  1
  H  H24  1  0.147500  0.056900  0.073600  1
  H  H25  1  0.921300  0.881600  0.997700  1
  H  H26  1  0.421300  0.118400  0.002300  1
  H  H27  1  0.066900  0.703900  0.760700  1
  H  H28  1  0.566900  0.296100  0.239300  1
  H  H29  1  0.664800  0.552500  0.543700  1
  H  H30  1  0.164800  0.447500  0.456300  1
  H  H31  1  0.899100  0.596200  0.901000  1
  H  H32  1  0.399100  0.403800  0.099000  1
  H  H33  1  0.892200  0.458200  0.629400  1
  H  H34  1  0.392200  0.541800  0.370600  1
  H  H35  1  0.432400  0.180300  0.608000  1
  H  H36  1  0.932400  0.819700  0.392000  1
  H  H37  1  0.415600  0.208800  0.757600  1
  H  H38  1  0.915600  0.791200  0.242400  1
  H  H39  1  0.483600  0.070900  0.661000  1
  H  H40  1  0.983600  0.929100  0.339000  1
  H  H41  1  0.773800  0.264300  0.839600  1
  H  H42  1  0.273800  0.735700  0.160400  1
  H  H43  1  0.690300  0.128700  0.814000  1
  H  H44  1  0.190300  0.871300  0.186000  1
  H  H45  1  0.627800  0.272000  0.904800  1
  H  H46  1  0.127800  0.728000  0.095200  1
  H  H47  1  0.722000  0.081400  0.563500  1
  H  H48  1  0.222000  0.918600  0.436500  1
  H  H49  1  0.797600  0.224300  0.610000  1
  H  H50  1  0.297600  0.775700  0.390000  1
  H  H51  1  0.667700  0.195000  0.517400  1
  H  H52  1  0.167700  0.805000  0.482600  1
  H  H53  1  0.640000  0.935800  0.129100  1
  H  H54  1  0.140000  0.064200  0.870900  1
  H  H55  1  0.574700  0.944100  0.335300  1
  H  H56  1  0.074700  0.055900  0.664700  1
  H  H57  1  0.574600  0.746200  0.373800  1
  H  H58  1  0.074600  0.253800  0.626200  1
  H  H59  1  0.629900  0.537900  0.208500  1
  H  H60  1  0.129900  0.462100  0.791500  1
  H  H61  1  0.697000  0.529300  0.005000  1
  H  H62  1  0.197000  0.470700  0.995000  1
  H  H63  1  0.345300  0.614000  0.907700  1
  H  H64  1  0.845300  0.386000  0.092300  1
  H  H65  1  0.338300  0.511500  0.656100  1
  H  H66  1  0.838300  0.488500  0.343900  1
  H  H67  1  0.385800  0.701100  0.580800  1
  H  H68  1  0.885800  0.298900  0.419200  1
  H  H69  1  0.426900  0.922000  0.786200  1
  H  H70  1  0.926900  0.078000  0.213800  1
  H  H71  1  0.404000  0.861700  0.982400  1
  H  H72  1  0.904000  0.138300  0.017600  1
  C  C73  1  0.710800  0.613400  0.628700  1
  C  C74  1  0.210800  0.386600  0.371300  1
  C  C75  1  0.719700  0.725300  0.910500  1
  C  C76  1  0.219700  0.274700  0.089500  1
  C  C77  1  0.849500  0.640100  0.847300  1
  C  C78  1  0.349500  0.359900  0.152700  1
  C  C79  1  0.584900  0.499100  0.757200  1
  C  C80  1  0.084900  0.500900  0.242800  1
  C  C81  1  0.614700  0.235000  0.709300  1
  C  C82  1  0.114700  0.765000  0.290700  1
  C  C83  1  0.473400  0.167700  0.681500  1
  C  C84  1  0.973400  0.832300  0.318500  1
  C  C85  1  0.682700  0.223800  0.827700  1
  C  C86  1  0.182700  0.776200  0.172300  1
  C  C87  1  0.709200  0.178300  0.589100  1
  C  C88  1  0.209200  0.821700  0.410900  1
  C  C89  1  0.676600  0.731400  0.044700  1
  C  C90  1  0.176600  0.268600  0.955300  1
  C  C91  1  0.639100  0.855300  0.144600  1
  C  C92  1  0.139100  0.144700  0.855400  1
  C  C93  1  0.600000  0.860700  0.268500  1
  C  C94  1  0.100000  0.139300  0.731500  1
  C  C95  1  0.598900  0.742200  0.291000  1
  C  C96  1  0.098900  0.257800  0.709000  1
  C  C97  1  0.633200  0.618000  0.193000  1
  C  C98  1  0.133200  0.382000  0.807000  1
  C  C99  1  0.672500  0.613600  0.071000  1
  C  C100  1  0.172500  0.386400  0.929000  1
  C  C101  1  0.361100  0.661100  0.853500  1
  C  C102  1  0.861100  0.338900  0.146500  1
  C  C103  1  0.356200  0.603200  0.710200  1
  C  C104  1  0.856200  0.396800  0.289800  1
  C  C105  1  0.383500  0.709400  0.667500  1
  C  C106  1  0.883500  0.290600  0.332500  1
  C  C107  1  0.406700  0.835300  0.784300  1
  C  C108  1  0.906700  0.164700  0.215700  1
  C  C109  1  0.393300  0.800500  0.895200  1
  C  C110  1  0.893300  0.199500  0.104800  1
  N  N111  1  0.596200  0.383000  0.740100  1
  N  N112  1  0.096200  0.617000  0.259900  1
