# generated using pymatgen
data_CdH26C30Br2(N3O4)2
_symmetry_space_group_name_H-M   'P 1'
_cell_length_a   11.64107162
_cell_length_b   11.64107162
_cell_length_c   13.58350000
_cell_angle_alpha   109.01953744
_cell_angle_beta   109.01953744
_cell_angle_gamma   98.80027729
_symmetry_Int_Tables_number   1
_chemical_formula_structural   CdH26C30Br2(N3O4)2
_chemical_formula_sum   'Cd2 H52 C60 Br4 N12 O16'
_cell_volume   1574.56486892
_cell_formula_units_Z   2
loop_
 _symmetry_equiv_pos_site_id
 _symmetry_equiv_pos_as_xyz
  1  'x, y, z'
loop_
 _atom_site_type_symbol
 _atom_site_label
 _atom_site_symmetry_multiplicity
 _atom_site_fract_x
 _atom_site_fract_y
 _atom_site_fract_z
 _atom_site_occupancy
  Br  Br1  1  0.425190  0.216450  0.175600  1.0
  Br  Br2  1  0.783550  0.574810  0.324400  1.0
  Br  Br3  1  0.574810  0.783550  0.824400  1.0
  Br  Br4  1  0.216450  0.425190  0.675600  1.0
  C  C5  1  0.624840  0.207960  0.993700  1.0
  C  C6  1  0.792040  0.375160  0.506300  1.0
  C  C7  1  0.375160  0.792040  0.006300  1.0
  C  C8  1  0.207960  0.624840  0.493700  1.0
  C  C9  1  0.690630  0.010170  0.137200  1.0
  C  C10  1  0.989830  0.309370  0.362800  1.0
  C  C11  1  0.309370  0.989830  0.862800  1.0
  C  C12  1  0.010170  0.690630  0.637200  1.0
  C  C13  1  0.590820  0.194380  0.874900  1.0
  C  C14  1  0.805620  0.409180  0.625100  1.0
  C  C15  1  0.409180  0.805620  0.125100  1.0
  C  C16  1  0.194380  0.590820  0.374900  1.0
  C  C17  1  0.637000  0.118600  0.802700  1.0
  C  C18  1  0.881400  0.363000  0.697300  1.0
  C  C19  1  0.363000  0.881400  0.197300  1.0
  C  C20  1  0.118600  0.637000  0.302700  1.0
  C  C21  1  0.607400  0.115000  0.693700  1.0
  C  C22  1  0.885000  0.392600  0.806300  1.0
  C  C23  1  0.392600  0.885000  0.306300  1.0
  C  C24  1  0.115000  0.607400  0.193700  1.0
  C  C25  1  0.530900  0.185900  0.656500  1.0
  C  C26  1  0.814100  0.469100  0.843500  1.0
  C  C27  1  0.469100  0.814100  0.343500  1.0
  C  C28  1  0.185900  0.530900  0.156500  1.0
  C  C29  1  0.484450  0.262350  0.728300  1.0
  C  C30  1  0.737650  0.515550  0.771700  1.0
  C  C31  1  0.515550  0.737650  0.271700  1.0
  C  C32  1  0.262350  0.484450  0.228300  1.0
  C  C33  1  0.515630  0.266770  0.836700  1.0
  C  C34  1  0.733230  0.484370  0.663300  1.0
  C  C35  1  0.484370  0.733230  0.163300  1.0
  C  C36  1  0.266770  0.515630  0.336700  1.0
  C  C37  1  0.431700  0.250100  0.506400  1.0
  C  C38  1  0.749900  0.568300  0.993600  1.0
  C  C39  1  0.568300  0.749900  0.493600  1.0
  C  C40  1  0.250100  0.431700  0.006400  1.0
  C  C41  1  0.728080  0.008520  0.251800  1.0
  C  C42  1  0.991480  0.271920  0.248200  1.0
  C  C43  1  0.271920  0.991480  0.748200  1.0
  C  C44  1  0.008520  0.728080  0.751800  1.0
  C  C45  1  0.671760  0.067240  0.321800  1.0
  C  C46  1  0.932760  0.328240  0.178200  1.0
  C  C47  1  0.328240  0.932760  0.678200  1.0
  C  C48  1  0.067240  0.671760  0.821800  1.0
  C  C49  1  0.702600  0.068200  0.430100  1.0
  C  C50  1  0.931800  0.297400  0.069900  1.0
  C  C51  1  0.297400  0.931800  0.569900  1.0
  C  C52  1  0.068200  0.702600  0.930100  1.0
  C  C53  1  0.790200  0.007200  0.469100  1.0
  C  C54  1  0.992800  0.209800  0.030900  1.0
  C  C55  1  0.209800  0.992800  0.530900  1.0
  C  C56  1  0.007200  0.790200  0.969100  1.0
  C  C57  1  0.845100  0.945100  0.400000  1.0
  C  C58  1  0.054900  0.154900  0.100000  1.0
  C  C59  1  0.154900  0.054900  0.600000  1.0
  C  C60  1  0.945100  0.845100  0.900000  1.0
  C  C61  1  0.814820  0.947580  0.293400  1.0
  C  C62  1  0.052420  0.185180  0.206600  1.0
  C  C63  1  0.185180  0.052420  0.706600  1.0
  C  C64  1  0.947580  0.814820  0.793400  1.0
  Cd  Cd65  1  0.670330  0.329670  0.250000  1
  Cd  Cd66  1  0.329670  0.670330  0.750000  1
  H  H67  1  0.620400  0.029800  0.957500  1.0
  H  H68  1  0.970200  0.379600  0.542500  1.0
  H  H69  1  0.379600  0.970200  0.042500  1.0
  H  H70  1  0.029800  0.620400  0.457500  1.0
  H  H71  1  0.676900  0.936100  0.073300  1.0
  H  H72  1  0.063900  0.323100  0.426700  1.0
  H  H73  1  0.323100  0.063900  0.926700  1.0
  H  H74  1  0.936100  0.676900  0.573300  1.0
  H  H75  1  0.688500  0.069500  0.828000  1.0
  H  H76  1  0.930500  0.311500  0.672000  1.0
  H  H77  1  0.311500  0.930500  0.172000  1.0
  H  H78  1  0.069500  0.688500  0.328000  1.0
  H  H79  1  0.639300  0.064100  0.644700  1.0
  H  H80  1  0.935900  0.360700  0.855300  1.0
  H  H81  1  0.360700  0.935900  0.355300  1.0
  H  H82  1  0.064100  0.639300  0.144700  1.0
  H  H83  1  0.432100  0.310500  0.702500  1.0
  H  H84  1  0.689500  0.567900  0.797500  1.0
  H  H85  1  0.567900  0.689500  0.297500  1.0
  H  H86  1  0.310500  0.432100  0.202500  1.0
  H  H87  1  0.485600  0.319600  0.886200  1.0
  H  H88  1  0.680400  0.514400  0.613800  1.0
  H  H89  1  0.514400  0.680400  0.113800  1.0
  H  H90  1  0.319600  0.485600  0.386200  1.0
  H  H91  1  0.471400  0.340000  0.557300  1.0
  H  H92  1  0.660000  0.528600  0.942700  1.0
  H  H93  1  0.528600  0.660000  0.442700  1.0
  H  H94  1  0.340000  0.471400  0.057300  1.0
  H  H95  1  0.346100  0.223300  0.503400  1.0
  H  H96  1  0.776700  0.653900  0.996600  1.0
  H  H97  1  0.653900  0.776700  0.496600  1.0
  H  H98  1  0.223300  0.346100  0.003400  1.0
  H  H99  1  0.426200  0.237800  0.429900  1.0
  H  H100  1  0.762200  0.573800  0.070100  1.0
  H  H101  1  0.573800  0.762200  0.570100  1.0
  H  H102  1  0.237800  0.426200  0.929900  1.0
  H  H103  1  0.610800  0.107800  0.295300  1.0
  H  H104  1  0.892200  0.389200  0.204700  1.0
  H  H105  1  0.389200  0.892200  0.704700  1.0
  H  H106  1  0.107800  0.610800  0.795300  1.0
  H  H107  1  0.663900  0.110100  0.477200  1.0
  H  H108  1  0.889900  0.336100  0.022800  1.0
  H  H109  1  0.336100  0.889900  0.522800  1.0
  H  H110  1  0.110100  0.663900  0.977200  1.0
  H  H111  1  0.812300  0.008500  0.543400  1.0
  H  H112  1  0.991500  0.187700  0.956600  1.0
  H  H113  1  0.187700  0.991500  0.456600  1.0
  H  H114  1  0.008500  0.812300  0.043400  1.0
  H  H115  1  0.902900  0.901100  0.425200  1.0
  H  H116  1  0.098900  0.097100  0.074800  1.0
  H  H117  1  0.097100  0.098900  0.574800  1.0
  H  H118  1  0.901100  0.902900  0.925200  1.0
  N  N119  1  0.677030  0.112570  0.125200  1.0
  N  N120  1  0.887430  0.322970  0.374800  1.0
  N  N121  1  0.322970  0.887430  0.874800  1.0
  N  N122  1  0.112570  0.677030  0.625200  1.0
  N  N123  1  0.637240  0.102760  0.013900  1.0
  N  N124  1  0.897240  0.362760  0.486100  1.0
  N  N125  1  0.362760  0.897240  0.986100  1.0
  N  N126  1  0.102760  0.637240  0.513900  1.0
  N  N127  1  0.883340  0.888460  0.226700  1.0
  N  N128  1  0.111540  0.116660  0.273300  1.0
  N  N129  1  0.116660  0.111540  0.773300  1.0
  N  N130  1  0.888460  0.883340  0.726700  1.0
  O  O131  1  0.639270  0.309730  0.069300  1.0
  O  O132  1  0.690270  0.360730  0.430700  1.0
  O  O133  1  0.360730  0.690270  0.930700  1.0
  O  O134  1  0.309730  0.639270  0.569300  1.0
  O  O135  1  0.506900  0.175500  0.548400  1.0
  O  O136  1  0.824500  0.493100  0.951600  1.0
  O  O137  1  0.493100  0.824500  0.451600  1.0
  O  O138  1  0.175500  0.506900  0.048400  1.0
  O  O139  1  0.876090  0.909310  0.142000  1.0
  O  O140  1  0.090690  0.123910  0.358000  1.0
  O  O141  1  0.123910  0.090690  0.858000  1.0
  O  O142  1  0.909310  0.876090  0.642000  1.0
  O  O143  1  0.947190  0.823810  0.259200  1.0
  O  O144  1  0.176190  0.052810  0.240800  1.0
  O  O145  1  0.052810  0.176190  0.740800  1.0
  O  O146  1  0.823810  0.947190  0.759200  1.0
