# generated using pymatgen
data_FeH36C39S3N8O11F12
_symmetry_space_group_name_H-M   'P 1'
_cell_length_a   10.65680000
_cell_length_b   12.91500000
_cell_length_c   15.01000000
_cell_angle_alpha   106.98000000
_cell_angle_beta   109.44800000
_cell_angle_gamma   97.50000000
_symmetry_Int_Tables_number   1
_chemical_formula_structural   FeH36C39S3N8O11F12
_chemical_formula_sum   'Fe2 H72 C78 S6 N16 O22 F24'
_cell_volume   1802.68113247
_cell_formula_units_Z   2
loop_
 _symmetry_equiv_pos_site_id
 _symmetry_equiv_pos_as_xyz
  1  'x, y, z'
loop_
 _atom_site_type_symbol
 _atom_site_label
 _atom_site_symmetry_multiplicity
 _atom_site_fract_x
 _atom_site_fract_y
 _atom_site_fract_z
 _atom_site_occupancy
  Fe  Fe1  1  0.740330  0.729470  0.413270  1.0
  Fe  Fe2  1  0.259670  0.270530  0.586730  1.0
  H  H3  1  0.022900  0.502000  0.191800  1
  H  H4  1  0.977100  0.498000  0.808200  1
  H  H5  1  0.955000  0.464000  0.071100  1
  H  H6  1  0.045000  0.536000  0.928900  1
  H  H7  1  0.050600  0.587900  0.138100  1
  H  H8  1  0.949400  0.412100  0.861900  1
  H  H9  1  0.234300  0.131700  0.115200  1
  H  H10  1  0.765700  0.868300  0.884800  1
  H  H11  1  0.371700  0.185000  0.106000  1
  H  H12  1  0.628300  0.815000  0.894000  1
  H  H13  1  0.266600  0.259200  0.122700  1
  H  H14  1  0.733400  0.740800  0.877300  1
  H  H15  1  0.270700  0.014700  0.384500  1
  H  H16  1  0.729300  0.985300  0.615500  1
  H  H17  1  0.410200  0.107700  0.424000  1
  H  H18  1  0.589800  0.892300  0.576000  1
  H  H19  1  0.072400  0.343100  0.406100  1
  H  H20  1  0.927600  0.656900  0.593900  1
  H  H21  1  0.034000  0.322300  0.247800  1
  H  H22  1  0.966000  0.677700  0.752200  1
  H  H23  1  0.140900  0.206900  0.160000  1
  H  H24  1  0.859100  0.793100  0.840000  1
  H  H25  1  0.272100  0.102500  0.242600  1
  H  H26  1  0.727900  0.897500  0.757400  1
  H  H27  1  0.292700  0.105700  0.124600  1
  H  H28  1  0.707300  0.894300  0.875400  1
  H  H29  1  0.435100  0.161300  0.123300  1
  H  H30  1  0.564900  0.838700  0.876700  1
  H  H31  1  0.316600  0.226700  0.115800  1
  H  H32  1  0.683400  0.773300  0.884200  1
  H  H33  1  0.085300  0.990900  0.422200  1.0
  H  H34  1  0.914700  0.009100  0.577800  1.0
  H  H35  1  0.980000  0.812700  0.286700  1.0
  H  H36  1  0.020000  0.187300  0.713300  1.0
  H  H37  1  0.300200  0.013900  0.387100  1.0
  H  H38  1  0.699800  0.986100  0.612900  1.0
  H  H39  1  0.402400  0.134600  0.424300  1.0
  H  H40  1  0.597600  0.865400  0.575700  1.0
  H  H41  1  0.459500  0.491100  0.604600  1.0
  H  H42  1  0.540500  0.508900  0.395400  1.0
  H  H43  1  0.532600  0.096700  0.576200  1.0
  H  H44  1  0.467400  0.903300  0.423800  1.0
  H  H45  1  0.494600  0.158700  0.669400  1.0
  H  H46  1  0.505400  0.841300  0.330600  1.0
  H  H47  1  0.467900  0.642400  0.204400  1.0
  H  H48  1  0.532100  0.357600  0.795600  1.0
  H  H49  1  0.077400  0.351400  0.421900  1.0
  H  H50  1  0.922600  0.648600  0.578100  1.0
  H  H51  1  0.078700  0.745100  0.539000  1.0
  H  H52  1  0.921300  0.254900  0.461000  1.0
  H  H53  1  0.301400  0.835000  0.656300  1.0
  H  H54  1  0.698600  0.165000  0.343700  1.0
  H  H55  1  0.419900  0.001800  0.659100  1.0
  H  H56  1  0.580100  0.998200  0.340900  1.0
  H  H57  1  0.673800  0.543000  0.600900  1.0
  H  H58  1  0.326200  0.457000  0.399100  1.0
  H  H59  1  0.416400  0.605500  0.033300  1.0
  H  H60  1  0.583600  0.394500  0.966700  1.0
  H  H61  1  0.594300  0.646500  0.980500  1.0
  H  H62  1  0.405700  0.353500  0.019500  1.0
  H  H63  1  0.809800  0.414100  0.594500  1.0
  H  H64  1  0.190200  0.585900  0.405500  1.0
  H  H65  1  0.726800  0.236700  0.595300  1.0
  H  H66  1  0.273200  0.763300  0.404700  1.0
  H  H67  1  0.820000  0.727100  0.102900  1.0
  H  H68  1  0.180000  0.272900  0.897100  1.0
  H  H69  1  0.961000  0.281500  0.242400  1.0
  H  H70  1  0.039000  0.718500  0.757600  1.0
  H  H71  1  0.131000  0.018100  0.232100  1.0
  H  H72  1  0.869000  0.981900  0.767900  1.0
  H  H73  1  0.979100  0.106500  0.148600  1.0
  H  H74  1  0.020900  0.893500  0.851400  1.0
  C  C75  1  0.121800  0.839600  0.043500  1
  C  C76  1  0.878200  0.160400  0.956500  1
  C  C77  1  0.156600  0.470400  0.125700  1
  C  C78  1  0.843400  0.529600  0.874300  1
  C  C79  1  0.036400  0.509300  0.132200  1
  C  C80  1  0.963600  0.490700  0.867800  1
  C  C81  1  0.381200  0.235800  0.249400  1
  C  C82  1  0.618800  0.764200  0.750600  1
  C  C83  1  0.307300  0.200000  0.139100  1
  C  C84  1  0.692700  0.800000  0.860900  1
  C  C85  1  0.699000  0.383900  0.240900  1
  C  C86  1  0.301000  0.616100  0.759100  1
  C  C87  1  0.111000  0.290000  0.372000  1
  C  C88  1  0.889000  0.710000  0.628000  1
  C  C89  1  0.090400  0.281400  0.279300  1
  C  C90  1  0.909600  0.718600  0.720700  1
  C  C91  1  0.151300  0.212300  0.226700  1
  C  C92  1  0.848700  0.787700  0.773300  1
  C  C93  1  0.228400  0.151100  0.275400  1
  C  C94  1  0.771600  0.848900  0.724600  1
  C  C95  1  0.239800  0.162500  0.371600  1
  C  C96  1  0.760200  0.837500  0.628400  1
  C  C97  1  0.166600  0.832900  0.036200  1
  C  C98  1  0.833400  0.167100  0.963800  1
  C  C99  1  0.417000  0.228100  0.255600  1
  C  C100  1  0.583000  0.771900  0.744400  1
  C  C101  1  0.360800  0.176200  0.145900  1
  C  C102  1  0.639200  0.823800  0.854100  1
  C  C103  1  0.062500  0.859400  0.469200  1.0
  C  C104  1  0.937500  0.140600  0.530800  1.0
  C  C105  1  0.130600  0.958800  0.469500  1.0
  C  C106  1  0.869400  0.041200  0.530500  1.0
  C  C107  1  0.905500  0.788600  0.303200  1.0
  C  C108  1  0.094500  0.211400  0.696800  1.0
  C  C109  1  0.317200  0.094600  0.425300  1.0
  C  C110  1  0.682800  0.905400  0.574700  1.0
  C  C111  1  0.514500  0.438800  0.602200  1.0
  C  C112  1  0.485500  0.561200  0.397800  1.0
  C  C113  1  0.265800  0.012100  0.539000  1.0
  C  C114  1  0.734200  0.987900  0.461000  1.0
  C  C115  1  0.483300  0.151800  0.599600  1.0
  C  C116  1  0.516700  0.848200  0.400400  1.0
  C  C117  1  0.540000  0.661000  0.183500  1.0
  C  C118  1  0.460000  0.339000  0.816500  1.0
  C  C119  1  0.544400  0.264100  0.599000  1.0
  C  C120  1  0.455600  0.735900  0.401000  1.0
  C  C121  1  0.091000  0.285000  0.382000  1.0
  C  C122  1  0.909000  0.715000  0.618000  1.0
  C  C123  1  0.125600  0.812900  0.539000  1.0
  C  C124  1  0.874400  0.187100  0.461000  1.0
  C  C125  1  0.257600  0.866600  0.608200  1.0
  C  C126  1  0.742400  0.133400  0.391800  1.0
  C  C127  1  0.768700  0.735000  0.223300  1.0
  C  C128  1  0.231300  0.265000  0.776700  1.0
  C  C129  1  0.329000  0.965900  0.610100  1.0
  C  C130  1  0.671000  0.034100  0.389900  1.0
  C  C131  1  0.641800  0.470400  0.600100  1.0
  C  C132  1  0.358200  0.529600  0.399900  1.0
  C  C133  1  0.508500  0.637800  0.081200  1.0
  C  C134  1  0.491500  0.362200  0.918800  1.0
  C  C135  1  0.613000  0.662400  0.050200  1.0
  C  C136  1  0.387000  0.337600  0.949800  1.0
  C  C137  1  0.722100  0.394600  0.596700  1.0
  C  C138  1  0.277900  0.605400  0.403300  1.0
  C  C139  1  0.673000  0.289800  0.596800  1.0
  C  C140  1  0.327000  0.710200  0.403200  1.0
  C  C141  1  0.745800  0.710800  0.122500  1.0
  C  C142  1  0.254200  0.289200  0.877500  1.0
  C  C143  1  0.196000  0.138300  0.374700  1.0
  C  C144  1  0.804000  0.861700  0.625300  1.0
  C  C145  1  0.017800  0.241700  0.275100  1.0
  C  C146  1  0.982200  0.758300  0.724900  1.0
  C  C147  1  0.120300  0.087600  0.268900  1.0
  C  C148  1  0.879700  0.912400  0.731100  1.0
  C  C149  1  0.031000  0.139700  0.219600  1.0
  C  C150  1  0.969000  0.860300  0.780400  1.0
  C  C151  1  0.702800  0.413300  0.214800  1.0
  C  C152  1  0.297200  0.586700  0.785200  1.0
  S  S153  1  0.229400  0.832200  0.164900  1
  S  S154  1  0.770600  0.167800  0.835100  1
  S  S155  1  0.216900  0.808400  0.156800  1
  S  S156  1  0.783100  0.191600  0.843200  1
  S  S157  1  0.832360  0.479620  0.348100  1.0
  S  S158  1  0.167640  0.520380  0.651900  1.0
  N  N159  1  0.250100  0.440100  0.120100  1
  N  N160  1  0.749900  0.559900  0.879900  1
  N  N161  1  0.434300  0.276900  0.338800  1
  N  N162  1  0.565700  0.723100  0.661200  1
  N  N163  1  0.464500  0.261600  0.344200  1
  N  N164  1  0.535500  0.738400  0.655800  1
  N  N165  1  0.925500  0.803400  0.395030  1.0
  N  N166  1  0.074500  0.196600  0.604970  1.0
  N  N167  1  0.667000  0.708300  0.253640  1.0
  N  N168  1  0.333000  0.291700  0.746360  1.0
  N  N169  1  0.465200  0.337000  0.600860  1.0
  N  N170  1  0.534800  0.663000  0.399140  1.0
  N  N171  1  0.335100  0.112100  0.532320  1.0
  N  N172  1  0.664900  0.887900  0.467680  1.0
  N  N173  1  0.180600  0.232500  0.426600  1.0
  N  N174  1  0.819400  0.767500  0.573400  1.0
  O  O175  1  0.351000  0.924300  0.207100  1
  O  O176  1  0.649000  0.075700  0.792900  1
  O  O177  1  0.252000  0.724000  0.133000  1
  O  O178  1  0.748000  0.276000  0.867000  1
  O  O179  1  0.142700  0.842700  0.221200  1
  O  O180  1  0.857300  0.157300  0.778800  1
  O  O181  1  0.925000  0.518000  0.313100  1
  O  O182  1  0.075000  0.482000  0.686900  1
  O  O183  1  0.873000  0.422400  0.409000  1
  O  O184  1  0.127000  0.577600  0.591000  1
  O  O185  1  0.257000  0.704000  0.137000  1
  O  O186  1  0.743000  0.296000  0.863000  1
  O  O187  1  0.091300  0.802600  0.172700  1
  O  O188  1  0.908700  0.197400  0.827300  1
  O  O189  1  0.322900  0.909000  0.220100  1
  O  O190  1  0.677100  0.091000  0.779900  1
  O  O191  1  0.776700  0.569390  0.389530  1.0
  O  O192  1  0.223300  0.430610  0.610470  1.0
  O  O193  1  0.957600  0.511900  0.335200  1.0
  O  O194  1  0.042400  0.488100  0.664800  1.0
  O  O195  1  0.825100  0.393200  0.391100  1.0
  O  O196  1  0.174900  0.606800  0.608900  1.0
  F  F197  1  0.093500  0.935500  0.052300  1
  F  F198  1  0.906500  0.064500  0.947700  1
  F  F199  1  0.002400  0.765700  0.003600  1
  F  F200  1  0.997600  0.234300  0.996400  1
  F  F201  1  0.186100  0.820100  0.978900  1
  F  F202  1  0.813900  0.179900  0.021100  1
  F  F203  1  0.736000  0.293700  0.195600  1
  F  F204  1  0.264000  0.706300  0.804400  1
  F  F205  1  0.593300  0.341300  0.257600  1
  F  F206  1  0.406700  0.658700  0.742400  1
  F  F207  1  0.649500  0.437700  0.175200  1
  F  F208  1  0.350500  0.562300  0.824800  1
  F  F209  1  0.262800  0.841000  0.006100  1
  F  F210  1  0.737200  0.159000  0.993900  1
  F  F211  1  0.133600  0.931100  0.047700  1
  F  F212  1  0.866400  0.068900  0.952300  1
  F  F213  1  0.060300  0.747100  0.963000  1
  F  F214  1  0.939700  0.252900  0.037000  1
  F  F215  1  0.721700  0.318700  0.168500  1.0
  F  F216  1  0.278300  0.681300  0.831500  1.0
  F  F217  1  0.577100  0.401000  0.209900  1.0
  F  F218  1  0.422900  0.599000  0.790100  1.0
  F  F219  1  0.715700  0.478800  0.161800  1.0
  F  F220  1  0.284300  0.521200  0.838200  1.0
