# generated using pymatgen
data_FeH27C31S3N7(OF)9
_symmetry_space_group_name_H-M   'P 1'
_cell_length_a   8.99290000
_cell_length_b   12.97360000
_cell_length_c   14.75410000
_cell_angle_alpha   69.60600000
_cell_angle_beta   86.68700000
_cell_angle_gamma   76.89200000
_symmetry_Int_Tables_number   1
_chemical_formula_structural   FeH27C31S3N7(OF)9
_chemical_formula_sum   'Fe2 H54 C62 S6 N14 O18 F18'
_cell_volume   1571.00196857
_cell_formula_units_Z   2
loop_
 _symmetry_equiv_pos_site_id
 _symmetry_equiv_pos_as_xyz
  1  'x, y, z'
loop_
 _atom_site_type_symbol
 _atom_site_label
 _atom_site_symmetry_multiplicity
 _atom_site_fract_x
 _atom_site_fract_y
 _atom_site_fract_z
 _atom_site_occupancy
  Fe  Fe1  1  0.187020  0.798084  0.746588  1.0
  Fe  Fe2  1  0.812980  0.201916  0.253412  1.0
  H  H3  1  0.593200  0.272400  0.857100  1
  H  H4  1  0.406800  0.727600  0.142900  1
  H  H5  1  0.611900  0.336500  0.744200  1
  H  H6  1  0.388100  0.663500  0.255800  1
  H  H7  1  0.451700  0.362700  0.794000  1
  H  H8  1  0.548300  0.637300  0.206000  1
  H  H9  1  0.330100  0.369900  0.673700  1
  H  H10  1  0.669900  0.630100  0.326300  1
  H  H11  1  0.313700  0.247300  0.680100  1
  H  H12  1  0.686300  0.752700  0.319900  1
  H  H13  1  0.206200  0.311900  0.742800  1
  H  H14  1  0.793800  0.688100  0.257200  1
  H  H15  1  0.955100  0.155700  0.505900  1.0
  H  H16  1  0.044900  0.844300  0.494100  1.0
  H  H17  1  0.893400  0.853200  0.047400  1.0
  H  H18  1  0.106600  0.146800  0.952600  1.0
  H  H19  1  0.023300  0.554200  0.128100  1.0
  H  H20  1  0.976700  0.445800  0.871900  1.0
  H  H21  1  0.893700  0.420300  0.328400  1.0
  H  H22  1  0.106300  0.579700  0.671600  1.0
  H  H23  1  0.951400  0.329000  0.431800  1.0
  H  H24  1  0.048600  0.671000  0.568200  1.0
  H  H25  1  0.355800  0.922000  0.564600  1.0
  H  H26  1  0.644200  0.078000  0.435400  1.0
  H  H27  1  0.127000  0.280000  0.205100  1.0
  H  H28  1  0.873000  0.720000  0.794900  1.0
  H  H29  1  0.125800  0.373600  0.253300  1.0
  H  H30  1  0.874200  0.626400  0.746700  1.0
  H  H31  1  0.055700  0.754100  0.962100  1.0
  H  H32  1  0.944300  0.245900  0.037900  1.0
  H  H33  1  0.820900  0.126500  0.800800  1.0
  H  H34  1  0.179100  0.873500  0.199200  1.0
  H  H35  1  0.769100  0.041600  0.965600  1.0
  H  H36  1  0.230900  0.958400  0.034400  1.0
  H  H37  1  0.967100  0.114300  0.654000  1.0
  H  H38  1  0.032900  0.885700  0.346000  1.0
  H  H39  1  0.324400  0.331000  0.423500  1.0
  H  H40  1  0.675600  0.669000  0.576500  1.0
  H  H41  1  0.823200  0.670000  0.017500  1.0
  H  H42  1  0.176800  0.330000  0.982500  1.0
  H  H43  1  0.466400  0.261200  0.312500  1.0
  H  H44  1  0.533600  0.738800  0.687500  1.0
  H  H45  1  0.629600  0.590900  0.987300  1.0
  H  H46  1  0.370400  0.409100  0.012700  1.0
  H  H47  1  0.710400  0.392500  0.503500  1.0
  H  H48  1  0.289600  0.607500  0.496500  1.0
  H  H49  1  0.261600  0.149100  0.292700  1.0
  H  H50  1  0.738400  0.850900  0.707300  1.0
  H  H51  1  0.422900  0.994600  0.402900  1.0
  H  H52  1  0.577100  0.005400  0.597100  1.0
  H  H53  1  0.633500  0.401800  0.072000  1.0
  H  H54  1  0.366500  0.598200  0.928000  1.0
  H  H55  1  0.448700  0.392700  0.524400  1.0
  H  H56  1  0.551300  0.607300  0.475600  1.0
  C  C57  1  0.144400  0.338720  0.638140  1
  C  C58  1  0.855600  0.661280  0.361860  1
  C  C59  1  0.609600  0.432000  0.825320  1
  C  C60  1  0.390400  0.568000  0.174680  1
  C  C61  1  0.562800  0.343800  0.803400  1
  C  C62  1  0.437200  0.656200  0.196600  1
  C  C63  1  0.613400  0.382000  0.794400  1
  C  C64  1  0.386600  0.618000  0.205600  1
  C  C65  1  0.146000  0.372000  0.602000  1
  C  C66  1  0.854000  0.628000  0.398000  1
  C  C67  1  0.258000  0.321000  0.681000  1
  C  C68  1  0.742000  0.679000  0.319000  1
  C  C69  1  0.966750  0.986270  0.789160  1.0
  C  C70  1  0.033250  0.013730  0.210840  1.0
  C  C71  1  0.938030  0.412070  0.163630  1.0
  C  C72  1  0.061970  0.587930  0.836370  1.0
  C  C73  1  0.050870  0.124000  0.485110  1.0
  C  C74  1  0.949130  0.876000  0.514890  1.0
  C  C75  1  0.909750  0.888930  0.980600  1.0
  C  C76  1  0.090250  0.111070  0.019400  1.0
  C  C77  1  0.735650  0.327400  0.394350  1.0
  C  C78  1  0.264350  0.672600  0.605650  1.0
  C  C79  1  0.148630  0.031500  0.550580  1.0
  C  C80  1  0.851370  0.968500  0.449420  1.0
  C  C81  1  0.942220  0.524490  0.116090  1.0
  C  C82  1  0.057780  0.475510  0.883910  1.0
  C  C83  1  0.897410  0.341460  0.370990  1.0
  C  C84  1  0.102590  0.658540  0.629010  1.0
  C  C85  1  0.288300  0.983990  0.520130  1.0
  C  C86  1  0.711700  0.016010  0.479870  1.0
  C  C87  1  0.061250  0.331260  0.234860  1.0
  C  C88  1  0.938750  0.668740  0.765140  1.0
  C  C89  1  0.006700  0.830420  0.928960  1.0
  C  C90  1  0.993300  0.169580  0.071040  1.0
  C  C91  1  0.867610  0.050040  0.835170  1.0
  C  C92  1  0.132390  0.949960  0.164830  1.0
  C  C93  1  0.837640  0.000150  0.932670  1.0
  C  C94  1  0.162360  0.999850  0.067330  1.0
  C  C95  1  0.010670  0.037430  0.689190  1.0
  C  C96  1  0.989330  0.962570  0.310810  1.0
  C  C97  1  0.430700  0.328960  0.418150  1.0
  C  C98  1  0.569300  0.671040  0.581850  1.0
  C  C99  1  0.824450  0.592450  0.050300  1.0
  C  C100  1  0.175550  0.407550  0.949700  1.0
  C  C101  1  0.515990  0.288220  0.351920  1.0
  C  C102  1  0.484010  0.711780  0.648080  1.0
  C  C103  1  0.709430  0.546210  0.033110  1.0
  C  C104  1  0.290570  0.453790  0.966890  1.0
  C  C105  1  0.658350  0.366450  0.464500  1.0
  C  C106  1  0.341650  0.633550  0.535500  1.0
  C  C107  1  0.093320  0.170180  0.388950  1.0
  C  C108  1  0.906680  0.829820  0.611050  1.0
  C  C109  1  0.232740  0.120170  0.358160  1.0
  C  C110  1  0.767260  0.879830  0.641840  1.0
  C  C111  1  0.328390  0.028100  0.423960  1.0
  C  C112  1  0.671610  0.971900  0.576040  1.0
  C  C113  1  0.712600  0.433480  0.083810  1.0
  C  C114  1  0.287400  0.566520  0.916190  1.0
  C  C115  1  0.503600  0.366850  0.476690  1.0
  C  C116  1  0.496400  0.633150  0.523310  1.0
  C  C117  1  0.417230  0.001740  0.834830  1.0
  C  C118  1  0.582770  0.998260  0.165170  1.0
  S  S119  1  0.959160  0.350870  0.695590  1
  S  S120  1  0.040840  0.649130  0.304410  1
  S  S121  1  0.805500  0.366300  0.747500  1
  S  S122  1  0.194500  0.633700  0.252500  1
  S  S123  1  0.457410  0.848080  0.868240  1.0
  S  S124  1  0.542590  0.151920  0.131760  1.0
  N  N125  1  0.646100  0.502000  0.843080  1
  N  N126  1  0.353900  0.498000  0.156920  1
  N  N127  1  0.084000  0.410000  0.529000  1
  N  N128  1  0.916000  0.590000  0.471000  1
  N  N129  1  0.107960  0.978910  0.648720  1.0
  N  N130  1  0.892040  0.021090  0.351280  1.0
  N  N131  1  0.667370  0.285190  0.340840  1.0
  N  N132  1  0.332630  0.714810  0.659160  1.0
  N  N133  1  0.034120  0.876710  0.834790  1.0
  N  N134  1  0.965880  0.123290  0.165210  1.0
  N  N135  1  0.988180  0.264180  0.322760  1.0
  N  N136  1  0.011820  0.735820  0.677240  1.0
  N  N137  1  0.823680  0.367250  0.149140  1.0
  N  N138  1  0.176320  0.632750  0.850860  1.0
  O  O139  1  0.994030  0.282170  0.795550  1
  O  O140  1  0.005970  0.717830  0.204450  1
  O  O141  1  0.909800  0.470630  0.676390  1
  O  O142  1  0.090200  0.529370  0.323610  1
  O  O143  1  0.873130  0.305510  0.644720  1
  O  O144  1  0.126870  0.694490  0.355280  1
  O  O145  1  0.901200  0.301100  0.832400  1
  O  O146  1  0.098800  0.698900  0.167600  1
  O  O147  1  0.801000  0.308600  0.679500  1
  O  O148  1  0.199000  0.691400  0.320500  1
  O  O149  1  0.822000  0.481400  0.703200  1
  O  O150  1  0.178000  0.518600  0.296800  1
  O  O151  1  0.384440  0.835480  0.787350  1.0
  O  O152  1  0.615560  0.164520  0.212650  1.0
  O  O153  1  0.621370  0.815010  0.868250  1.0
  O  O154  1  0.378630  0.184990  0.131750  1.0
  O  O155  1  0.383440  0.809580  0.958850  1.0
  O  O156  1  0.616560  0.190420  0.041150  1.0
  F  F157  1  0.244660  0.371740  0.679800  1
  F  F158  1  0.755340  0.628260  0.320200  1
  F  F159  1  0.134530  0.403630  0.545360  1
  F  F160  1  0.865470  0.596370  0.454640  1
  F  F161  1  0.205170  0.233120  0.642190  1
  F  F162  1  0.794830  0.766880  0.357810  1
  F  F163  1  0.571400  0.282800  0.836500  1
  F  F164  1  0.428600  0.717200  0.163500  1
  F  F165  1  0.507300  0.441800  0.726100  1
  F  F166  1  0.492700  0.558200  0.273900  1
  F  F167  1  0.602000  0.433700  0.860100  1
  F  F168  1  0.398000  0.566300  0.139900  1
  F  F169  1  0.476210  0.049300  0.749890  1.0
  F  F170  1  0.523790  0.950700  0.250110  1.0
  F  F171  1  0.475820  0.030900  0.900690  1.0
  F  F172  1  0.524180  0.969100  0.099310  1.0
  F  F173  1  0.266990  0.044080  0.829470  1.0
  F  F174  1  0.733010  0.955920  0.170530  1.0
