# generated using pymatgen
data_H83Pd2C67S4N8O23
_symmetry_space_group_name_H-M   'P 1'
_cell_length_a   9.85460000
_cell_length_b   18.77800000
_cell_length_c   20.75500000
_cell_angle_alpha   75.76600000
_cell_angle_beta   87.33600000
_cell_angle_gamma   87.50900000
_symmetry_Int_Tables_number   1
_chemical_formula_structural   H83Pd2C67S4N8O23
_chemical_formula_sum   'H166 Pd4 C134 S8 N16 O46'
_cell_volume   3716.73578731
_cell_formula_units_Z   2
loop_
 _symmetry_equiv_pos_site_id
 _symmetry_equiv_pos_as_xyz
  1  'x, y, z'
loop_
 _atom_site_type_symbol
 _atom_site_label
 _atom_site_symmetry_multiplicity
 _atom_site_fract_x
 _atom_site_fract_y
 _atom_site_fract_z
 _atom_site_occupancy
  H  H1  1  0.344900  0.422100  0.146800  1
  H  H2  1  0.655100  0.577900  0.853200  1
  H  H3  1  0.240000  0.488800  0.053200  1
  H  H4  1  0.760000  0.511200  0.946800  1
  H  H5  1  0.485900  0.392500  0.940200  1
  H  H6  1  0.514100  0.607500  0.059800  1
  H  H7  1  0.587900  0.323500  0.033200  1
  H  H8  1  0.412100  0.676500  0.966800  1
  H  H9  1  0.208700  0.521900  0.939400  1
  H  H10  1  0.791300  0.478100  0.060600  1
  H  H11  1  0.344100  0.521300  0.896700  1
  H  H12  1  0.655900  0.478700  0.103300  1
  H  H13  1  0.240600  0.458700  0.903200  1
  H  H14  1  0.759400  0.541300  0.096800  1
  H  H15  1  0.811800  0.052300  0.574000  1
  H  H16  1  0.188200  0.947700  0.426000  1
  H  H17  1  0.897900  0.953700  0.536300  1
  H  H18  1  0.102100  0.046300  0.463700  1
  H  H19  1  0.625200  0.992000  0.396500  1
  H  H20  1  0.374800  0.008000  0.603500  1
  H  H21  1  0.535000  0.089300  0.435000  1
  H  H22  1  0.465000  0.910700  0.565000  1
  H  H23  1  0.901700  0.873900  0.466900  1
  H  H24  1  0.098300  0.126100  0.533100  1
  H  H25  1  0.757700  0.860600  0.443900  1
  H  H26  1  0.242300  0.139400  0.556100  1
  H  H27  1  0.858700  0.911100  0.394300  1
  H  H28  1  0.141300  0.088900  0.605700  1
  H  H29  1  0.841400  0.508000  0.436900  1
  H  H30  1  0.158600  0.492000  0.563100  1
  H  H31  1  0.834600  0.405200  0.523800  1
  H  H32  1  0.165400  0.594800  0.476200  1
  H  H33  1  0.185200  0.332300  0.456600  1
  H  H34  1  0.814800  0.667700  0.543400  1
  H  H35  1  0.192400  0.434600  0.369000  1
  H  H36  1  0.807600  0.565400  0.631000  1
  H  H37  1  0.919600  0.290700  0.582200  1
  H  H38  1  0.080400  0.709300  0.417800  1
  H  H39  1  0.998500  0.245500  0.537300  1
  H  H40  1  0.001500  0.754500  0.462700  1
  H  H41  1  0.078700  0.283900  0.582100  1
  H  H42  1  0.921300  0.716100  0.417900  1
  H  H43  1  0.946300  0.960500  0.881800  1
  H  H44  1  0.053700  0.039500  0.118200  1
  H  H45  1  0.054000  0.902400  0.972900  1
  H  H46  1  0.946000  0.097600  0.027100  1
  H  H47  1  0.724400  0.910200  0.088900  1
  H  H48  1  0.275600  0.089800  0.911100  1
  H  H49  1  0.611100  0.979500  0.999200  1
  H  H50  1  0.388900  0.020500  0.000800  1
  H  H51  1  0.058200  0.837200  0.085400  1
  H  H52  1  0.941800  0.162800  0.914600  1
  H  H53  1  0.924200  0.830600  0.129900  1
  H  H54  1  0.075800  0.169400  0.870100  1
  H  H55  1  0.012600  0.900200  0.120000  1
  H  H56  1  0.987400  0.099800  0.880000  1
  H  H57  1  0.497300  0.184600  0.748900  1.0
  H  H58  1  0.502700  0.815400  0.251100  1.0
  H  H59  1  0.422500  0.067800  0.763400  1.0
  H  H60  1  0.577500  0.932200  0.236600  1.0
  H  H61  1  0.052800  0.153500  0.714500  1.0
  H  H62  1  0.947200  0.846500  0.285500  1.0
  H  H63  1  0.136300  0.267600  0.702000  1.0
  H  H64  1  0.863700  0.732400  0.298000  1.0
  H  H65  1  0.925200  0.928600  0.724400  1.0
  H  H66  1  0.074800  0.071400  0.275600  1.0
  H  H67  1  0.988800  0.046100  0.715700  1.0
  H  H68  1  0.011200  0.953900  0.284300  1.0
  H  H69  1  0.345600  0.965000  0.789700  1.0
  H  H70  1  0.654400  0.035000  0.210300  1.0
  H  H71  1  0.273700  0.850100  0.796100  1.0
  H  H72  1  0.726300  0.149900  0.203900  1.0
  H  H73  1  0.524100  0.741700  0.142700  1.0
  H  H74  1  0.475900  0.258300  0.857300  1.0
  H  H75  1  0.614600  0.778400  0.036600  1.0
  H  H76  1  0.385400  0.221600  0.963400  1.0
  H  H77  1  0.951800  0.659400  0.098600  1.0
  H  H78  1  0.048200  0.340600  0.901400  1.0
  H  H79  1  0.856100  0.629400  0.203000  1.0
  H  H80  1  0.143900  0.370600  0.797000  1.0
  H  H81  1  0.777500  0.787900  0.831500  1.0
  H  H82  1  0.222500  0.212100  0.168500  1.0
  H  H83  1  0.681400  0.766900  0.937000  1.0
  H  H84  1  0.318600  0.233100  0.063000  1.0
  H  H85  1  0.051500  0.725400  0.008700  1.0
  H  H86  1  0.948500  0.274600  0.991300  1.0
  H  H87  1  0.139600  0.746500  0.902200  1.0
  H  H88  1  0.860400  0.253500  0.097800  1.0
  H  H89  1  0.655200  0.331100  0.647000  1.0
  H  H90  1  0.344800  0.668900  0.353000  1.0
  H  H91  1  0.578100  0.266000  0.632100  1.0
  H  H92  1  0.421900  0.734000  0.367900  1.0
  H  H93  1  0.627100  0.330600  0.573400  1.0
  H  H94  1  0.372900  0.669400  0.426600  1.0
  H  H95  1  0.278600  0.363200  0.581800  1.0
  H  H96  1  0.721400  0.636800  0.418200  1.0
  H  H97  1  0.400100  0.350000  0.534200  1.0
  H  H98  1  0.599900  0.650000  0.465800  1.0
  H  H99  1  0.351200  0.285400  0.592800  1.0
  H  H100  1  0.648800  0.714600  0.407200  1.0
  H  H101  1  0.534700  0.450400  0.561100  1.0
  H  H102  1  0.465300  0.549600  0.438900  1.0
  H  H103  1  0.390700  0.464000  0.592500  1.0
  H  H104  1  0.609300  0.536000  0.407500  1.0
  H  H105  1  0.548200  0.517700  0.641300  1.0
  H  H106  1  0.451800  0.482300  0.358700  1.0
  H  H107  1  0.634800  0.443800  0.659800  1.0
  H  H108  1  0.365200  0.556200  0.340200  1.0
  H  H109  1  0.288800  0.496100  0.684200  1.0
  H  H110  1  0.711200  0.503900  0.315800  1.0
  H  H111  1  0.298100  0.480700  0.761700  1.0
  H  H112  1  0.701900  0.519300  0.238300  1.0
  H  H113  1  0.382700  0.543200  0.715200  1.0
  H  H114  1  0.617300  0.456800  0.284800  1.0
  H  H115  1  0.627500  0.406100  0.771900  1.0
  H  H116  1  0.372500  0.593900  0.228100  1.0
  H  H117  1  0.587900  0.488700  0.768300  1.0
  H  H118  1  0.412100  0.511300  0.231700  1.0
  H  H119  1  0.503200  0.426200  0.814800  1.0
  H  H120  1  0.496800  0.573800  0.185200  1.0
  H  H121  1  0.802700  0.672900  0.784300  1.0
  H  H122  1  0.197300  0.327100  0.215700  1.0
  H  H123  1  0.840500  0.693400  0.707900  1.0
  H  H124  1  0.159500  0.306600  0.292100  1.0
  H  H125  1  0.844100  0.610900  0.747900  1.0
  H  H126  1  0.155900  0.389100  0.252100  1.0
  H  H127  1  0.126600  0.615800  0.838800  1.0
  H  H128  1  0.873400  0.384200  0.161200  1.0
  H  H129  1  0.975200  0.623900  0.863400  1.0
  H  H130  1  0.024800  0.376100  0.136600  1.0
  H  H131  1  0.017300  0.563800  0.824900  1.0
  H  H132  1  0.982700  0.436200  0.175100  1.0
  H  H133  1  0.068200  0.601900  0.702400  1.0
  H  H134  1  0.931800  0.398100  0.297600  1.0
  H  H135  1  0.188400  0.639400  0.727300  1.0
  H  H136  1  0.811600  0.360600  0.272700  1.0
  H  H137  1  0.999100  0.713200  0.633900  1.0
  H  H138  1  0.000900  0.286800  0.366100  1.0
  H  H139  1  0.153300  0.698200  0.617100  1.0
  H  H140  1  0.846700  0.301800  0.382900  1.0
  H  H141  1  0.970900  0.837300  0.618000  1.0
  H  H142  1  0.029100  0.162700  0.382000  1.0
  H  H143  1  0.091600  0.885800  0.626000  1.0
  H  H144  1  0.908400  0.114200  0.374000  1.0
  H  H145  1  0.104400  0.837900  0.573800  1.0
  H  H146  1  0.895600  0.162100  0.426200  1.0
  H  H147  1  0.313100  0.743100  0.698700  1.0
  H  H148  1  0.686900  0.256900  0.301300  1.0
  H  H149  1  0.311700  0.781000  0.622500  1.0
  H  H150  1  0.688300  0.219000  0.377500  1.0
  H  H151  1  0.298800  0.828900  0.674800  1.0
  H  H152  1  0.701200  0.171100  0.325200  1.0
  H  H153  1  0.887800  0.924500  0.912400  1.0
  H  H154  1  0.112200  0.075500  0.087600  1.0
  H  H155  1  0.115400  0.925900  0.940600  1.0
  H  H156  1  0.884600  0.074100  0.059400  1.0
  H  H157  1  0.102300  0.143900  0.886200  1.0
  H  H158  1  0.897700  0.856100  0.113800  1.0
  H  H159  1  0.873400  0.141100  0.861700  1.0
  H  H160  1  0.126600  0.858900  0.138300  1.0
  H  H161  1  0.277000  0.040900  0.980900  1.0
  H  H162  1  0.723000  0.959100  0.019100  1.0
  H  H163  1  0.320400  0.074700  0.906400  1.0
  H  H164  1  0.679600  0.925300  0.093600  1.0
  H  H165  1  0.319700  0.989200  0.934000  1.0
  H  H166  1  0.680300  0.010800  0.066000  1.0
  Pd  Pd167  1  0.045690  0.773010  0.762700  1.0
  Pd  Pd168  1  0.954310  0.226990  0.237300  1.0
  Pd  Pd169  1  0.391290  0.338980  0.720760  1.0
  Pd  Pd170  1  0.608710  0.661020  0.279240  1.0
  C  C171  1  0.475000  0.364600  0.099600  1
  C  C172  1  0.525000  0.635400  0.900400  1
  C  C173  1  0.372200  0.415100  0.105200  1
  C  C174  1  0.627800  0.584900  0.894800  1
  C  C175  1  0.310100  0.455200  0.049100  1
  C  C176  1  0.689900  0.544800  0.950900  1
  C  C177  1  0.350200  0.446400  0.986900  1
  C  C178  1  0.649800  0.553600  0.013100  1
  C  C179  1  0.455600  0.397800  0.981900  1
  C  C180  1  0.544400  0.602200  0.018100  1
  C  C181  1  0.517300  0.356800  0.037500  1
  C  C182  1  0.482700  0.643200  0.962500  1
  C  C183  1  0.279400  0.491200  0.926000  1
  C  C184  1  0.720600  0.508800  0.074000  1
  C  C185  1  0.664900  0.080500  0.508100  1
  C  C186  1  0.335100  0.919500  0.491900  1
  C  C187  1  0.773100  0.040100  0.538300  1
  C  C188  1  0.226900  0.959900  0.461700  1
  C  C189  1  0.824400  0.981100  0.515500  1
  C  C190  1  0.175600  0.018900  0.484500  1
  C  C191  1  0.770200  0.961700  0.462900  1
  C  C192  1  0.229800  0.038300  0.537100  1
  C  C193  1  0.662700  0.003500  0.432800  1
  C  C194  1  0.337300  0.996500  0.567200  1
  C  C195  1  0.609200  0.062100  0.455500  1
  C  C196  1  0.390800  0.937900  0.544500  1
  C  C197  1  0.827200  0.895800  0.439900  1
  C  C198  1  0.172800  0.104200  0.560100  1
  C  C199  1  0.015300  0.481500  0.394100  1
  C  C200  1  0.984700  0.518500  0.605900  1
  C  C201  1  0.910800  0.472200  0.440500  1
  C  C202  1  0.089200  0.527800  0.559500  1
  C  C203  1  0.906700  0.410500  0.492600  1
  C  C204  1  0.093300  0.589500  0.507400  1
  C  C205  1  0.008800  0.356500  0.499100  1
  C  C206  1  0.991200  0.643500  0.500900  1
  C  C207  1  0.114700  0.367500  0.452500  1
  C  C208  1  0.885300  0.632500  0.547500  1
  C  C209  1  0.120000  0.428700  0.400000  1
  C  C210  1  0.880000  0.571300  0.600000  1
  C  C211  1  0.000700  0.287900  0.555300  1
  C  C212  1  0.999300  0.712100  0.444700  1
  C  C213  1  0.760200  0.976800  0.930100  1
  C  C214  1  0.239800  0.023200  0.069900  1
  C  C215  1  0.901000  0.952000  0.923300  1
  C  C216  1  0.099000  0.048000  0.076700  1
  C  C217  1  0.963400  0.917100  0.977500  1
  C  C218  1  0.036600  0.082900  0.022500  1
  C  C219  1  0.903700  0.900800  0.040300  1
  C  C220  1  0.096300  0.099200  0.959700  1
  C  C221  1  0.769000  0.922600  0.047300  1
  C  C222  1  0.231000  0.077400  0.952700  1
  C  C223  1  0.699500  0.962300  0.993300  1
  C  C224  1  0.300500  0.037700  0.006700  1
  C  C225  1  0.981000  0.864000  0.099100  1
  C  C226  1  0.019000  0.136000  0.900900  1
  C  C227  1  0.406700  0.178100  0.741800  1.0
  C  C228  1  0.593300  0.821900  0.258200  1.0
  C  C229  1  0.362100  0.107700  0.750700  1.0
  C  C230  1  0.637900  0.892300  0.249300  1.0
  C  C231  1  0.227500  0.096100  0.740970  1.0
  C  C232  1  0.772500  0.903900  0.259030  1.0
  C  C233  1  0.143900  0.158300  0.722000  1.0
  C  C234  1  0.856100  0.841700  0.278000  1.0
  C  C235  1  0.194700  0.226700  0.714200  1.0
  C  C236  1  0.805300  0.773300  0.285800  1.0
  C  C237  1  0.011700  0.936400  0.736800  1.0
  C  C238  1  0.988300  0.063600  0.263200  1.0
  C  C239  1  0.049800  0.007100  0.731400  1.0
  C  C240  1  0.950200  0.992900  0.268600  1.0
  C  C241  1  0.177900  0.021100  0.749110  1.0
  C  C242  1  0.822100  0.978900  0.250890  1.0
  C  C243  1  0.260000  0.959200  0.775000  1.0
  C  C244  1  0.740000  0.040800  0.225000  1.0
  C  C245  1  0.216300  0.890200  0.778900  1.0
  C  C246  1  0.783700  0.109800  0.221100  1.0
  C  C247  1  0.611500  0.725200  0.133400  1.0
  C  C248  1  0.388500  0.274800  0.866600  1.0
  C  C249  1  0.664900  0.747100  0.069400  1.0
  C  C250  1  0.335100  0.252900  0.930600  1.0
  C  C251  1  0.794600  0.722200  0.054300  1.0
  C  C252  1  0.205400  0.277800  0.945700  1.0
  C  C253  1  0.864500  0.677100  0.106400  1.0
  C  C254  1  0.135500  0.322900  0.893600  1.0
  C  C255  1  0.806300  0.658700  0.168800  1.0
  C  C256  1  0.193700  0.341300  0.831200  1.0
  C  C257  1  0.833200  0.773300  0.867670  1.0
  C  C258  1  0.166800  0.226700  0.132330  1.0
  C  C259  1  0.775000  0.761200  0.931160  1.0
  C  C260  1  0.225000  0.238800  0.068840  1.0
  C  C261  1  0.854600  0.740800  0.985720  1.0
  C  C262  1  0.145400  0.259200  0.014280  1.0
  C  C263  1  0.993300  0.736700  0.973300  1.0
  C  C264  1  0.006700  0.263300  0.026700  1.0
  C  C265  1  0.045900  0.749100  0.909300  1.0
  C  C266  1  0.954100  0.250900  0.090700  1.0
  C  C267  1  0.591800  0.317900  0.618500  1.0
  C  C268  1  0.408200  0.682100  0.381500  1.0
  C  C269  1  0.364100  0.337400  0.579200  1.0
  C  C270  1  0.635900  0.662600  0.420800  1.0
  C  C271  1  0.478400  0.438900  0.601600  1.0
  C  C272  1  0.521600  0.561100  0.398400  1.0
  C  C273  1  0.543100  0.464600  0.654100  1.0
  C  C274  1  0.456900  0.535400  0.345900  1.0
  C  C275  1  0.347900  0.495100  0.719900  1.0
  C  C276  1  0.652100  0.504900  0.280100  1.0
  C  C277  1  0.553200  0.440600  0.773100  1.0
  C  C278  1  0.446800  0.559400  0.226900  1.0
  C  C279  1  0.860200  0.660300  0.749900  1.0
  C  C280  1  0.139800  0.339700  0.250100  1.0
  C  C281  1  0.033300  0.612600  0.828600  1.0
  C  C282  1  0.966700  0.387400  0.171400  1.0
  C  C283  1  0.096100  0.647000  0.712100  1.0
  C  C284  1  0.903900  0.353000  0.287900  1.0
  C  C285  1  0.089800  0.708400  0.651000  1.0
  C  C286  1  0.910200  0.291600  0.349000  1.0
  C  C287  1  0.068000  0.840200  0.616900  1.0
  C  C288  1  0.932000  0.159800  0.383100  1.0
  C  C289  1  0.275500  0.783300  0.665700  1.0
  C  C290  1  0.724500  0.216700  0.334300  1.0
  C  C291  1  0.862100  0.031800  0.882700  1.0
  C  C292  1  0.137900  0.968200  0.117300  1.0
  C  C293  1  0.930000  0.969000  0.906900  1.0
  C  C294  1  0.070000  0.031000  0.093100  1.0
  C  C295  1  0.067900  0.970000  0.924200  1.0
  C  C296  1  0.932100  0.030000  0.075800  1.0
  C  C297  1  0.131700  0.034900  0.917300  1.0
  C  C298  1  0.868300  0.965100  0.082700  1.0
  C  C299  1  0.060500  0.099200  0.892500  1.0
  C  C300  1  0.939500  0.900800  0.107500  1.0
  C  C301  1  0.923000  0.097300  0.876500  1.0
  C  C302  1  0.077000  0.902700  0.123500  1.0
  C  C303  1  0.274800  0.034900  0.936300  1.0
  C  C304  1  0.725200  0.965100  0.063700  1.0
  S  S305  1  0.547110  0.309610  0.172400  1
  S  S306  1  0.452890  0.690390  0.827600  1
  S  S307  1  0.603100  0.157960  0.536540  1
  S  S308  1  0.396900  0.842040  0.463460  1
  S  S309  1  0.016110  0.558600  0.324910  1
  S  S310  1  0.983890  0.441400  0.675090  1
  S  S311  1  0.682100  0.028300  0.860580  1.0
  S  S312  1  0.317900  0.971700  0.139420  1.0
  N  N313  1  0.460200  0.358240  0.623240  1.0
  N  N314  1  0.539800  0.641760  0.376760  1.0
  N  N315  1  0.462100  0.441910  0.717910  1.0
  N  N316  1  0.537900  0.558090  0.282090  1.0
  N  N317  1  0.325100  0.236970  0.723390  1.0
  N  N318  1  0.674900  0.763030  0.276610  1.0
  N  N319  1  0.680200  0.681130  0.182730  1.0
  N  N320  1  0.319800  0.318870  0.817270  1.0
  N  N321  1  0.003800  0.666100  0.764510  1.0
  N  N322  1  0.996200  0.333900  0.235490  1.0
  N  N323  1  0.125000  0.778450  0.667580  1.0
  N  N324  1  0.875000  0.221550  0.332420  1.0
  N  N325  1  0.966100  0.764850  0.856700  1.0
  N  N326  1  0.033900  0.235150  0.143300  1.0
  N  N327  1  0.094700  0.878230  0.759160  1.0
  N  N328  1  0.905300  0.121770  0.240840  1.0
  O  O329  1  0.682100  0.289500  0.155500  1
  O  O330  1  0.317900  0.710500  0.844500  1
  O  O331  1  0.545500  0.354000  0.219510  1
  O  O332  1  0.454500  0.646000  0.780490  1
  O  O333  1  0.462500  0.247600  0.193800  1
  O  O334  1  0.537500  0.752400  0.806200  1
  O  O335  1  0.700800  0.213800  0.512600  1
  O  O336  1  0.299200  0.786200  0.487400  1
  O  O337  1  0.474500  0.180500  0.507500  1
  O  O338  1  0.525500  0.819500  0.492500  1
  O  O339  1  0.592400  0.133800  0.607040  1
  O  O340  1  0.407600  0.866200  0.392960  1
  O  O341  1  0.019000  0.528730  0.266790  1
  O  O342  1  0.981000  0.471270  0.733210  1
  O  O343  1  0.136100  0.598990  0.328930  1
  O  O344  1  0.863900  0.401010  0.671070  1
  O  O345  1  0.891900  0.600500  0.330750  1
  O  O346  1  0.108100  0.399500  0.669250  1
  O  O347  1  0.414600  0.352500  0.340900  1
  O  O348  1  0.585400  0.647500  0.659100  1
  O  O349  1  0.706100  0.779900  0.596400  1
  O  O350  1  0.293900  0.220100  0.403600  1
  O  O351  1  0.606300  0.362600  0.435800  1
  O  O352  1  0.393700  0.637400  0.564200  1
  O  O353  1  0.313800  0.154100  0.298700  1
  O  O354  1  0.686200  0.845900  0.701300  1
  O  O355  1  0.852300  0.439700  0.861500  1
  O  O356  1  0.147700  0.560300  0.138500  1
  O  O357  1  0.384500  0.010600  0.303400  1
  O  O358  1  0.615500  0.989400  0.696600  1
  O  O359  1  0.804400  0.157500  0.694500  1
  O  O360  1  0.195600  0.842500  0.305500  1
  O  O361  1  0.759000  0.297000  0.891500  1
  O  O362  1  0.241000  0.703000  0.108500  1
  O  O363  1  0.462100  0.853800  0.898600  1
  O  O364  1  0.537900  0.146200  0.101400  1
  O  O365  1  0.658300  0.173600  0.975200  1
  O  O366  1  0.341700  0.826400  0.024800  1
  O  O367  1  0.800600  0.272600  0.764200  1
  O  O368  1  0.199400  0.727400  0.235800  1
  O  O369  1  0.615800  0.087300  0.883300  1.0
  O  O370  1  0.384200  0.912700  0.116700  1.0
  O  O371  1  0.722000  0.044300  0.797500  1.0
  O  O372  1  0.278000  0.955700  0.202500  1.0
  O  O373  1  0.606600  0.970000  0.867200  1.0
  O  O374  1  0.393400  0.030000  0.132800  1.0
