# generated using pymatgen
data_H67Pd2C75S7(N4O17)2
_symmetry_space_group_name_H-M   'P 1'
_cell_length_a   9.95620000
_cell_length_b   18.51830000
_cell_length_c   22.79920000
_cell_angle_alpha   74.60700000
_cell_angle_beta   87.78300000
_cell_angle_gamma   76.13400000
_symmetry_Int_Tables_number   1
_chemical_formula_structural   H67Pd2C75S7(N4O17)2
_chemical_formula_sum   'H134 Pd4 C150 S14 N16 O68'
_cell_volume   3933.24491405
_cell_formula_units_Z   2
loop_
 _symmetry_equiv_pos_site_id
 _symmetry_equiv_pos_as_xyz
  1  'x, y, z'
loop_
 _atom_site_type_symbol
 _atom_site_label
 _atom_site_symmetry_multiplicity
 _atom_site_fract_x
 _atom_site_fract_y
 _atom_site_fract_z
 _atom_site_occupancy
  H  H1  1  0.522100  0.023600  0.239600  1
  H  H2  1  0.477900  0.976400  0.760400  1
  H  H3  1  0.667400  0.070000  0.167200  1
  H  H4  1  0.332600  0.930000  0.832800  1
  H  H5  1  0.737000  0.208200  0.261900  1
  H  H6  1  0.263000  0.791800  0.738100  1
  H  H7  1  0.590100  0.163300  0.335700  1
  H  H8  1  0.409900  0.836700  0.664300  1
  H  H9  1  0.790700  0.230100  0.149400  1
  H  H10  1  0.209300  0.769900  0.850600  1
  H  H11  1  0.801300  0.159400  0.122400  1
  H  H12  1  0.198700  0.840600  0.877600  1
  H  H13  1  0.906200  0.154400  0.173700  1
  H  H14  1  0.093800  0.845600  0.826300  1
  H  H15  1  0.204200  0.199700  0.223900  1
  H  H16  1  0.795800  0.800300  0.776100  1
  H  H17  1  0.288000  0.104800  0.174900  1
  H  H18  1  0.712000  0.895200  0.825100  1
  H  H19  1  0.078900  0.236600  0.023800  1
  H  H20  1  0.921100  0.763400  0.976200  1
  H  H21  1  0.991800  0.332100  0.072000  1
  H  H22  1  0.008200  0.667900  0.928000  1
  H  H23  1  0.350400  0.077500  0.072200  1
  H  H24  1  0.649600  0.922500  0.927800  1
  H  H25  1  0.242600  0.120000  0.018400  1
  H  H26  1  0.757400  0.880000  0.981600  1
  H  H27  1  0.205600  0.057700  0.073900  1
  H  H28  1  0.794400  0.942300  0.926100  1
  H  H29  1  0.506900  0.296800  0.543900  1
  H  H30  1  0.493100  0.703200  0.456100  1
  H  H31  1  0.329900  0.403800  0.543700  1
  H  H32  1  0.670100  0.596200  0.456300  1
  H  H33  1  0.591600  0.496700  0.608800  1
  H  H34  1  0.408400  0.503300  0.391200  1
  H  H35  1  0.766700  0.390700  0.609900  1
  H  H36  1  0.233300  0.609300  0.390100  1
  H  H37  1  0.298300  0.526500  0.620000  1
  H  H38  1  0.701700  0.473500  0.380000  1
  H  H39  1  0.246200  0.528300  0.555500  1
  H  H40  1  0.753800  0.471700  0.444500  1
  H  H41  1  0.353400  0.575900  0.561400  1
  H  H42  1  0.646600  0.424100  0.438600  1
  H  H43  1  0.570400  0.123400  0.957300  1
  H  H44  1  0.429600  0.876600  0.042700  1
  H  H45  1  0.551700  0.018500  0.037100  1
  H  H46  1  0.448300  0.981500  0.962900  1
  H  H47  1  0.946200  0.991300  0.088600  1
  H  H48  1  0.053800  0.008700  0.911400  1
  H  H49  1  0.964800  0.096100  0.008800  1
  H  H50  1  0.035200  0.903900  0.991200  1
  H  H51  1  0.644400  0.917200  0.122200  1
  H  H52  1  0.355600  0.082800  0.877800  1
  H  H53  1  0.759700  0.931500  0.159700  1
  H  H54  1  0.240300  0.068500  0.840300  1
  H  H55  1  0.800500  0.879500  0.114600  1
  H  H56  1  0.199500  0.120500  0.885400  1
  H  H57  1  0.512800  0.103900  0.967500  1
  H  H58  1  0.487200  0.896100  0.032500  1
  H  H59  1  0.638700  0.011600  0.048500  1
  H  H60  1  0.361300  0.988400  0.951500  1
  H  H61  1  0.955200  0.115400  0.014400  1
  H  H62  1  0.044800  0.884600  0.985600  1
  H  H63  1  0.829300  0.207700  0.933400  1
  H  H64  1  0.170700  0.792300  0.066600  1
  H  H65  1  0.852600  0.946300  0.097600  1
  H  H66  1  0.147400  0.053700  0.902400  1
  H  H67  1  0.908600  0.005100  0.122300  1
  H  H68  1  0.091400  0.994900  0.877700  1
  H  H69  1  0.986300  0.971800  0.070600  1
  H  H70  1  0.013700  0.028200  0.929400  1
  H  H71  1  0.106600  0.128900  0.727400  1.0
  H  H72  1  0.893400  0.871100  0.272600  1.0
  H  H73  1  0.969000  0.066300  0.794600  1.0
  H  H74  1  0.031000  0.933700  0.205400  1.0
  H  H75  1  0.897700  0.965800  0.775200  1.0
  H  H76  1  0.102300  0.034200  0.224800  1.0
  H  H77  1  0.967400  0.928800  0.687300  1.0
  H  H78  1  0.032600  0.071200  0.312700  1.0
  H  H79  1  0.062600  0.894100  0.605300  1.0
  H  H80  1  0.937400  0.105900  0.394700  1.0
  H  H81  1  0.142100  0.876700  0.512100  1.0
  H  H82  1  0.857900  0.123300  0.487900  1.0
  H  H83  1  0.252300  0.965100  0.450400  1.0
  H  H84  1  0.747700  0.034900  0.549600  1.0
  H  H85  1  0.280500  0.067600  0.483000  1.0
  H  H86  1  0.719500  0.932400  0.517000  1.0
  H  H87  1  0.070000  0.280500  0.616300  1.0
  H  H88  1  0.930000  0.719500  0.383700  1.0
  H  H89  1  0.108600  0.369400  0.662400  1.0
  H  H90  1  0.891400  0.630600  0.337600  1.0
  H  H91  1  0.472400  0.228000  0.725400  1.0
  H  H92  1  0.527600  0.772000  0.274600  1.0
  H  H93  1  0.426100  0.142400  0.677000  1.0
  H  H94  1  0.573900  0.857600  0.323000  1.0
  H  H95  1  0.125300  0.417900  0.741400  1.0
  H  H96  1  0.874700  0.582100  0.258600  1.0
  H  H97  1  0.173600  0.503700  0.788600  1.0
  H  H98  1  0.826400  0.496300  0.211400  1.0
  H  H99  1  0.569600  0.425800  0.773900  1.0
  H  H100  1  0.430400  0.574200  0.226100  1.0
  H  H101  1  0.531300  0.338300  0.726400  1.0
  H  H102  1  0.468700  0.661700  0.273600  1.0
  H  H103  1  0.123800  0.265900  0.502500  1.0
  H  H104  1  0.876200  0.734100  0.497500  1.0
  H  H105  1  0.196800  0.339900  0.416300  1.0
  H  H106  1  0.803200  0.660100  0.583700  1.0
  H  H107  1  0.570200  0.195200  0.447300  1.0
  H  H108  1  0.429800  0.804800  0.552700  1.0
  H  H109  1  0.488800  0.124700  0.532900  1.0
  H  H110  1  0.511200  0.875300  0.467100  1.0
  H  H111  1  0.249500  0.361900  0.319900  1.0
  H  H112  1  0.750500  0.638100  0.680100  1.0
  H  H113  1  0.322100  0.425300  0.228800  1.0
  H  H114  1  0.677900  0.574700  0.771200  1.0
  H  H115  1  0.706800  0.357900  0.288600  1.0
  H  H116  1  0.293200  0.642100  0.711400  1.0
  H  H117  1  0.642600  0.293500  0.381800  1.0
  H  H118  1  0.357400  0.706500  0.618200  1.0
  H  H119  1  0.447500  0.316700  0.177300  1.0
  H  H120  1  0.552500  0.683300  0.822700  1.0
  H  H121  1  0.422100  0.240600  0.115700  1.0
  H  H122  1  0.577900  0.759400  0.884300  1.0
  H  H123  1  0.516800  0.260800  0.020200  1.0
  H  H124  1  0.483200  0.739200  0.979800  1.0
  H  H125  1  0.633400  0.358200  0.988200  1.0
  H  H126  1  0.366600  0.641800  0.011800  1.0
  H  H127  1  0.742500  0.452000  0.964500  1.0
  H  H128  1  0.257500  0.548000  0.035500  1.0
  H  H129  1  0.839500  0.558400  0.945300  1.0
  H  H130  1  0.160500  0.441600  0.054700  1.0
  H  H131  1  0.813600  0.630700  0.014400  1.0
  H  H132  1  0.186400  0.369300  0.985600  1.0
  H  H133  1  0.701400  0.594300  0.103000  1.0
  H  H134  1  0.298600  0.405700  0.897000  1.0
  Pd  Pd135  1  0.215630  0.126170  0.598920  1.0
  Pd  Pd136  1  0.784370  0.873830  0.401080  1.0
  Pd  Pd137  1  0.585910  0.453340  0.169060  1.0
  Pd  Pd138  1  0.414090  0.546660  0.830940  1.0
  C  C139  1  0.539300  0.088700  0.295600  1
  C  C140  1  0.460700  0.911300  0.704400  1
  C  C141  1  0.564500  0.061300  0.244600  1
  C  C142  1  0.435500  0.938700  0.755400  1
  C  C143  1  0.651900  0.089400  0.201200  1
  C  C144  1  0.348100  0.910600  0.798800  1
  C  C145  1  0.716800  0.144400  0.205900  1
  C  C146  1  0.283200  0.855600  0.794100  1
  C  C147  1  0.693000  0.171100  0.257100  1
  C  C148  1  0.307000  0.828900  0.742900  1
  C  C149  1  0.604900  0.144100  0.301600  1
  C  C150  1  0.395100  0.855900  0.698400  1
  C  C151  1  0.812300  0.174800  0.158600  1
  C  C152  1  0.187700  0.825200  0.841400  1
  C  C153  1  0.088100  0.275400  0.152500  1
  C  C154  1  0.911900  0.724600  0.847500  1
  C  C155  1  0.178400  0.207200  0.183600  1
  C  C156  1  0.821600  0.792800  0.816400  1
  C  C157  1  0.229100  0.150800  0.153900  1
  C  C158  1  0.770900  0.849200  0.846100  1
  C  C159  1  0.194800  0.160900  0.094200  1
  C  C160  1  0.805200  0.839100  0.905800  1
  C  C161  1  0.104500  0.229200  0.064200  1
  C  C162  1  0.895500  0.770800  0.935800  1
  C  C163  1  0.051700  0.286400  0.092900  1
  C  C164  1  0.948300  0.713600  0.907100  1
  C  C165  1  0.253800  0.098200  0.061700  1
  C  C166  1  0.746200  0.901800  0.938300  1
  C  C167  1  0.655700  0.333000  0.576700  1
  C  C168  1  0.344300  0.667000  0.423300  1
  C  C169  1  0.524600  0.337100  0.557200  1
  C  C170  1  0.475400  0.662900  0.442800  1
  C  C171  1  0.418100  0.401400  0.557300  1
  C  C172  1  0.581900  0.598600  0.442700  1
  C  C173  1  0.440600  0.461200  0.577000  1
  C  C174  1  0.559400  0.538800  0.423000  1
  C  C175  1  0.573200  0.456300  0.595900  1
  C  C176  1  0.426800  0.543700  0.404100  1
  C  C177  1  0.678600  0.392900  0.596200  1
  C  C178  1  0.321400  0.607100  0.403800  1
  C  C179  1  0.324200  0.529100  0.578600  1
  C  C180  1  0.675800  0.470900  0.421400  1
  C  C181  1  0.769400  0.120100  0.975200  1
  C  C182  1  0.230600  0.879900  0.024800  1
  C  C183  1  0.645700  0.096900  0.983700  1
  C  C184  1  0.354300  0.903100  0.016300  1
  C  C185  1  0.634500  0.034100  0.031400  1
  C  C186  1  0.365500  0.965900  0.968600  1
  C  C187  1  0.747100  0.994500  0.070800  1
  C  C188  1  0.252900  0.005500  0.929200  1
  C  C189  1  0.870800  0.017700  0.062300  1
  C  C190  1  0.129200  0.982300  0.937700  1
  C  C191  1  0.882000  0.080500  0.014500  1
  C  C192  1  0.118000  0.919500  0.985500  1
  C  C193  1  0.737000  0.924200  0.121500  1
  C  C194  1  0.263000  0.075800  0.878500  1
  C  C195  1  0.658500  0.164900  0.942400  1
  C  C196  1  0.341500  0.835100  0.057600  1
  C  C197  1  0.601500  0.106200  0.976900  1
  C  C198  1  0.398500  0.893800  0.023100  1
  C  C199  1  0.676900  0.050900  0.025500  1
  C  C200  1  0.323100  0.949100  0.974500  1
  C  C201  1  0.809500  0.054300  0.039500  1
  C  C202  1  0.190500  0.945700  0.960500  1
  C  C203  1  0.866600  0.113100  0.005000  1
  C  C204  1  0.133400  0.886900  0.995000  1
  C  C205  1  0.791100  0.168400  0.956500  1
  C  C206  1  0.208900  0.831600  0.043500  1
  C  C207  1  0.897000  0.988400  0.086800  1
  C  C208  1  0.103000  0.011600  0.913200  1
  C  C209  1  0.077600  0.088500  0.718890  1.0
  C  C210  1  0.922400  0.911500  0.281110  1.0
  C  C211  1  0.995700  0.051000  0.759400  1.0
  C  C212  1  0.004300  0.949000  0.240600  1.0
  C  C213  1  0.953600  0.991600  0.748000  1.0
  C  C214  1  0.046400  0.008400  0.252000  1.0
  C  C215  1  0.994600  0.969900  0.695500  1.0
  C  C216  1  0.005400  0.030100  0.304500  1.0
  C  C217  1  0.076000  0.009100  0.655400  1.0
  C  C218  1  0.924000  0.990900  0.344600  1.0
  C  C219  1  0.123700  0.992200  0.597630  1.0
  C  C220  1  0.876300  0.007800  0.402370  1.0
  C  C221  1  0.106400  0.929300  0.579900  1.0
  C  C222  1  0.893600  0.070700  0.420100  1.0
  C  C223  1  0.154000  0.918700  0.524600  1.0
  C  C224  1  0.846000  0.081300  0.475400  1.0
  C  C225  1  0.219400  0.971200  0.487900  1.0
  C  C226  1  0.780600  0.028800  0.512100  1.0
  C  C227  1  0.235300  0.032600  0.507600  1.0
  C  C228  1  0.764700  0.967400  0.492400  1.0
  C  C229  1  0.152000  0.270000  0.638500  1.0
  C  C230  1  0.848000  0.730000  0.361500  1.0
  C  C231  1  0.174800  0.323300  0.666100  1.0
  C  C232  1  0.825200  0.676700  0.333900  1.0
  C  C233  1  0.295700  0.309100  0.699590  1.0
  C  C234  1  0.704300  0.690900  0.300410  1.0
  C  C235  1  0.389800  0.240000  0.703300  1.0
  C  C236  1  0.610200  0.760000  0.296700  1.0
  C  C237  1  0.361300  0.188800  0.674200  1.0
  C  C238  1  0.638700  0.811200  0.325800  1.0
  C  C239  1  0.323100  0.365900  0.729670  1.0
  C  C240  1  0.676900  0.634100  0.270330  1.0
  C  C241  1  0.216900  0.417800  0.748200  1.0
  C  C242  1  0.783100  0.582200  0.251800  1.0
  C  C243  1  0.246300  0.469200  0.776500  1.0
  C  C244  1  0.753700  0.530800  0.223500  1.0
  C  C245  1  0.479100  0.423400  0.767900  1.0
  C  C246  1  0.520900  0.576600  0.232100  1.0
  C  C247  1  0.456600  0.370800  0.739400  1.0
  C  C248  1  0.543400  0.629200  0.260600  1.0
  C  C249  1  0.214500  0.251000  0.490700  1.0
  C  C250  1  0.785500  0.749000  0.509300  1.0
  C  C251  1  0.257800  0.295600  0.438800  1.0
  C  C252  1  0.742200  0.704400  0.561200  1.0
  C  C253  1  0.392300  0.275000  0.419830  1.0
  C  C254  1  0.607700  0.725000  0.580170  1.0
  C  C255  1  0.478000  0.210200  0.457200  1.0
  C  C256  1  0.522000  0.789800  0.542800  1.0
  C  C257  1  0.428700  0.167900  0.508620  1.0
  C  C258  1  0.571300  0.832100  0.491380  1.0
  C  C259  1  0.437600  0.318700  0.361690  1.0
  C  C260  1  0.562400  0.681300  0.638310  1.0
  C  C261  1  0.343200  0.360000  0.314430  1.0
  C  C262  1  0.656800  0.640000  0.685570  1.0
  C  C263  1  0.387200  0.397900  0.259860  1.0
  C  C264  1  0.612800  0.602100  0.740140  1.0
  C  C265  1  0.613800  0.358300  0.295200  1.0
  C  C266  1  0.386200  0.641700  0.704800  1.0
  C  C267  1  0.575900  0.319400  0.351140  1.0
  C  C268  1  0.424100  0.680600  0.648860  1.0
  C  C269  1  0.485000  0.325100  0.138800  1.0
  C  C270  1  0.515000  0.674900  0.861200  1.0
  C  C271  1  0.469600  0.279200  0.102300  1.0
  C  C272  1  0.530400  0.720800  0.897700  1.0
  C  C273  1  0.525500  0.291400  0.045600  1.0
  C  C274  1  0.474500  0.708600  0.954400  1.0
  C  C275  1  0.594700  0.349500  0.026500  1.0
  C  C276  1  0.405300  0.650500  0.973500  1.0
  C  C277  1  0.606100  0.394000  0.064290  1.0
  C  C278  1  0.393900  0.606000  0.935710  1.0
  C  C279  1  0.671100  0.459900  0.047530  1.0
  C  C280  1  0.328900  0.540100  0.952470  1.0
  C  C281  1  0.736400  0.480600  0.992900  1.0
  C  C282  1  0.263600  0.519400  0.007100  1.0
  C  C283  1  0.792600  0.544600  0.981100  1.0
  C  C284  1  0.207400  0.455400  0.018900  1.0
  C  C285  1  0.778400  0.586900  0.022200  1.0
  C  C286  1  0.221600  0.413100  0.977800  1.0
  C  C287  1  0.711800  0.564500  0.075400  1.0
  C  C288  1  0.288200  0.435500  0.924600  1.0
  S  S289  1  0.423100  0.058100  0.351000  1
  S  S290  1  0.576900  0.941900  0.649000  1
  S  S291  1  0.014800  0.351300  0.194400  1
  S  S292  1  0.985200  0.648700  0.805600  1
  S  S293  1  0.792160  0.251980  0.577370  1
  S  S294  1  0.207840  0.748020  0.422630  1
  S  S295  1  0.783900  0.198900  0.913140  1
  S  S296  1  0.216100  0.801100  0.086860  1
  S  S297  1  0.430500  0.048900  0.352900  1
  S  S298  1  0.569500  0.951100  0.647100  1
  S  S299  1  0.019200  0.344700  0.183400  1
  S  S300  1  0.980800  0.655300  0.816600  1
  S  S301  1  0.572200  0.238000  0.881600  1
  S  S302  1  0.427800  0.762000  0.118400  1
  N  N303  1  0.117300  0.068600  0.667500  1.0
  N  N304  1  0.882700  0.931400  0.332500  1.0
  N  N305  1  0.187600  0.043700  0.561060  1.0
  N  N306  1  0.812400  0.956300  0.438940  1.0
  N  N307  1  0.244800  0.203200  0.642450  1.0
  N  N308  1  0.755200  0.796800  0.357550  1.0
  N  N309  1  0.297500  0.186540  0.525020  1.0
  N  N310  1  0.702500  0.813460  0.474980  1.0
  N  N311  1  0.520900  0.396760  0.249850  1.0
  N  N312  1  0.479100  0.603240  0.750150  1.0
  N  N313  1  0.552100  0.381550  0.120780  1.0
  N  N314  1  0.447900  0.618450  0.879220  1.0
  N  N315  1  0.661500  0.501710  0.088960  1.0
  N  N316  1  0.338500  0.498290  0.911040  1.0
  N  N317  1  0.375600  0.471100  0.787380  1.0
  N  N318  1  0.624400  0.528900  0.212620  1.0
  O  O319  1  0.366700  0.116600  0.378000  1
  O  O320  1  0.633300  0.883400  0.622000  1
  O  O321  1  0.497000  0.986900  0.389000  1
  O  O322  1  0.503000  0.013100  0.611000  1
  O  O323  1  0.311500  0.043100  0.314200  1
  O  O324  1  0.688500  0.956900  0.685800  1
  O  O325  1  0.079200  0.337900  0.237600  1
  O  O326  1  0.920800  0.662100  0.762400  1
  O  O327  1  0.875100  0.365700  0.183600  1
  O  O328  1  0.124900  0.634300  0.816400  1
  O  O329  1  0.992700  0.420500  0.145700  1
  O  O330  1  0.007300  0.579500  0.854300  1
  O  O331  1  0.842600  0.220700  0.639400  1
  O  O332  1  0.157400  0.779300  0.360600  1
  O  O333  1  0.734900  0.200200  0.554600  1
  O  O334  1  0.265100  0.799800  0.445400  1
  O  O335  1  0.897800  0.282000  0.539000  1
  O  O336  1  0.102200  0.718000  0.461000  1
  O  O337  1  0.670600  0.257000  0.907900  1
  O  O338  1  0.329400  0.743000  0.092100  1
  O  O339  1  0.805200  0.167500  0.861900  1
  O  O340  1  0.194800  0.832500  0.138100  1
  O  O341  1  0.903600  0.225200  0.926000  1
  O  O342  1  0.096400  0.774800  0.074000  1
  O  O343  1  0.371300  0.923100  0.184900  1
  O  O344  1  0.628700  0.076900  0.815100  1
  O  O345  1  0.325600  0.894800  0.304700  1
  O  O346  1  0.674400  0.105200  0.695300  1
  O  O347  1  0.953100  0.401800  0.335410  1
  O  O348  1  0.046900  0.598200  0.664590  1
  O  O349  1  0.882000  0.275200  0.415480  1
  O  O350  1  0.118000  0.724800  0.584520  1
  O  O351  1  0.082300  0.549200  0.164900  1
  O  O352  1  0.917700  0.450800  0.835100  1
  O  O353  1  0.314800  0.583800  0.122100  1
  O  O354  1  0.685200  0.416200  0.877900  1
  O  O355  1  0.165500  0.577200  0.270100  1
  O  O356  1  0.834500  0.422800  0.729900  1
  O  O357  1  0.927400  0.503300  0.620100  1
  O  O358  1  0.072600  0.496700  0.379900  1
  O  O359  1  0.825500  0.269600  0.745300  1
  O  O360  1  0.174500  0.730400  0.254700  1
  O  O361  1  0.085700  0.197600  0.353000  1
  O  O362  1  0.914300  0.802400  0.647000  1
  O  O363  1  0.472600  0.070300  0.409400  1
  O  O364  1  0.527400  0.929700  0.590600  1
  O  O365  1  0.474300  0.967600  0.366100  1
  O  O366  1  0.525700  0.032400  0.633900  1
  O  O367  1  0.298800  0.082700  0.334000  1
  O  O368  1  0.701200  0.917300  0.666000  1
  O  O369  1  0.088900  0.320700  0.253500  1
  O  O370  1  0.911100  0.679300  0.746500  1
  O  O371  1  0.881700  0.331500  0.211500  1
  O  O372  1  0.118300  0.668500  0.788500  1
  O  O373  1  0.099100  0.406400  0.165400  1
  O  O374  1  0.900900  0.593600  0.834600  1
  O  O375  1  0.560000  0.301500  0.893800  1
  O  O376  1  0.440000  0.698500  0.106200  1
  O  O377  1  0.395700  0.251000  0.894500  1
  O  O378  1  0.604300  0.749000  0.105500  1
  O  O379  1  0.616000  0.216700  0.830900  1
  O  O380  1  0.384000  0.783300  0.169100  1
  O  O381  1  0.082600  0.215100  0.813000  1
  O  O382  1  0.917400  0.784900  0.187000  1
  O  O383  1  0.007300  0.434800  0.522100  1
  O  O384  1  0.992700  0.565200  0.477900  1
  O  O385  1  0.118800  0.300700  0.893000  1
  O  O386  1  0.881200  0.699300  0.107000  1
