# generated using pymatgen
data_H64Pd2C70S4N8O19
_symmetry_space_group_name_H-M   'P 1'
_cell_length_a   17.58210000
_cell_length_b   19.06780000
_cell_length_c   22.47770000
_cell_angle_alpha   104.86700000
_cell_angle_beta   90.00000000
_cell_angle_gamma   90.00000000
_symmetry_Int_Tables_number   1
_chemical_formula_structural   H64Pd2C70S4N8O19
_chemical_formula_sum   'H256 Pd8 C280 S16 N32 O76'
_cell_volume   7283.42838888
_cell_formula_units_Z   4
loop_
 _symmetry_equiv_pos_site_id
 _symmetry_equiv_pos_as_xyz
  1  'x, y, z'
loop_
 _atom_site_type_symbol
 _atom_site_label
 _atom_site_symmetry_multiplicity
 _atom_site_fract_x
 _atom_site_fract_y
 _atom_site_fract_z
 _atom_site_occupancy
  H  H1  1  0.348300  0.958200  0.579400  1
  H  H2  1  0.848300  0.541800  0.420600  1
  H  H3  1  0.651700  0.041800  0.420600  1
  H  H4  1  0.151700  0.458200  0.579400  1
  H  H5  1  0.397200  0.069000  0.576000  1
  H  H6  1  0.897200  0.431000  0.424000  1
  H  H7  1  0.602800  0.931000  0.424000  1
  H  H8  1  0.102800  0.569000  0.576000  1
  H  H9  1  0.413000  0.001200  0.393400  1
  H  H10  1  0.913000  0.498800  0.606600  1
  H  H11  1  0.587000  0.998800  0.606600  1
  H  H12  1  0.087000  0.501200  0.393400  1
  H  H13  1  0.363000  0.891600  0.397300  1
  H  H14  1  0.863000  0.608400  0.602700  1
  H  H15  1  0.637000  0.108400  0.602700  1
  H  H16  1  0.137000  0.391600  0.397300  1
  H  H17  1  0.417800  0.158100  0.514700  1
  H  H18  1  0.917800  0.341900  0.485300  1
  H  H19  1  0.582200  0.841900  0.485300  1
  H  H20  1  0.082200  0.658100  0.514700  1
  H  H21  1  0.427100  0.130500  0.443200  1
  H  H22  1  0.927100  0.369500  0.556800  1
  H  H23  1  0.572900  0.869500  0.556800  1
  H  H24  1  0.072900  0.630500  0.443200  1
  H  H25  1  0.494300  0.122000  0.486600  1
  H  H26  1  0.994300  0.378000  0.513400  1
  H  H27  1  0.505700  0.878000  0.513400  1
  H  H28  1  0.005700  0.622000  0.486600  1
  H  H29  1  0.442000  0.784900  0.779700  1
  H  H30  1  0.942000  0.715100  0.220300  1
  H  H31  1  0.558000  0.215100  0.220300  1
  H  H32  1  0.058000  0.284900  0.779700  1
  H  H33  1  0.553800  0.819700  0.830300  1
  H  H34  1  0.053800  0.680300  0.169700  1
  H  H35  1  0.446200  0.180300  0.169700  1
  H  H36  1  0.946200  0.319700  0.830300  1
  H  H37  1  0.458900  0.999800  0.928500  1
  H  H38  1  0.958900  0.500200  0.071500  1
  H  H39  1  0.541100  0.000200  0.071500  1
  H  H40  1  0.041100  0.499800  0.928500  1
  H  H41  1  0.344200  0.966900  0.878900  1
  H  H42  1  0.844200  0.533100  0.121100  1
  H  H43  1  0.655800  0.033100  0.121100  1
  H  H44  1  0.155800  0.466900  0.878900  1
  H  H45  1  0.601000  0.981500  0.931300  1
  H  H46  1  0.101000  0.518500  0.068700  1
  H  H47  1  0.399000  0.018500  0.068700  1
  H  H48  1  0.899000  0.481500  0.931300  1
  H  H49  1  0.633200  0.904100  0.900000  1
  H  H50  1  0.133200  0.595900  0.100000  1
  H  H51  1  0.366800  0.095900  0.100000  1
  H  H52  1  0.866800  0.404100  0.900000  1
  H  H53  1  0.588200  0.917400  0.962100  1
  H  H54  1  0.088200  0.582600  0.037900  1
  H  H55  1  0.411800  0.082600  0.037900  1
  H  H56  1  0.911800  0.417400  0.962100  1
  H  H57  1  0.648600  0.246500  0.669000  1
  H  H58  1  0.148600  0.253500  0.331000  1
  H  H59  1  0.351400  0.753500  0.331000  1
  H  H60  1  0.851400  0.746500  0.669000  1
  H  H61  1  0.526000  0.221800  0.635700  1
  H  H62  1  0.026000  0.278200  0.364300  1
  H  H63  1  0.474000  0.778200  0.364300  1
  H  H64  1  0.974000  0.721800  0.635700  1
  H  H65  1  0.449700  0.283800  0.806500  1
  H  H66  1  0.949700  0.216200  0.193500  1
  H  H67  1  0.550300  0.716200  0.193500  1
  H  H68  1  0.050300  0.783800  0.806500  1
  H  H69  1  0.572100  0.306500  0.842700  1
  H  H70  1  0.072100  0.193500  0.157300  1
  H  H71  1  0.427900  0.693500  0.157300  1
  H  H72  1  0.927900  0.806500  0.842700  1
  H  H73  1  0.386300  0.259200  0.662400  1
  H  H74  1  0.886300  0.240800  0.337600  1
  H  H75  1  0.613700  0.740800  0.337600  1
  H  H76  1  0.113700  0.759200  0.662400  1
  H  H77  1  0.360500  0.256000  0.728400  1
  H  H78  1  0.860500  0.244000  0.271600  1
  H  H79  1  0.639500  0.744000  0.271600  1
  H  H80  1  0.139500  0.756000  0.728400  1
  H  H81  1  0.386900  0.185100  0.680400  1
  H  H82  1  0.886900  0.314900  0.319600  1
  H  H83  1  0.613100  0.814900  0.319600  1
  H  H84  1  0.113100  0.685100  0.680400  1
  H  H85  1  0.698000  0.737800  0.921500  1
  H  H86  1  0.198000  0.762200  0.078500  1
  H  H87  1  0.302000  0.262200  0.078500  1
  H  H88  1  0.802000  0.237800  0.921500  1
  H  H89  1  0.816500  0.699600  0.883100  1
  H  H90  1  0.316500  0.800400  0.116900  1
  H  H91  1  0.183500  0.300400  0.116900  1
  H  H92  1  0.683500  0.199600  0.883100  1
  H  H93  1  0.875900  0.669200  0.045500  1
  H  H94  1  0.375900  0.830800  0.954500  1
  H  H95  1  0.124100  0.330800  0.954500  1
  H  H96  1  0.624100  0.169200  0.045500  1
  H  H97  1  0.757000  0.706600  0.084500  1
  H  H98  1  0.257000  0.793400  0.915500  1
  H  H99  1  0.243000  0.293400  0.915500  1
  H  H100  1  0.743000  0.206600  0.084500  1
  H  H101  1  0.956800  0.686500  0.913600  1
  H  H102  1  0.456800  0.813500  0.086400  1
  H  H103  1  0.043200  0.313500  0.086400  1
  H  H104  1  0.543200  0.186500  0.913600  1
  H  H105  1  0.932000  0.605900  0.906900  1
  H  H106  1  0.432000  0.894100  0.093100  1
  H  H107  1  0.068000  0.394100  0.093100  1
  H  H108  1  0.568000  0.105900  0.906900  1
  H  H109  1  0.969400  0.650600  0.968300  1
  H  H110  1  0.469400  0.849400  0.031700  1
  H  H111  1  0.030600  0.349400  0.031700  1
  H  H112  1  0.530600  0.150600  0.968300  1
  H  H113  1  0.031500  0.788500  0.484200  1
  H  H114  1  0.531500  0.711500  0.515800  1
  H  H115  1  0.968500  0.211500  0.515800  1
  H  H116  1  0.468500  0.288500  0.484200  1
  H  H117  1  0.966800  0.804700  0.534000  1
  H  H118  1  0.466800  0.695300  0.466000  1
  H  H119  1  0.033200  0.195300  0.466000  1
  H  H120  1  0.533200  0.304700  0.534000  1
  H  H121  1  0.051900  0.820400  0.553800  1
  H  H122  1  0.551900  0.679600  0.446200  1
  H  H123  1  0.948100  0.179600  0.446200  1
  H  H124  1  0.448100  0.320400  0.553800  1
  H  H125  1  0.009000  0.942000  0.448000  1
  H  H126  1  0.509000  0.558000  0.552000  1
  H  H127  1  0.991000  0.058000  0.552000  1
  H  H128  1  0.491000  0.442000  0.448000  1
  H  H129  1  0.463100  0.624000  0.694800  1.0
  H  H130  1  0.963100  0.876000  0.305200  1.0
  H  H131  1  0.536900  0.376000  0.305200  1.0
  H  H132  1  0.036900  0.124000  0.694800  1.0
  H  H133  1  0.590400  0.653300  0.716600  1.0
  H  H134  1  0.090400  0.846700  0.283400  1.0
  H  H135  1  0.409600  0.346700  0.283400  1.0
  H  H136  1  0.909600  0.153300  0.716600  1.0
  H  H137  1  0.632400  0.677100  0.816300  1.0
  H  H138  1  0.132400  0.822900  0.183700  1.0
  H  H139  1  0.367600  0.322900  0.183700  1.0
  H  H140  1  0.867600  0.177100  0.816300  1.0
  H  H141  1  0.548200  0.671100  0.893600  1.0
  H  H142  1  0.048200  0.828900  0.106400  1.0
  H  H143  1  0.451800  0.328900  0.106400  1.0
  H  H144  1  0.951800  0.171100  0.893600  1.0
  H  H145  1  0.462500  0.656100  0.961000  1.0
  H  H146  1  0.962500  0.843900  0.039000  1.0
  H  H147  1  0.537500  0.343900  0.039000  1.0
  H  H148  1  0.037500  0.156100  0.961000  1.0
  H  H149  1  0.366500  0.633900  0.024700  1.0
  H  H150  1  0.866500  0.866100  0.975300  1.0
  H  H151  1  0.633500  0.366100  0.975300  1.0
  H  H152  1  0.133500  0.133900  0.024700  1.0
  H  H153  1  0.249600  0.596100  0.983400  1.0
  H  H154  1  0.749600  0.903900  0.016600  1.0
  H  H155  1  0.750400  0.403900  0.016600  1.0
  H  H156  1  0.250400  0.096100  0.983400  1.0
  H  H157  1  0.229100  0.582800  0.880900  1.0
  H  H158  1  0.729100  0.917200  0.119100  1.0
  H  H159  1  0.770900  0.417200  0.119100  1.0
  H  H160  1  0.270900  0.082800  0.880900  1.0
  H  H161  1  0.294500  0.700300  0.679200  1.0
  H  H162  1  0.794500  0.799700  0.320800  1.0
  H  H163  1  0.705500  0.299700  0.320800  1.0
  H  H164  1  0.205500  0.200300  0.679200  1.0
  H  H165  1  0.287600  0.687000  0.575200  1.0
  H  H166  1  0.787600  0.813000  0.424800  1.0
  H  H167  1  0.712400  0.313000  0.424800  1.0
  H  H168  1  0.212400  0.187000  0.575200  1.0
  H  H169  1  0.335200  0.476800  0.550800  1.0
  H  H170  1  0.835200  0.023200  0.449200  1.0
  H  H171  1  0.664800  0.523200  0.449200  1.0
  H  H172  1  0.164800  0.976800  0.550800  1.0
  H  H173  1  0.341400  0.495100  0.653400  1.0
  H  H174  1  0.841400  0.004900  0.346600  1.0
  H  H175  1  0.658600  0.504900  0.346600  1.0
  H  H176  1  0.158600  0.995100  0.653400  1.0
  H  H177  1  0.285800  0.669300  0.477000  1.0
  H  H178  1  0.785800  0.830700  0.523000  1.0
  H  H179  1  0.714200  0.330700  0.523000  1.0
  H  H180  1  0.214200  0.169300  0.477000  1.0
  H  H181  1  0.279000  0.645000  0.371800  1.0
  H  H182  1  0.779000  0.855000  0.628200  1.0
  H  H183  1  0.721000  0.355000  0.628200  1.0
  H  H184  1  0.221000  0.145000  0.371800  1.0
  H  H185  1  0.304900  0.438100  0.356100  1.0
  H  H186  1  0.804900  0.061900  0.643900  1.0
  H  H187  1  0.695100  0.561900  0.643900  1.0
  H  H188  1  0.195100  0.938100  0.356100  1.0
  H  H189  1  0.314600  0.457400  0.460200  1.0
  H  H190  1  0.814600  0.042600  0.539800  1.0
  H  H191  1  0.685400  0.542600  0.539800  1.0
  H  H192  1  0.185400  0.957400  0.460200  1.0
  H  H193  1  0.783700  0.516400  0.291500  1.0
  H  H194  1  0.283700  0.983600  0.708500  1.0
  H  H195  1  0.216300  0.483600  0.708500  1.0
  H  H196  1  0.716300  0.016400  0.291500  1.0
  H  H197  1  0.910400  0.542400  0.301400  1.0
  H  H198  1  0.410400  0.957600  0.698600  1.0
  H  H199  1  0.089600  0.457600  0.698600  1.0
  H  H200  1  0.589600  0.042400  0.301400  1.0
  H  H201  1  0.953800  0.351100  0.185000  1.0
  H  H202  1  0.453800  0.148900  0.815000  1.0
  H  H203  1  0.046200  0.648900  0.815000  1.0
  H  H204  1  0.546200  0.851100  0.185000  1.0
  H  H205  1  0.826400  0.324800  0.181600  1.0
  H  H206  1  0.326400  0.175200  0.818400  1.0
  H  H207  1  0.173600  0.675200  0.818400  1.0
  H  H208  1  0.673600  0.824800  0.181600  1.0
  H  H209  1  0.022800  0.572800  0.262200  1.0
  H  H210  1  0.522800  0.927200  0.737800  1.0
  H  H211  1  0.977200  0.427200  0.737800  1.0
  H  H212  1  0.477200  0.072800  0.262200  1.0
  H  H213  1  0.149700  0.597700  0.266800  1.0
  H  H214  1  0.649700  0.902300  0.733200  1.0
  H  H215  1  0.850300  0.402300  0.733200  1.0
  H  H216  1  0.350300  0.097700  0.266800  1.0
  H  H217  1  0.195900  0.392600  0.246700  1.0
  H  H218  1  0.695900  0.107400  0.753300  1.0
  H  H219  1  0.804100  0.607400  0.753300  1.0
  H  H220  1  0.304100  0.892600  0.246700  1.0
  H  H221  1  0.069200  0.363600  0.240000  1.0
  H  H222  1  0.569200  0.136400  0.760000  1.0
  H  H223  1  0.930800  0.636400  0.760000  1.0
  H  H224  1  0.430800  0.863600  0.240000  1.0
  H  H225  1  0.211700  0.473900  0.137600  1.0
  H  H226  1  0.711700  0.026100  0.862400  1.0
  H  H227  1  0.788300  0.526100  0.862400  1.0
  H  H228  1  0.288300  0.973900  0.137600  1.0
  H  H229  1  0.241600  0.455800  0.034200  1.0
  H  H230  1  0.741600  0.044200  0.965800  1.0
  H  H231  1  0.758400  0.544200  0.965800  1.0
  H  H232  1  0.258400  0.955800  0.034200  1.0
  H  H233  1  0.366100  0.468500  0.006100  1.0
  H  H234  1  0.866100  0.031500  0.993900  1.0
  H  H235  1  0.633900  0.531500  0.993900  1.0
  H  H236  1  0.133900  0.968500  0.006100  1.0
  H  H237  1  0.458000  0.502600  0.081500  1.0
  H  H238  1  0.958000  0.997400  0.918500  1.0
  H  H239  1  0.542000  0.497400  0.918500  1.0
  H  H240  1  0.042000  0.002600  0.081500  1.0
  H  H241  1  0.539700  0.534400  0.157300  1.0
  H  H242  1  0.039700  0.965600  0.842700  1.0
  H  H243  1  0.460300  0.465600  0.842700  1.0
  H  H244  1  0.960300  0.034400  0.157300  1.0
  H  H245  1  0.615800  0.570000  0.244200  1.0
  H  H246  1  0.115800  0.930000  0.755800  1.0
  H  H247  1  0.384200  0.430000  0.755800  1.0
  H  H248  1  0.884200  0.070000  0.244200  1.0
  H  H249  1  0.563700  0.586800  0.339100  1.0
  H  H250  1  0.063700  0.913200  0.660900  1.0
  H  H251  1  0.436300  0.413200  0.660900  1.0
  H  H252  1  0.936300  0.086800  0.339100  1.0
  H  H253  1  0.435700  0.566600  0.348900  1.0
  H  H254  1  0.935700  0.933400  0.651100  1.0
  H  H255  1  0.564300  0.433400  0.651100  1.0
  H  H256  1  0.064300  0.066600  0.348900  1.0
  Pd  Pd257  1  0.298670  0.519820  0.261080  1.0
  Pd  Pd258  1  0.798670  0.980180  0.738920  1.0
  Pd  Pd259  1  0.701330  0.480180  0.738920  1.0
  Pd  Pd260  1  0.201330  0.019820  0.261080  1.0
  Pd  Pd261  1  0.319920  0.606180  0.768950  1.0
  Pd  Pd262  1  0.819920  0.893820  0.231050  1.0
  Pd  Pd263  1  0.680080  0.393820  0.231050  1.0
  Pd  Pd264  1  0.180080  0.106180  0.768950  1.0
  C  C265  1  0.349200  0.914400  0.488600  1
  C  C266  1  0.849200  0.585600  0.511400  1
  C  C267  1  0.650800  0.085600  0.511400  1
  C  C268  1  0.150800  0.414400  0.488600  1
  C  C269  1  0.360600  0.967000  0.541800  1
  C  C270  1  0.860600  0.533000  0.458200  1
  C  C271  1  0.639400  0.033000  0.458200  1
  C  C272  1  0.139400  0.467000  0.541800  1
  C  C273  1  0.390100  0.033100  0.539600  1
  C  C274  1  0.890100  0.466900  0.460400  1
  C  C275  1  0.609900  0.966900  0.460400  1
  C  C276  1  0.109900  0.533100  0.539600  1
  C  C277  1  0.409500  0.047000  0.484200  1
  C  C278  1  0.909500  0.453000  0.515800  1
  C  C279  1  0.590500  0.953000  0.515800  1
  C  C280  1  0.090500  0.547000  0.484200  1
  C  C281  1  0.399500  0.993200  0.431200  1
  C  C282  1  0.899500  0.506800  0.568800  1
  C  C283  1  0.600500  0.006800  0.568800  1
  C  C284  1  0.100500  0.493200  0.431200  1
  C  C285  1  0.369600  0.927700  0.433600  1
  C  C286  1  0.869600  0.572300  0.566400  1
  C  C287  1  0.630400  0.072300  0.566400  1
  C  C288  1  0.130400  0.427700  0.433600  1
  C  C289  1  0.440000  0.121300  0.482000  1
  C  C290  1  0.940000  0.378700  0.518000  1
  C  C291  1  0.560000  0.878700  0.518000  1
  C  C292  1  0.060000  0.621300  0.482000  1
  C  C293  1  0.379600  0.871100  0.824500  1
  C  C294  1  0.879600  0.628900  0.175500  1
  C  C295  1  0.620400  0.128900  0.175500  1
  C  C296  1  0.120400  0.371100  0.824500  1
  C  C297  1  0.444200  0.828100  0.810400  1
  C  C298  1  0.944200  0.671900  0.189600  1
  C  C299  1  0.555800  0.171900  0.189600  1
  C  C300  1  0.055800  0.328100  0.810400  1
  C  C301  1  0.511100  0.848900  0.841300  1
  C  C302  1  0.011100  0.651100  0.158700  1
  C  C303  1  0.488900  0.151100  0.158700  1
  C  C304  1  0.988900  0.348900  0.841300  1
  C  C305  1  0.517100  0.910800  0.887600  1
  C  C306  1  0.017100  0.589200  0.112400  1
  C  C307  1  0.482900  0.089200  0.112400  1
  C  C308  1  0.982900  0.410800  0.887600  1
  C  C309  1  0.455000  0.955400  0.899400  1
  C  C310  1  0.955000  0.544600  0.100600  1
  C  C311  1  0.545000  0.044600  0.100600  1
  C  C312  1  0.045000  0.455400  0.899400  1
  C  C313  1  0.385900  0.936200  0.869200  1
  C  C314  1  0.885900  0.563800  0.130800  1
  C  C315  1  0.614100  0.063800  0.130800  1
  C  C316  1  0.114100  0.436200  0.869200  1
  C  C317  1  0.591900  0.930300  0.923700  1
  C  C318  1  0.091900  0.569700  0.076300  1
  C  C319  1  0.408100  0.069700  0.076300  1
  C  C320  1  0.908100  0.430300  0.923700  1
  C  C321  1  0.624100  0.279000  0.759500  1
  C  C322  1  0.124100  0.221000  0.240500  1
  C  C323  1  0.375900  0.721000  0.240500  1
  C  C324  1  0.875900  0.779000  0.759500  1
  C  C325  1  0.609000  0.253800  0.697400  1
  C  C326  1  0.109000  0.246200  0.302600  1
  C  C327  1  0.391000  0.746200  0.302600  1
  C  C328  1  0.891000  0.753800  0.697400  1
  C  C329  1  0.535500  0.239500  0.677600  1
  C  C330  1  0.035500  0.260500  0.322400  1
  C  C331  1  0.464500  0.760500  0.322400  1
  C  C332  1  0.964500  0.739500  0.677600  1
  C  C333  1  0.476200  0.250500  0.717900  1
  C  C334  1  0.976200  0.249500  0.282100  1
  C  C335  1  0.523800  0.749500  0.282100  1
  C  C336  1  0.023800  0.750500  0.717900  1
  C  C337  1  0.490200  0.275800  0.778900  1
  C  C338  1  0.990200  0.224200  0.221100  1
  C  C339  1  0.509800  0.724200  0.221100  1
  C  C340  1  0.009800  0.775800  0.778900  1
  C  C341  1  0.563400  0.289800  0.800600  1
  C  C342  1  0.063400  0.210200  0.199400  1
  C  C343  1  0.436600  0.710200  0.199400  1
  C  C344  1  0.936600  0.789800  0.800600  1
  C  C345  1  0.395100  0.236400  0.695200  1
  C  C346  1  0.895100  0.263600  0.304800  1
  C  C347  1  0.604900  0.763600  0.304800  1
  C  C348  1  0.104900  0.736400  0.695200  1
  C  C349  1  0.715200  0.724500  0.006000  1
  C  C350  1  0.215200  0.775500  0.994000  1
  C  C351  1  0.284800  0.275500  0.994000  1
  C  C352  1  0.784800  0.224500  0.006000  1
  C  C353  1  0.733600  0.723200  0.946500  1
  C  C354  1  0.233600  0.776800  0.053500  1
  C  C355  1  0.266400  0.276800  0.053500  1
  C  C356  1  0.766400  0.223200  0.946500  1
  C  C357  1  0.804600  0.700400  0.923600  1
  C  C358  1  0.304600  0.799600  0.076400  1
  C  C359  1  0.195400  0.299600  0.076400  1
  C  C360  1  0.695400  0.200400  0.923600  1
  C  C361  1  0.858100  0.678800  0.960100  1
  C  C362  1  0.358100  0.821200  0.039900  1
  C  C363  1  0.141900  0.321200  0.039900  1
  C  C364  1  0.641900  0.178800  0.960100  1
  C  C365  1  0.839700  0.682300  0.020100  1
  C  C366  1  0.339700  0.817700  0.979900  1
  C  C367  1  0.160300  0.317700  0.979900  1
  C  C368  1  0.660300  0.182300  0.020100  1
  C  C369  1  0.768600  0.704800  0.043800  1
  C  C370  1  0.268600  0.795200  0.956200  1
  C  C371  1  0.231400  0.295200  0.956200  1
  C  C372  1  0.731400  0.204800  0.043800  1
  C  C373  1  0.936200  0.653100  0.934900  1
  C  C374  1  0.436200  0.846900  0.065100  1
  C  C375  1  0.063800  0.346900  0.065100  1
  C  C376  1  0.563800  0.153100  0.934900  1
  C  C377  1  0.015100  0.820600  0.522300  1
  C  C378  1  0.515100  0.679400  0.477700  1
  C  C379  1  0.984900  0.179400  0.477700  1
  C  C380  1  0.484900  0.320600  0.522300  1
  C  C381  1  0.007400  0.896100  0.514500  1
  C  C382  1  0.507400  0.603900  0.485500  1
  C  C383  1  0.992600  0.103900  0.485500  1
  C  C384  1  0.492600  0.396100  0.514500  1
  C  C385  1  0.480400  0.633300  0.735100  1.0
  C  C386  1  0.980400  0.866700  0.264900  1.0
  C  C387  1  0.519600  0.366700  0.264900  1.0
  C  C388  1  0.019600  0.133300  0.735100  1.0
  C  C389  1  0.556900  0.651100  0.748200  1.0
  C  C390  1  0.056900  0.848900  0.251800  1.0
  C  C391  1  0.443100  0.348900  0.251800  1.0
  C  C392  1  0.943100  0.151100  0.748200  1.0
  C  C393  1  0.581700  0.665000  0.807100  1.0
  C  C394  1  0.081700  0.835000  0.192900  1.0
  C  C395  1  0.418300  0.335000  0.192900  1.0
  C  C396  1  0.918300  0.165000  0.807100  1.0
  C  C397  1  0.531800  0.661300  0.852900  1.0
  C  C398  1  0.031800  0.838700  0.147100  1.0
  C  C399  1  0.468200  0.338700  0.147100  1.0
  C  C400  1  0.968200  0.161300  0.852900  1.0
  C  C401  1  0.456900  0.642900  0.838300  1.0
  C  C402  1  0.956900  0.857100  0.161700  1.0
  C  C403  1  0.543100  0.357100  0.161700  1.0
  C  C404  1  0.043100  0.142900  0.838300  1.0
  C  C405  1  0.400100  0.632900  0.883100  1.0
  C  C406  1  0.900100  0.867100  0.116900  1.0
  C  C407  1  0.599900  0.367100  0.116900  1.0
  C  C408  1  0.099900  0.132900  0.883100  1.0
  C  C409  1  0.414600  0.641400  0.944900  1.0
  C  C410  1  0.914600  0.858600  0.055100  1.0
  C  C411  1  0.585400  0.358600  0.055100  1.0
  C  C412  1  0.085400  0.141400  0.944900  1.0
  C  C413  1  0.357500  0.627900  0.982900  1.0
  C  C414  1  0.857500  0.872100  0.017100  1.0
  C  C415  1  0.642500  0.372100  0.017100  1.0
  C  C416  1  0.142500  0.127900  0.982900  1.0
  C  C417  1  0.288500  0.605900  0.958600  1.0
  C  C418  1  0.788500  0.894100  0.041400  1.0
  C  C419  1  0.711500  0.394100  0.041400  1.0
  C  C420  1  0.211500  0.105900  0.958600  1.0
  C  C421  1  0.276700  0.598200  0.897100  1.0
  C  C422  1  0.776700  0.901800  0.102900  1.0
  C  C423  1  0.723300  0.401800  0.102900  1.0
  C  C424  1  0.223300  0.098200  0.897100  1.0
  C  C425  1  0.302300  0.654600  0.652900  1.0
  C  C426  1  0.802300  0.845400  0.347100  1.0
  C  C427  1  0.697700  0.345400  0.347100  1.0
  C  C428  1  0.197700  0.154600  0.652900  1.0
  C  C429  1  0.297800  0.646800  0.590200  1.0
  C  C430  1  0.797800  0.853200  0.409800  1.0
  C  C431  1  0.702200  0.353200  0.409800  1.0
  C  C432  1  0.202200  0.146800  0.590200  1.0
  C  C433  1  0.308500  0.579000  0.549600  1.0
  C  C434  1  0.808500  0.921000  0.450400  1.0
  C  C435  1  0.691500  0.421000  0.450400  1.0
  C  C436  1  0.191500  0.079000  0.549600  1.0
  C  C437  1  0.325900  0.522900  0.575900  1.0
  C  C438  1  0.825900  0.977100  0.424100  1.0
  C  C439  1  0.674100  0.477100  0.424100  1.0
  C  C440  1  0.174100  0.022900  0.575900  1.0
  C  C441  1  0.329600  0.534400  0.637700  1.0
  C  C442  1  0.829600  0.965600  0.362300  1.0
  C  C443  1  0.670400  0.465600  0.362300  1.0
  C  C444  1  0.170400  0.034400  0.637700  1.0
  C  C445  1  0.302400  0.566400  0.481400  1.0
  C  C446  1  0.802400  0.933600  0.518600  1.0
  C  C447  1  0.697600  0.433600  0.518600  1.0
  C  C448  1  0.197600  0.066400  0.481400  1.0
  C  C449  1  0.290800  0.621800  0.453300  1.0
  C  C450  1  0.790800  0.878200  0.546700  1.0
  C  C451  1  0.709200  0.378200  0.546700  1.0
  C  C452  1  0.209200  0.121800  0.453300  1.0
  C  C453  1  0.286700  0.606700  0.389800  1.0
  C  C454  1  0.786700  0.893300  0.610200  1.0
  C  C455  1  0.713300  0.393300  0.610200  1.0
  C  C456  1  0.213300  0.106700  0.389800  1.0
  C  C457  1  0.302200  0.485400  0.380700  1.0
  C  C458  1  0.802200  0.014600  0.619300  1.0
  C  C459  1  0.697800  0.514600  0.619300  1.0
  C  C460  1  0.197800  0.985400  0.380700  1.0
  C  C461  1  0.307500  0.496600  0.443300  1.0
  C  C462  1  0.807500  0.003400  0.556700  1.0
  C  C463  1  0.692500  0.503400  0.556700  1.0
  C  C464  1  0.192500  0.996600  0.443300  1.0
  C  C465  1  0.818600  0.482000  0.270800  1.0
  C  C466  1  0.318600  0.018000  0.729200  1.0
  C  C467  1  0.181400  0.518000  0.729200  1.0
  C  C468  1  0.681400  0.982000  0.270800  1.0
  C  C469  1  0.894400  0.498300  0.276200  1.0
  C  C470  1  0.394400  0.001700  0.723800  1.0
  C  C471  1  0.105600  0.501700  0.723800  1.0
  C  C472  1  0.605600  0.998300  0.276200  1.0
  C  C473  1  0.947800  0.449000  0.244100  1.0
  C  C474  1  0.447800  0.051000  0.755900  1.0
  C  C475  1  0.052200  0.551000  0.755900  1.0
  C  C476  1  0.552200  0.949000  0.244100  1.0
  C  C477  1  0.920100  0.384900  0.208100  1.0
  C  C478  1  0.420100  0.115100  0.791900  1.0
  C  C479  1  0.079900  0.615100  0.791900  1.0
  C  C480  1  0.579900  0.884900  0.208100  1.0
  C  C481  1  0.843400  0.369400  0.205300  1.0
  C  C482  1  0.343400  0.130600  0.794700  1.0
  C  C483  1  0.156600  0.630600  0.794700  1.0
  C  C484  1  0.656600  0.869400  0.205300  1.0
  C  C485  1  0.030100  0.465900  0.249200  1.0
  C  C486  1  0.530100  0.034100  0.750800  1.0
  C  C487  1  0.969900  0.534100  0.750800  1.0
  C  C488  1  0.469900  0.965900  0.249200  1.0
  C  C489  1  0.057200  0.534900  0.258100  1.0
  C  C490  1  0.557200  0.965100  0.741900  1.0
  C  C491  1  0.942800  0.465100  0.741900  1.0
  C  C492  1  0.442800  0.034900  0.258100  1.0
  C  C493  1  0.133300  0.550100  0.261300  1.0
  C  C494  1  0.633300  0.949900  0.738700  1.0
  C  C495  1  0.866700  0.449900  0.738700  1.0
  C  C496  1  0.366700  0.050100  0.261300  1.0
  C  C497  1  0.160300  0.429300  0.249300  1.0
  C  C498  1  0.660300  0.070700  0.750700  1.0
  C  C499  1  0.839700  0.570700  0.750700  1.0
  C  C500  1  0.339700  0.929300  0.249300  1.0
  C  C501  1  0.084300  0.411500  0.245200  1.0
  C  C502  1  0.584300  0.088500  0.754800  1.0
  C  C503  1  0.915700  0.588500  0.754800  1.0
  C  C504  1  0.415700  0.911500  0.245200  1.0
  C  C505  1  0.261700  0.479800  0.126200  1.0
  C  C506  1  0.761700  0.020200  0.873800  1.0
  C  C507  1  0.738300  0.520200  0.873800  1.0
  C  C508  1  0.238300  0.979800  0.126200  1.0
  C  C509  1  0.279400  0.468500  0.064000  1.0
  C  C510  1  0.779400  0.031500  0.936000  1.0
  C  C511  1  0.720600  0.531500  0.936000  1.0
  C  C512  1  0.220600  0.968500  0.064000  1.0
  C  C513  1  0.353100  0.476500  0.047400  1.0
  C  C514  1  0.853100  0.023500  0.952600  1.0
  C  C515  1  0.646900  0.523500  0.952600  1.0
  C  C516  1  0.146900  0.976500  0.047400  1.0
  C  C517  1  0.407900  0.496600  0.092300  1.0
  C  C518  1  0.907900  0.003400  0.907700  1.0
  C  C519  1  0.592100  0.503400  0.907700  1.0
  C  C520  1  0.092100  0.996600  0.092300  1.0
  C  C521  1  0.388100  0.507700  0.153300  1.0
  C  C522  1  0.888100  0.992300  0.846700  1.0
  C  C523  1  0.611900  0.492300  0.846700  1.0
  C  C524  1  0.111900  0.007700  0.153300  1.0
  C  C525  1  0.442000  0.529200  0.204100  1.0
  C  C526  1  0.942000  0.970800  0.795900  1.0
  C  C527  1  0.558000  0.470800  0.795900  1.0
  C  C528  1  0.058000  0.029200  0.204100  1.0
  C  C529  1  0.519000  0.540900  0.196400  1.0
  C  C530  1  0.019000  0.959100  0.803600  1.0
  C  C531  1  0.481000  0.459100  0.803600  1.0
  C  C532  1  0.981000  0.040900  0.196400  1.0
  C  C533  1  0.564000  0.562300  0.248300  1.0
  C  C534  1  0.064000  0.937700  0.751700  1.0
  C  C535  1  0.436000  0.437700  0.751700  1.0
  C  C536  1  0.936000  0.062300  0.248300  1.0
  C  C537  1  0.533400  0.572000  0.304100  1.0
  C  C538  1  0.033400  0.928000  0.695900  1.0
  C  C539  1  0.466600  0.428000  0.695900  1.0
  C  C540  1  0.966600  0.072000  0.304100  1.0
  C  C541  1  0.456600  0.559800  0.309800  1.0
  C  C542  1  0.956600  0.940200  0.690200  1.0
  C  C543  1  0.543400  0.440200  0.690200  1.0
  C  C544  1  0.043400  0.059800  0.309800  1.0
  S  S545  1  0.302780  0.831870  0.490920  1
  S  S546  1  0.802780  0.668130  0.509080  1
  S  S547  1  0.697220  0.168130  0.509080  1
  S  S548  1  0.197220  0.331870  0.490920  1
  S  S549  1  0.294040  0.841370  0.784580  1
  S  S550  1  0.794040  0.658630  0.215420  1
  S  S551  1  0.705960  0.158630  0.215420  1
  S  S552  1  0.205960  0.341370  0.784580  1
  S  S553  1  0.719550  0.294580  0.783960  1
  S  S554  1  0.219550  0.205420  0.216040  1
  S  S555  1  0.280450  0.705420  0.216040  1
  S  S556  1  0.780450  0.794580  0.783960  1
  S  S557  1  0.623360  0.753950  0.034620  1
  S  S558  1  0.123360  0.746050  0.965380  1
  S  S559  1  0.376640  0.246050  0.965380  1
  S  S560  1  0.876640  0.253950  0.034620  1
  N  N561  1  0.432000  0.629700  0.779900  1.0
  N  N562  1  0.932000  0.870300  0.220100  1.0
  N  N563  1  0.568000  0.370300  0.220100  1.0
  N  N564  1  0.068000  0.129700  0.779900  1.0
  N  N565  1  0.330200  0.611800  0.859100  1.0
  N  N566  1  0.830200  0.888200  0.140900  1.0
  N  N567  1  0.669800  0.388200  0.140900  1.0
  N  N568  1  0.169800  0.111800  0.859100  1.0
  N  N569  1  0.317500  0.598500  0.677720  1.0
  N  N570  1  0.817500  0.901500  0.322280  1.0
  N  N571  1  0.682500  0.401500  0.322280  1.0
  N  N572  1  0.182500  0.098500  0.677720  1.0
  N  N573  1  0.792900  0.418000  0.236580  1.0
  N  N574  1  0.292900  0.082000  0.763420  1.0
  N  N575  1  0.207100  0.582000  0.763420  1.0
  N  N576  1  0.707100  0.918000  0.236580  1.0
  N  N577  1  0.184600  0.496800  0.256600  1.0
  N  N578  1  0.684600  0.003200  0.743400  1.0
  N  N579  1  0.815400  0.503200  0.743400  1.0
  N  N580  1  0.315400  0.996800  0.256600  1.0
  N  N581  1  0.314500  0.498700  0.169600  1.0
  N  N582  1  0.814500  0.001300  0.830400  1.0
  N  N583  1  0.685500  0.501300  0.830400  1.0
  N  N584  1  0.185500  0.998700  0.169600  1.0
  N  N585  1  0.411400  0.538500  0.260700  1.0
  N  N586  1  0.911400  0.961500  0.739300  1.0
  N  N587  1  0.588600  0.461500  0.739300  1.0
  N  N588  1  0.088600  0.038500  0.260700  1.0
  N  N589  1  0.293200  0.539800  0.353390  1.0
  N  N590  1  0.793200  0.960200  0.646610  1.0
  N  N591  1  0.706800  0.460200  0.646610  1.0
  N  N592  1  0.206800  0.039800  0.353390  1.0
  O  O593  1  0.306300  0.783700  0.430900  1
  O  O594  1  0.806300  0.716300  0.569100  1
  O  O595  1  0.693700  0.216300  0.569100  1
  O  O596  1  0.193700  0.283700  0.430900  1
  O  O597  1  0.225800  0.852000  0.507800  1
  O  O598  1  0.725800  0.648000  0.492200  1
  O  O599  1  0.774200  0.148000  0.492200  1
  O  O600  1  0.274200  0.352000  0.507800  1
  O  O601  1  0.337000  0.804500  0.536700  1
  O  O602  1  0.837000  0.695500  0.463300  1
  O  O603  1  0.663000  0.195500  0.463300  1
  O  O604  1  0.163000  0.304500  0.536700  1
  O  O605  1  0.275800  0.772500  0.797300  1
  O  O606  1  0.775800  0.727500  0.202700  1
  O  O607  1  0.724200  0.227500  0.202700  1
  O  O608  1  0.224200  0.272500  0.797300  1
  O  O609  1  0.310100  0.832600  0.719800  1
  O  O610  1  0.810100  0.667400  0.280200  1
  O  O611  1  0.689900  0.167400  0.280200  1
  O  O612  1  0.189900  0.332600  0.719800  1
  O  O613  1  0.240300  0.899600  0.807000  1
  O  O614  1  0.740300  0.600400  0.193000  1
  O  O615  1  0.759700  0.100400  0.193000  1
  O  O616  1  0.259700  0.399600  0.807000  1
  O  O617  1  0.716100  0.342100  0.847300  1
  O  O618  1  0.216100  0.157900  0.152700  1
  O  O619  1  0.283900  0.657900  0.152700  1
  O  O620  1  0.783900  0.842100  0.847300  1
  O  O621  1  0.751300  0.224300  0.780700  1
  O  O622  1  0.251300  0.275700  0.219300  1
  O  O623  1  0.248700  0.775700  0.219300  1
  O  O624  1  0.748700  0.724300  0.780700  1
  O  O625  1  0.753500  0.327200  0.739200  1
  O  O626  1  0.253500  0.172800  0.260800  1
  O  O627  1  0.246500  0.672800  0.260800  1
  O  O628  1  0.746500  0.827200  0.739200  1
  O  O629  1  0.573800  0.718600  0.994100  1
  O  O630  1  0.073800  0.781400  0.005900  1
  O  O631  1  0.426200  0.281400  0.005900  1
  O  O632  1  0.926200  0.218600  0.994100  1
  O  O633  1  0.617100  0.738500  0.094400  1
  O  O634  1  0.117100  0.761500  0.905600  1
  O  O635  1  0.382900  0.261500  0.905600  1
  O  O636  1  0.882900  0.238500  0.094400  1
  O  O637  1  0.624500  0.833300  0.051800  1
  O  O638  1  0.124500  0.666700  0.948200  1
  O  O639  1  0.375500  0.166700  0.948200  1
  O  O640  1  0.875500  0.333300  0.051800  1
  O  O641  1  0.997200  0.948100  0.559000  1
  O  O642  1  0.497200  0.551900  0.441000  1
  O  O643  1  0.002800  0.051900  0.441000  1
  O  O644  1  0.502800  0.448100  0.559000  1
  O  O645  1  0.014000  0.902900  0.456900  1
  O  O646  1  0.514000  0.597100  0.543100  1
  O  O647  1  0.986000  0.097100  0.543100  1
  O  O648  1  0.486000  0.402900  0.456900  1
  O  O649  1  0.428000  0.830700  0.639200  1
  O  O650  1  0.928000  0.669300  0.360800  1
  O  O651  1  0.572000  0.169300  0.360800  1
  O  O652  1  0.072000  0.330700  0.639200  1
  O  O653  1  0.202300  0.872800  0.641100  1
  O  O654  1  0.702300  0.627200  0.358900  1
  O  O655  1  0.797700  0.127200  0.358900  1
  O  O656  1  0.297700  0.372800  0.641100  1
  O  O657  1  0.176800  0.797900  0.352700  1
  O  O658  1  0.676800  0.702100  0.647300  1
  O  O659  1  0.823200  0.202100  0.647300  1
  O  O660  1  0.323200  0.297900  0.352700  1
  O  O661  1  0.522300  0.720200  0.639200  1
  O  O662  1  0.022300  0.779800  0.360800  1
  O  O663  1  0.477700  0.279800  0.360800  1
  O  O664  1  0.977700  0.220200  0.639200  1
  O  O665  1  0.126000  0.912100  0.900400  1
  O  O666  1  0.626000  0.587900  0.099600  1
  O  O667  1  0.874000  0.087900  0.099600  1
  O  O668  1  0.374000  0.412100  0.900400  1
