# generated using pymatgen
data_H104Pd2C79S6(NO4)8
_symmetry_space_group_name_H-M   'P 1'
_cell_length_a   9.57340000
_cell_length_b   17.75860000
_cell_length_c   23.92280000
_cell_angle_alpha   104.00700000
_cell_angle_beta   91.93200000
_cell_angle_gamma   102.69100000
_symmetry_Int_Tables_number   1
_chemical_formula_structural   H104Pd2C79S6(NO4)8
_chemical_formula_sum   'H208 Pd4 C158 S12 N16 O64'
_cell_volume   3833.52599307
_cell_formula_units_Z   2
loop_
 _symmetry_equiv_pos_site_id
 _symmetry_equiv_pos_as_xyz
  1  'x, y, z'
loop_
 _atom_site_type_symbol
 _atom_site_label
 _atom_site_symmetry_multiplicity
 _atom_site_fract_x
 _atom_site_fract_y
 _atom_site_fract_z
 _atom_site_occupancy
  H  H1  1  0.057500  0.809300  0.305000  1
  H  H2  1  0.942500  0.190700  0.695000  1
  H  H3  1  0.205800  0.770600  0.233400  1
  H  H4  1  0.794200  0.229400  0.766600  1
  H  H5  1  0.147500  0.946900  0.161400  1
  H  H6  1  0.852500  0.053100  0.838600  1
  H  H7  1  0.004200  0.988100  0.234000  1
  H  H8  1  0.995800  0.011900  0.766000  1
  H  H9  1  0.299900  0.776400  0.143000  1
  H  H10  1  0.700100  0.223600  0.857000  1
  H  H11  1  0.386100  0.867600  0.154800  1
  H  H12  1  0.613900  0.132400  0.845200  1
  H  H13  1  0.251400  0.832800  0.106900  1
  H  H14  1  0.748600  0.167200  0.893100  1
  H  H15  1  0.748000  0.073000  0.231300  1
  H  H16  1  0.252000  0.927000  0.768700  1
  H  H17  1  0.766600  0.033700  0.275200  1
  H  H18  1  0.233400  0.966300  0.724800  1
  H  H19  1  0.876400  0.109100  0.153600  1
  H  H20  1  0.123600  0.890900  0.846400  1
  H  H21  1  0.763900  0.082300  0.186500  1
  H  H22  1  0.236100  0.917700  0.813500  1
  H  H23  1  0.466800  0.097400  0.138300  1
  H  H24  1  0.533200  0.902600  0.861700  1
  H  H25  1  0.500200  0.984600  0.071200  1
  H  H26  1  0.499800  0.015400  0.928800  1
  H  H27  1  0.080900  0.928700  0.011100  1
  H  H28  1  0.919100  0.071300  0.988900  1
  H  H29  1  0.045200  0.040800  0.078500  1
  H  H30  1  0.954800  0.959200  0.921500  1
  H  H31  1  0.388100  0.887600  0.966000  1
  H  H32  1  0.611900  0.112400  0.034000  1
  H  H33  1  0.224400  0.843300  0.968100  1
  H  H34  1  0.775600  0.156700  0.031900  1
  H  H35  1  0.347600  0.836400  0.012200  1
  H  H36  1  0.652400  0.163600  0.987800  1
  H  H37  1  0.033900  0.658700  0.495600  1
  H  H38  1  0.966100  0.341300  0.504400  1
  H  H39  1  0.844900  0.583100  0.532800  1
  H  H40  1  0.155100  0.416900  0.467200  1
  H  H41  1  0.131200  0.530100  0.636300  1
  H  H42  1  0.868800  0.469900  0.363700  1
  H  H43  1  0.320600  0.605500  0.599800  1
  H  H44  1  0.679400  0.394500  0.400200  1
  H  H45  1  0.756900  0.508800  0.600700  1
  H  H46  1  0.243100  0.491200  0.399300  1
  H  H47  1  0.866200  0.501600  0.650100  1
  H  H48  1  0.133800  0.498400  0.349900  1
  H  H49  1  0.840900  0.438700  0.588100  1
  H  H50  1  0.159100  0.561300  0.411900  1
  H  H51  1  0.682100  0.800900  0.208600  1
  H  H52  1  0.317900  0.199100  0.791400  1
  H  H53  1  0.762500  0.901900  0.162300  1
  H  H54  1  0.237500  0.098100  0.837700  1
  H  H55  1  0.554100  0.758900  0.010800  1
  H  H56  1  0.445900  0.241100  0.989200  1
  H  H57  1  0.469600  0.658300  0.057200  1
  H  H58  1  0.530400  0.341700  0.942800  1
  H  H59  1  0.744200  0.955400  0.076200  1
  H  H60  1  0.255800  0.044600  0.923800  1
  H  H61  1  0.670800  0.896000  0.015800  1
  H  H62  1  0.329200  0.104000  0.984200  1
  H  H63  1  0.829200  0.895300  0.039000  1
  H  H64  1  0.170800  0.104700  0.961000  1
  H  H65  1  0.619900  0.717100  0.291500  1
  H  H66  1  0.380100  0.282900  0.708500  1
  H  H67  1  0.697400  0.783900  0.335400  1
  H  H68  1  0.302600  0.216100  0.664600  1
  H  H69  1  0.480900  0.673900  0.352200  1
  H  H70  1  0.519100  0.326100  0.647800  1
  H  H71  1  0.390600  0.656200  0.395500  1
  H  H72  1  0.609400  0.343800  0.604500  1
  H  H73  1  0.543400  0.510900  0.405100  1
  H  H74  1  0.456600  0.489100  0.594900  1
  H  H75  1  0.496800  0.549100  0.364700  1
  H  H76  1  0.503200  0.450900  0.635300  1
  H  H77  1  0.637200  0.388900  0.272900  1
  H  H78  1  0.362800  0.611100  0.727100  1
  H  H79  1  0.607600  0.463800  0.299000  1
  H  H80  1  0.392400  0.536200  0.701000  1
  H  H81  1  0.562100  0.485900  0.153800  1
  H  H82  1  0.437900  0.514100  0.846200  1
  H  H83  1  0.602300  0.455300  0.199900  1
  H  H84  1  0.397700  0.544700  0.800100  1
  H  H85  1  0.430400  0.268800  0.107100  1
  H  H86  1  0.569600  0.731200  0.892900  1
  H  H87  1  0.532200  0.343000  0.116100  1
  H  H88  1  0.467800  0.657000  0.883900  1
  H  H89  1  0.700800  0.255400  0.185200  1
  H  H90  1  0.299200  0.744600  0.814800  1
  H  H91  1  0.661000  0.243900  0.125300  1
  H  H92  1  0.339000  0.756100  0.874700  1
  H  H93  1  0.924800  0.262000  0.118100  1
  H  H94  1  0.075200  0.738000  0.881900  1
  H  H95  1  0.067300  0.252200  0.112100  1
  H  H96  1  0.932700  0.747800  0.887900  1
  H  H97  1  0.512800  0.254500  0.240100  1
  H  H98  1  0.487200  0.745500  0.759900  1
  H  H99  1  0.623300  0.259400  0.282800  1
  H  H100  1  0.376700  0.740600  0.717200  1
  H  H101  1  0.659200  0.214000  0.360900  1
  H  H102  1  0.340800  0.786000  0.639100  1
  H  H103  1  0.733500  0.164300  0.323600  1
  H  H104  1  0.266500  0.835700  0.676400  1
  H  H105  1  0.752700  0.113700  0.294000  1
  H  H106  1  0.247300  0.886300  0.706000  1
  H  H107  1  0.988900  0.839500  0.310000  1
  H  H108  1  0.011100  0.160500  0.690000  1
  H  H109  1  0.145500  0.782600  0.250000  1
  H  H110  1  0.854500  0.217400  0.750000  1
  H  H111  1  0.171200  0.953200  0.162200  1
  H  H112  1  0.828800  0.046800  0.837800  1
  H  H113  1  0.018700  0.012100  0.223100  1
  H  H114  1  0.981300  0.987900  0.776900  1
  H  H115  1  0.321200  0.793400  0.179000  1
  H  H116  1  0.678800  0.206600  0.821000  1
  H  H117  1  0.340500  0.864600  0.147700  1
  H  H118  1  0.659500  0.135400  0.852300  1
  H  H119  1  0.211900  0.786900  0.125000  1
  H  H120  1  0.788100  0.213100  0.875000  1
  H  H121  1  0.626200  0.441500  0.237700  1
  H  H122  1  0.373800  0.558500  0.762300  1
  H  H123  1  0.546100  0.402500  0.145700  1
  H  H124  1  0.453900  0.597500  0.854300  1
  H  H125  1  0.581700  0.277500  0.112600  1
  H  H126  1  0.418300  0.722500  0.887400  1
  H  H127  1  0.736900  0.191600  0.144200  1
  H  H128  1  0.263100  0.808400  0.855800  1
  H  H129  1  0.742400  0.130600  0.150600  1
  H  H130  1  0.257600  0.869400  0.849400  1
  H  H131  1  0.614200  0.329200  0.258100  1
  H  H132  1  0.385800  0.670800  0.741900  1
  H  H133  1  0.656900  0.226400  0.304400  1
  H  H134  1  0.343100  0.773600  0.695600  1
  H  H135  1  0.549300  0.471000  0.489100  1
  H  H136  1  0.450700  0.529000  0.510900  1
  H  H137  1  0.518100  0.547400  0.497200  1
  H  H138  1  0.481900  0.452600  0.502800  1
  H  H139  1  0.445300  0.527300  0.485900  1
  H  H140  1  0.554700  0.472700  0.514100  1
  H  H141  1  0.505200  0.463200  0.492600  1
  H  H142  1  0.494800  0.536800  0.507400  1
  H  H143  1  0.460300  0.596300  0.361600  1
  H  H144  1  0.539700  0.403700  0.638400  1
  H  H145  1  0.502500  0.928000  0.259500  1.0
  H  H146  1  0.497500  0.072000  0.740500  1.0
  H  H147  1  0.449700  0.039600  0.237200  1.0
  H  H148  1  0.550300  0.960400  0.762800  1.0
  H  H149  1  0.341500  0.124600  0.302900  1.0
  H  H150  1  0.658500  0.875400  0.697100  1.0
  H  H151  1  0.349600  0.875400  0.520700  1.0
  H  H152  1  0.650400  0.124600  0.479300  1.0
  H  H153  1  0.262000  0.975300  0.581300  1.0
  H  H154  1  0.738000  0.024700  0.418700  1.0
  H  H155  1  0.218400  0.082400  0.547900  1.0
  H  H156  1  0.781600  0.917600  0.452100  1.0
  H  H157  1  0.433600  0.821900  0.420600  1.0
  H  H158  1  0.566400  0.178100  0.579400  1.0
  H  H159  1  0.487600  0.840300  0.331500  1.0
  H  H160  1  0.512400  0.159700  0.668500  1.0
  H  H161  1  0.979900  0.123000  0.492700  1.0
  H  H162  1  0.020100  0.877000  0.507300  1.0
  H  H163  1  0.901300  0.194700  0.575500  1.0
  H  H164  1  0.098700  0.805300  0.424500  1.0
  H  H165  1  0.270900  0.365400  0.594500  1.0
  H  H166  1  0.729100  0.634600  0.405500  1.0
  H  H167  1  0.340400  0.289600  0.511500  1.0
  H  H168  1  0.659600  0.710400  0.488500  1.0
  H  H169  1  0.824400  0.298900  0.635500  1.0
  H  H170  1  0.175600  0.701100  0.364500  1.0
  H  H171  1  0.774500  0.361700  0.727000  1.0
  H  H172  1  0.225500  0.638300  0.273000  1.0
  H  H173  1  0.189600  0.434700  0.780600  1.0
  H  H174  1  0.810400  0.565300  0.219400  1.0
  H  H175  1  0.249800  0.375400  0.689600  1.0
  H  H176  1  0.750200  0.624600  0.310400  1.0
  H  H177  1  0.355900  0.442600  0.956100  1.0
  H  H178  1  0.644100  0.557400  0.043900  1.0
  H  H179  1  0.343900  0.366200  0.023200  1.0
  H  H180  1  0.656100  0.633800  0.976800  1.0
  H  H181  1  0.216900  0.395200  0.104800  1.0
  H  H182  1  0.783100  0.604800  0.895200  1.0
  H  H183  1  0.009000  0.738900  0.011600  1.0
  H  H184  1  0.991000  0.261100  0.988400  1.0
  H  H185  1  0.897900  0.756700  0.097400  1.0
  H  H186  1  0.102100  0.243300  0.902600  1.0
  H  H187  1  0.923500  0.678800  0.161700  1.0
  H  H188  1  0.076500  0.321200  0.838300  1.0
  H  H189  1  0.280700  0.558700  0.925300  1.0
  H  H190  1  0.719300  0.441300  0.074700  1.0
  H  H191  1  0.163300  0.660200  0.944300  1.0
  H  H192  1  0.836700  0.339800  0.055700  1.0
  H  H193  1  0.901600  0.414600  0.209100  1.0
  H  H194  1  0.098400  0.585400  0.790900  1.0
  H  H195  1  0.927400  0.328200  0.265500  1.0
  H  H196  1  0.072600  0.671800  0.734500  1.0
  H  H197  1  0.359900  0.395200  0.261400  1.0
  H  H198  1  0.640100  0.604800  0.738600  1.0
  H  H199  1  0.323700  0.484200  0.208700  1.0
  H  H200  1  0.676300  0.515800  0.791300  1.0
  H  H201  1  0.977100  0.219000  0.285200  1.0
  H  H202  1  0.022900  0.781000  0.714800  1.0
  H  H203  1  0.017500  0.140800  0.346600  1.0
  H  H204  1  0.982500  0.859200  0.653400  1.0
  H  H205  1  0.397500  0.286400  0.406800  1.0
  H  H206  1  0.602500  0.713600  0.593200  1.0
  H  H207  1  0.365300  0.368800  0.347800  1.0
  H  H208  1  0.634700  0.631200  0.652200  1.0
  Pd  Pd209  1  0.246230  0.132050  0.428540  1.0
  Pd  Pd210  1  0.753770  0.867950  0.571460  1.0
  Pd  Pd211  1  0.079730  0.538550  0.162190  1.0
  Pd  Pd212  1  0.920270  0.461450  0.837810  1.0
  C  C213  1  0.015880  0.902170  0.276410  1
  C  C214  1  0.984120  0.097830  0.723590  1
  C  C215  1  0.076300  0.837620  0.276010  1
  C  C216  1  0.923700  0.162380  0.723990  1
  C  C217  1  0.164300  0.814470  0.233160  1
  C  C218  1  0.835700  0.185530  0.766840  1
  C  C219  1  0.192400  0.854740  0.189810  1
  C  C220  1  0.807600  0.145260  0.810190  1
  C  C221  1  0.130300  0.919180  0.190780  1
  C  C222  1  0.869700  0.080820  0.809220  1
  C  C223  1  0.044100  0.943500  0.233640  1
  C  C224  1  0.955900  0.056500  0.766360  1
  C  C225  1  0.291100  0.830790  0.144690  1
  C  C226  1  0.708900  0.169210  0.855310  1
  C  C227  1  0.253000  0.079540  0.114960  1
  C  C228  1  0.747000  0.920460  0.885040  1
  C  C229  1  0.388100  0.062980  0.112620  1
  C  C230  1  0.611900  0.937020  0.887380  1
  C  C231  1  0.407800  0.995870  0.072580  1
  C  C232  1  0.592200  0.004130  0.927420  1
  C  C233  1  0.293700  0.944810  0.034250  1
  C  C234  1  0.706300  0.055190  0.965750  1
  C  C235  1  0.159400  0.962730  0.037040  1
  C  C236  1  0.840600  0.037270  0.962960  1
  C  C237  1  0.137700  0.029470  0.077030  1
  C  C238  1  0.862300  0.970530  0.922970  1
  C  C239  1  0.315300  0.871600  0.991400  1
  C  C240  1  0.684700  0.128400  0.008600  1
  C  C241  1  0.194430  0.637900  0.543540  1
  C  C242  1  0.805570  0.362100  0.456460  1
  C  C243  1  0.053710  0.632170  0.523900  1
  C  C244  1  0.946290  0.367830  0.476100  1
  C  C245  1  0.941510  0.587070  0.546150  1
  C  C246  1  0.058490  0.412930  0.453850  1
  C  C247  1  0.968800  0.547820  0.587510  1
  C  C248  1  0.031200  0.452180  0.412490  1
  C  C249  1  0.111200  0.555730  0.607460  1
  C  C250  1  0.888800  0.444270  0.392540  1
  C  C251  1  0.224000  0.600460  0.585870  1
  C  C252  1  0.776000  0.399540  0.414130  1
  C  C253  1  0.847600  0.494580  0.608450  1
  C  C254  1  0.152400  0.505420  0.391550  1
  C  C255  1  0.570330  0.719140  0.136930  1
  C  C256  1  0.429670  0.280860  0.863070  1
  C  C257  1  0.656650  0.792090  0.168450  1
  C  C258  1  0.343350  0.207910  0.831550  1
  C  C259  1  0.705240  0.851910  0.140620  1
  C  C260  1  0.294760  0.148090  0.859380  1
  C  C261  1  0.671300  0.839730  0.081400  1
  C  C262  1  0.328700  0.160270  0.918600  1
  C  C263  1  0.581280  0.767340  0.050770  1
  C  C264  1  0.418720  0.232660  0.949230  1
  C  C265  1  0.530930  0.707340  0.078370  1
  C  C266  1  0.469070  0.292660  0.921630  1
  C  C267  1  0.734400  0.902050  0.050400  1
  C  C268  1  0.265600  0.097950  0.949600  1
  C  C269  1  0.989400  0.932000  0.272400  1
  C  C270  1  0.010600  0.068000  0.727600  1
  C  C271  1  0.027000  0.862900  0.280300  1
  C  C272  1  0.973000  0.137100  0.719700  1
  C  C273  1  0.119000  0.829000  0.244400  1
  C  C274  1  0.881000  0.171000  0.755600  1
  C  C275  1  0.174000  0.862000  0.199900  1
  C  C276  1  0.826000  0.138000  0.800100  1
  C  C277  1  0.135000  0.930400  0.192400  1
  C  C278  1  0.865000  0.069600  0.807600  1
  C  C279  1  0.044000  0.965300  0.228500  1
  C  C280  1  0.956000  0.034700  0.771500  1
  C  C281  1  0.270000  0.823300  0.159400  1
  C  C282  1  0.730000  0.176700  0.840600  1
  C  C283  1  0.364480  0.001420  0.377770  1.0
  C  C284  1  0.635520  0.998580  0.622230  1.0
  C  C285  1  0.425180  0.947020  0.339990  1.0
  C  C286  1  0.574820  0.052980  0.660010  1.0
  C  C287  1  0.458870  0.962690  0.286280  1.0
  C  C288  1  0.541130  0.037310  0.713720  1.0
  C  C289  1  0.427800  0.028540  0.273280  1.0
  C  C290  1  0.572200  0.971460  0.726720  1.0
  C  C291  1  0.363700  0.079680  0.312940  1.0
  C  C292  1  0.636300  0.920320  0.687060  1.0
  C  C293  1  0.333530  0.991060  0.433810  1.0
  C  C294  1  0.666470  0.008940  0.566190  1.0
  C  C295  1  0.361060  0.924770  0.450750  1.0
  C  C296  1  0.638940  0.075230  0.549250  1.0
  C  C297  1  0.332850  0.919200  0.507430  1.0
  C  C298  1  0.667150  0.080800  0.492570  1.0
  C  C299  1  0.280680  0.978090  0.543050  1.0
  C  C300  1  0.719320  0.021910  0.456950  1.0
  C  C301  1  0.254960  0.042390  0.522830  1.0
  C  C302  1  0.745040  0.957610  0.477170  1.0
  C  C303  1  0.417720  0.867890  0.410260  1.0
  C  C304  1  0.582280  0.132110  0.589740  1.0
  C  C305  1  0.449160  0.878630  0.357370  1.0
  C  C306  1  0.550840  0.121370  0.642630  1.0
  C  C307  1  0.040450  0.172090  0.514420  1.0
  C  C308  1  0.959550  0.827910  0.485580  1.0
  C  C309  1  0.993110  0.214470  0.563740  1.0
  C  C310  1  0.006890  0.785530  0.436260  1.0
  C  C311  1  0.081470  0.286430  0.596070  1.0
  C  C312  1  0.918530  0.713570  0.403930  1.0
  C  C313  1  0.210900  0.315010  0.574950  1.0
  C  C314  1  0.789100  0.684990  0.425050  1.0
  C  C315  1  0.251630  0.269730  0.525430  1.0
  C  C316  1  0.748370  0.730270  0.474570  1.0
  C  C317  1  0.043530  0.329000  0.652590  1.0
  C  C318  1  0.956470  0.671000  0.347410  1.0
  C  C319  1  0.900800  0.326200  0.664670  1.0
  C  C320  1  0.099200  0.673800  0.335330  1.0
  C  C321  1  0.871660  0.363420  0.719200  1.0
  C  C322  1  0.128340  0.636580  0.280800  1.0
  C  C323  1  0.115290  0.406640  0.750760  1.0
  C  C324  1  0.884710  0.593360  0.249240  1.0
  C  C325  1  0.151600  0.371090  0.696620  1.0
  C  C326  1  0.848400  0.628910  0.303380  1.0
  C  C327  1  0.168890  0.534770  0.049950  1.0
  C  C328  1  0.831110  0.465230  0.950050  1.0
  C  C329  1  0.237040  0.518880  0.998890  1.0
  C  C330  1  0.762960  0.481120  0.001110  1.0
  C  C331  1  0.305520  0.454550  0.989460  1.0
  C  C332  1  0.694480  0.545450  0.010540  1.0
  C  C333  1  0.298400  0.409590  0.029070  1.0
  C  C334  1  0.701600  0.590410  0.970930  1.0
  C  C335  1  0.223600  0.427810  0.078350  1.0
  C  C336  1  0.776400  0.572190  0.921650  1.0
  C  C337  1  0.100080  0.599860  0.063080  1.0
  C  C338  1  0.899920  0.400140  0.936920  1.0
  C  C339  1  0.094100  0.646190  0.023360  1.0
  C  C340  1  0.905900  0.353810  0.976640  1.0
  C  C341  1  0.016580  0.706340  0.037190  1.0
  C  C342  1  0.983420  0.293660  0.962810  1.0
  C  C343  1  0.952200  0.717280  0.088040  1.0
  C  C344  1  0.047800  0.282720  0.911960  1.0
  C  C345  1  0.966920  0.669920  0.126280  1.0
  C  C346  1  0.033080  0.330080  0.873720  1.0
  C  C347  1  0.233790  0.568350  0.959830  1.0
  C  C348  1  0.766210  0.431650  0.040170  1.0
  C  C349  1  0.164830  0.628840  0.971220  1.0
  C  C350  1  0.835170  0.371160  0.028780  1.0
  C  C351  1  0.995290  0.411260  0.220890  1.0
  C  C352  1  0.004710  0.588740  0.779110  1.0
  C  C353  1  0.010000  0.359300  0.254030  1.0
  C  C354  1  0.990000  0.640700  0.745970  1.0
  C  C355  1  0.147150  0.352900  0.270520  1.0
  C  C356  1  0.852850  0.647100  0.729480  1.0
  C  C357  1  0.265170  0.399400  0.252040  1.0
  C  C358  1  0.734830  0.600600  0.747960  1.0
  C  C359  1  0.242890  0.451570  0.220080  1.0
  C  C360  1  0.757110  0.548430  0.779920  1.0
  C  C361  1  0.168200  0.301980  0.309180  1.0
  C  C362  1  0.831800  0.698020  0.690820  1.0
  C  C363  1  0.064120  0.233600  0.309690  1.0
  C  C364  1  0.935880  0.766400  0.690310  1.0
  C  C365  1  0.088690  0.187240  0.346220  1.0
  C  C366  1  0.911310  0.812760  0.653780  1.0
  C  C367  1  0.311850  0.272940  0.381690  1.0
  C  C368  1  0.688150  0.727060  0.618310  1.0
  C  C369  1  0.293430  0.321940  0.346540  1.0
  C  C370  1  0.706570  0.678060  0.653460  1.0
  S  S371  1  0.902920  0.932020  0.330640  1
  S  S372  1  0.097080  0.067980  0.669360  1
  S  S373  1  0.226650  0.164720  0.166080  1
  S  S374  1  0.773350  0.835280  0.833920  1
  S  S375  1  0.340620  0.693650  0.516210  1
  S  S376  1  0.659380  0.306350  0.483790  1
  S  S377  1  0.505900  0.641690  0.171080  1
  S  S378  1  0.494100  0.358310  0.828920  1
  S  S379  1  0.873300  0.976700  0.318800  1
  S  S380  1  0.126700  0.023300  0.681200  1
  S  S381  1  0.332400  0.677800  0.497200  1
  S  S382  1  0.667600  0.322200  0.502800  1
  N  N383  1  0.333150  0.066890  0.364220  1.0
  N  N384  1  0.666850  0.933110  0.635780  1.0
  N  N385  1  0.280390  0.048800  0.469570  1.0
  N  N386  1  0.719610  0.951200  0.530430  1.0
  N  N387  1  0.169130  0.198160  0.496330  1.0
  N  N388  1  0.830870  0.801840  0.503670  1.0
  N  N389  1  0.977550  0.402240  0.761870  1.0
  N  N390  1  0.022450  0.597760  0.238130  1.0
  N  N391  1  0.162130  0.489480  0.088950  1.0
  N  N392  1  0.837870  0.510520  0.911050  1.0
  N  N393  1  0.211130  0.206540  0.381100  1.0
  N  N394  1  0.788870  0.793460  0.618900  1.0
  N  N395  1  0.039650  0.613130  0.114420  1.0
  N  N396  1  0.960350  0.386870  0.885580  1.0
  N  N397  1  0.110620  0.457600  0.204700  1.0
  N  N398  1  0.889380  0.542400  0.795300  1.0
  O  O399  1  0.870530  0.867920  0.359980  1
  O  O400  1  0.129470  0.132080  0.640020  1
  O  O401  1  0.983100  0.007440  0.368570  1
  O  O402  1  0.016900  0.992560  0.631430  1
  O  O403  1  0.774480  0.939680  0.299820  1
  O  O404  1  0.225520  0.060320  0.700180  1
  O  O405  1  0.781500  0.079650  0.266830  1
  O  O406  1  0.218500  0.920350  0.733170  1
  O  O407  1  0.783900  0.092390  0.153480  1
  O  O408  1  0.216100  0.907610  0.846520  1
  O  O409  1  0.332110  0.179620  0.215130  1
  O  O410  1  0.667890  0.820380  0.784870  1
  O  O411  1  0.251260  0.229520  0.136970  1
  O  O412  1  0.748740  0.770480  0.863030  1
  O  O413  1  0.078850  0.144760  0.180070  1
  O  O414  1  0.921150  0.855240  0.819930  1
  O  O415  1  0.285800  0.706900  0.462860  1
  O  O416  1  0.714200  0.293100  0.537140  1
  O  O417  1  0.444270  0.643550  0.506320  1
  O  O418  1  0.555730  0.356450  0.493680  1
  O  O419  1  0.399300  0.767930  0.561030  1
  O  O420  1  0.600700  0.232070  0.438970  1
  O  O421  1  0.616250  0.651150  0.217530  1
  O  O422  1  0.383750  0.348850  0.782470  1
  O  O423  1  0.367980  0.652290  0.191020  1
  O  O424  1  0.632020  0.347710  0.808980  1
  O  O425  1  0.492240  0.566850  0.126690  1
  O  O426  1  0.507760  0.433150  0.873310  1
  O  O427  1  0.621640  0.744300  0.327240  1
  O  O428  1  0.378360  0.255700  0.672760  1
  O  O429  1  0.420920  0.636300  0.362520  1
  O  O430  1  0.579080  0.363700  0.637480  1
  O  O431  1  0.533800  0.509850  0.368680  1
  O  O432  1  0.466200  0.490150  0.631320  1
  O  O433  1  0.652510  0.438770  0.272050  1
  O  O434  1  0.347490  0.561230  0.727950  1
  O  O435  1  0.599650  0.449650  0.162640  1
  O  O436  1  0.400350  0.550350  0.837360  1
  O  O437  1  0.512170  0.292710  0.097420  1
  O  O438  1  0.487830  0.707290  0.902580  1
  O  O439  1  0.726060  0.240390  0.150330  1
  O  O440  1  0.273940  0.759610  0.849670  1
  O  O441  1  0.999700  0.270520  0.098830  1
  O  O442  1  0.000300  0.729480  0.901170  1
  O  O443  1  0.600900  0.278040  0.254200  1
  O  O444  1  0.399100  0.721960  0.745800  1
  O  O445  1  0.698200  0.206220  0.328270  1
  O  O446  1  0.301800  0.793780  0.671730  1
  O  O447  1  0.759000  0.913100  0.326700  1
  O  O448  1  0.241000  0.086900  0.673300  1
  O  O449  1  0.961000  0.019000  0.373100  1
  O  O450  1  0.039000  0.981000  0.626900  1
  O  O451  1  0.820000  0.029800  0.290700  1
  O  O452  1  0.180000  0.970200  0.709300  1
  O  O453  1  0.263000  0.722000  0.465800  1
  O  O454  1  0.737000  0.278000  0.534200  1
  O  O455  1  0.425000  0.623700  0.480600  1
  O  O456  1  0.575000  0.376300  0.519400  1
  O  O457  1  0.409000  0.746500  0.542400  1
  O  O458  1  0.591000  0.253500  0.457600  1
  O  O459  1  0.572100  0.516700  0.480400  1
  O  O460  1  0.427900  0.483300  0.519600  1
  O  O461  1  0.457200  0.480400  0.468800  1
  O  O462  1  0.542800  0.519600  0.531200  1
