# generated using pymatgen
data_FePH24C26N11F18
_symmetry_space_group_name_H-M   'P 1'
_cell_length_a   9.04660000
_cell_length_b   13.10520000
_cell_length_c   13.33580000
_cell_angle_alpha   65.71430000
_cell_angle_beta   78.33530000
_cell_angle_gamma   88.25130000
_symmetry_Int_Tables_number   1
_chemical_formula_structural   FePH24C26N11F18
_chemical_formula_sum   'Fe2 P2 H48 C52 N22 F36'
_cell_volume   1408.92567002
_cell_formula_units_Z   2
loop_
 _symmetry_equiv_pos_site_id
 _symmetry_equiv_pos_as_xyz
  1  'x, y, z'
loop_
 _atom_site_type_symbol
 _atom_site_label
 _atom_site_symmetry_multiplicity
 _atom_site_fract_x
 _atom_site_fract_y
 _atom_site_fract_z
 _atom_site_occupancy
  Fe  Fe1  1  0.083620  0.697130  0.688360  1.0
  Fe  Fe2  1  0.916380  0.302870  0.311640  1.0
  P  P3  1  0.352630  0.219750  0.727690  1
  P  P4  1  0.647370  0.780250  0.272310  1
  H  H5  1  0.679100  0.077300  0.950700  1
  H  H6  1  0.320900  0.922700  0.049300  1
  H  H7  1  0.786100  0.185400  0.906200  1
  H  H8  1  0.213900  0.814600  0.093800  1
  H  H9  1  0.648300  0.186600  0.851000  1
  H  H10  1  0.351700  0.813400  0.149000  1
  H  H11  1  0.702900  0.462200  0.401900  1.0
  H  H12  1  0.297100  0.537800  0.598100  1.0
  H  H13  1  0.669400  0.519800  0.546200  1.0
  H  H14  1  0.330600  0.480200  0.453800  1.0
  H  H15  1  0.804300  0.440800  0.686700  1.0
  H  H16  1  0.195700  0.559200  0.313300  1.0
  H  H17  1  0.972200  0.303400  0.678800  1.0
  H  H18  1  0.027800  0.696600  0.321200  1.0
  H  H19  1  0.087400  0.183100  0.582700  1.0
  H  H20  1  0.912600  0.816900  0.417300  1.0
  H  H21  1  0.113500  0.007100  0.603700  1.0
  H  H22  1  0.886500  0.992900  0.396300  1.0
  H  H23  1  0.408500  0.893000  0.410700  1.0
  H  H24  1  0.591500  0.107000  0.589300  1.0
  H  H25  1  0.377400  0.048100  0.252500  1.0
  H  H26  1  0.622600  0.951900  0.747500  1.0
  H  H27  1  0.219200  0.185500  0.268800  1.0
  H  H28  1  0.780800  0.814500  0.731200  1.0
  H  H29  1  0.507700  0.817900  0.591900  1.0
  H  H30  1  0.492300  0.182100  0.408100  1.0
  H  H31  1  0.415500  0.757000  0.542300  1.0
  H  H32  1  0.584500  0.243000  0.457700  1.0
  H  H33  1  0.635500  0.656500  0.707800  1.0
  H  H34  1  0.364500  0.343500  0.292200  1.0
  H  H35  1  0.613100  0.488300  0.868300  1.0
  H  H36  1  0.386900  0.511700  0.131700  1.0
  H  H37  1  0.373000  0.402700  0.962100  1.0
  H  H38  1  0.627000  0.597300  0.037900  1.0
  H  H39  1  0.165800  0.483700  0.891600  1.0
  H  H40  1  0.834200  0.516300  0.108400  1.0
  H  H41  1  0.317000  0.947000  0.689800  1.0
  H  H42  1  0.683000  0.053000  0.310200  1.0
  H  H43  1  0.359400  0.825400  0.760500  1.0
  H  H44  1  0.640600  0.174600  0.239500  1.0
  H  H45  1  0.174200  0.963500  0.859900  1.0
  H  H46  1  0.825800  0.036500  0.140100  1.0
  H  H47  1  0.953200  0.916400  0.997600  1.0
  H  H48  1  0.046800  0.083600  0.002400  1.0
  H  H49  1  0.790100  0.770700  0.020500  1.0
  H  H50  1  0.209900  0.229300  0.979500  1.0
  H  H51  1  0.846300  0.684500  0.899800  1.0
  H  H52  1  0.153700  0.315500  0.100200  1.0
  C  C53  1  0.587900  0.194200  0.000600  1
  C  C54  1  0.412100  0.805800  0.999400  1
  C  C55  1  0.683600  0.157700  0.920200  1
  C  C56  1  0.316400  0.842300  0.079800  1
  C  C57  1  0.756500  0.429100  0.458900  1.0
  C  C58  1  0.243500  0.570900  0.541100  1.0
  C  C59  1  0.736300  0.464800  0.545100  1.0
  C  C60  1  0.263700  0.535200  0.454900  1.0
  C  C61  1  0.816000  0.418100  0.628200  1.0
  C  C62  1  0.184000  0.581900  0.371800  1.0
  C  C63  1  0.915400  0.335900  0.623800  1.0
  C  C64  1  0.084600  0.664100  0.376200  1.0
  C  C65  1  0.927700  0.303900  0.536700  1.0
  C  C66  1  0.072300  0.696100  0.463300  1.0
  C  C67  1  0.032600  0.218900  0.527000  1.0
  C  C68  1  0.967400  0.781100  0.473000  1.0
  C  C69  1  0.150800  0.109300  0.437300  1.0
  C  C70  1  0.849200  0.890700  0.562700  1.0
  C  C71  1  0.167900  0.015500  0.533400  1.0
  C  C72  1  0.832100  0.984500  0.466600  1.0
  C  C73  1  0.266500  0.934500  0.524000  1.0
  C  C74  1  0.733500  0.065500  0.476000  1.0
  C  C75  1  0.343900  0.947200  0.418100  1.0
  C  C76  1  0.656100  0.052800  0.581900  1.0
  C  C77  1  0.325300  0.040500  0.323100  1.0
  C  C78  1  0.674700  0.959500  0.676900  1.0
  C  C79  1  0.229800  0.122400  0.332500  1.0
  C  C80  1  0.770200  0.877600  0.667500  1.0
  C  C81  1  0.415500  0.773500  0.606900  1.0
  C  C82  1  0.584500  0.226500  0.393100  1.0
  C  C83  1  0.410600  0.665400  0.710100  1.0
  C  C84  1  0.589400  0.334600  0.289900  1.0
  C  C85  1  0.541200  0.620400  0.746600  1.0
  C  C86  1  0.458800  0.379600  0.253400  1.0
  C  C87  1  0.527800  0.520400  0.842000  1.0
  C  C88  1  0.472200  0.479600  0.158000  1.0
  C  C89  1  0.385200  0.469200  0.897400  1.0
  C  C90  1  0.614800  0.530800  0.102600  1.0
  C  C91  1  0.261300  0.518600  0.854700  1.0
  C  C92  1  0.738700  0.481400  0.145300  1.0
  C  C93  1  0.284800  0.868300  0.719800  1.0
  C  C94  1  0.715200  0.131700  0.280200  1.0
  C  C95  1  0.135400  0.848400  0.801500  1.0
  C  C96  1  0.864600  0.151600  0.198500  1.0
  C  C97  1  0.106600  0.906600  0.869500  1.0
  C  C98  1  0.893400  0.093400  0.130500  1.0
  C  C99  1  0.975400  0.878300  0.951500  1.0
  C  C100  1  0.024600  0.121700  0.048500  1.0
  C  C101  1  0.877400  0.792700  0.964400  1.0
  C  C102  1  0.122600  0.207300  0.035600  1.0
  C  C103  1  0.912800  0.741300  0.892000  1.0
  C  C104  1  0.087200  0.258700  0.108000  1.0
  N  N105  1  0.514100  0.220900  0.062900  1
  N  N106  1  0.485900  0.779100  0.937100  1
  N  N107  1  0.909200  0.476300  0.827000  1
  N  N108  1  0.090800  0.523700  0.173000  1
  N  N109  1  0.896400  0.381000  0.879200  1
  N  N110  1  0.103600  0.619000  0.120800  1
  N  N111  1  0.849300  0.349300  0.454200  1.0
  N  N112  1  0.150700  0.650700  0.545800  1.0
  N  N113  1  0.048800  0.193900  0.442700  1.0
  N  N114  1  0.951200  0.806100  0.557300  1.0
  N  N115  1  0.282500  0.837900  0.624300  1.0
  N  N116  1  0.717500  0.162100  0.375700  1.0
  N  N117  1  0.273300  0.614700  0.762400  1.0
  N  N118  1  0.726700  0.385300  0.237600  1.0
  N  N119  1  0.038500  0.768800  0.810400  1.0
  N  N120  1  0.961500  0.231200  0.189600  1.0
  N  N121  1  0.914400  0.576100  0.773200  1.0
  N  N122  1  0.085600  0.423900  0.226800  1.0
  N  N123  1  0.898300  0.487800  0.847200  1.0
  N  N124  1  0.101700  0.512200  0.152800  1.0
  N  N125  1  0.877400  0.398200  0.918100  1.0
  N  N126  1  0.122600  0.601800  0.081900  1.0
  F  F127  1  0.320600  0.132700  0.677400  1
  F  F128  1  0.679400  0.867300  0.322600  1
  F  F129  1  0.532100  0.230300  0.685200  1
  F  F130  1  0.467900  0.769700  0.314800  1
  F  F131  1  0.398000  0.101900  0.814300  1
  F  F132  1  0.602000  0.898100  0.185700  1
  F  F133  1  0.171800  0.204900  0.773800  1
  F  F134  1  0.828200  0.795100  0.226200  1
  F  F135  1  0.306800  0.327300  0.629300  1
  F  F136  1  0.693200  0.672700  0.370700  1
  F  F137  1  0.384800  0.306700  0.778400  1
  F  F138  1  0.615200  0.693300  0.221600  1
  F  F139  1  0.388900  0.272100  0.810100  1
  F  F140  1  0.611100  0.727900  0.189900  1
  F  F141  1  0.335400  0.329900  0.751300  1
  F  F142  1  0.664600  0.670100  0.248700  1
  F  F143  1  0.330700  0.159400  0.647900  1
  F  F144  1  0.669300  0.840600  0.352100  1
  F  F145  1  0.355600  0.107000  0.708900  1
  F  F146  1  0.644400  0.893000  0.291100  1
  F  F147  1  0.396200  0.320600  0.605200  1
  F  F148  1  0.603800  0.679400  0.394800  1
  F  F149  1  0.325200  0.292700  0.603300  1
  F  F150  1  0.674800  0.707300  0.396700  1
  F  F151  1  0.528400  0.193400  0.713900  1
  F  F152  1  0.471600  0.806600  0.286100  1
  F  F153  1  0.519600  0.256400  0.654400  1
  F  F154  1  0.480400  0.743600  0.345600  1
  F  F155  1  0.184500  0.259600  0.742100  1
  F  F156  1  0.815500  0.740400  0.257900  1
  F  F157  1  0.179800  0.177600  0.790400  1
  F  F158  1  0.820200  0.822400  0.209600  1
  F  F159  1  0.348500  0.120500  0.849400  1
  F  F160  1  0.651500  0.879500  0.150600  1
  F  F161  1  0.363700  0.158100  0.856700  1
  F  F162  1  0.636300  0.841900  0.143300  1
