# generated using pymatgen
data_FeP4H33C32(N3F8)3
_symmetry_space_group_name_H-M   'P 1'
_cell_length_a   12.73810000
_cell_length_b   12.86780000
_cell_length_c   13.20290000
_cell_angle_alpha   109.83800000
_cell_angle_beta   94.70800000
_cell_angle_gamma   116.91900000
_symmetry_Int_Tables_number   1
_chemical_formula_structural   FeP4H33C32(N3F8)3
_chemical_formula_sum   'Fe2 P8 H66 C64 N18 F48'
_cell_volume   1741.95142850
_cell_formula_units_Z   2
loop_
 _symmetry_equiv_pos_site_id
 _symmetry_equiv_pos_as_xyz
  1  'x, y, z'
loop_
 _atom_site_type_symbol
 _atom_site_label
 _atom_site_symmetry_multiplicity
 _atom_site_fract_x
 _atom_site_fract_y
 _atom_site_fract_z
 _atom_site_occupancy
  Fe  Fe1  1  0.801130  0.645240  0.363660  1.0
  Fe  Fe2  1  0.198870  0.354760  0.636340  1.0
  P  P3  1  0.070800  0.377900  0.168100  1
  P  P4  1  0.929200  0.622100  0.831900  1
  P  P5  1  0.582900  0.965500  0.704100  1
  P  P6  1  0.417100  0.034500  0.295900  1
  P  P7  1  0.046400  0.348500  0.150500  1
  P  P8  1  0.953600  0.651500  0.849500  1
  P  P9  1  0.588300  0.981800  0.692600  1
  P  P10  1  0.411700  0.018200  0.307400  1
  H  H11  1  0.296900  0.993700  0.837900  1
  H  H12  1  0.703100  0.006300  0.162100  1
  H  H13  1  0.339700  0.025700  0.967500  1
  H  H14  1  0.660300  0.974300  0.032500  1
  H  H15  1  0.439700  0.065800  0.900800  1
  H  H16  1  0.560300  0.934200  0.099200  1
  H  H17  1  0.229200  0.084900  0.069300  1
  H  H18  1  0.770800  0.915100  0.930700  1
  H  H19  1  0.151100  0.149100  0.116800  1
  H  H20  1  0.848900  0.850900  0.883200  1
  H  H21  1  0.173100  0.063000  0.169400  1
  H  H22  1  0.826900  0.937000  0.830600  1
  H  H23  1  0.172000  0.010200  0.024600  1
  H  H24  1  0.828000  0.989800  0.975400  1
  H  H25  1  0.138500  0.118800  0.079100  1
  H  H26  1  0.861500  0.881200  0.920900  1
  H  H27  1  0.239600  0.112300  0.152900  1
  H  H28  1  0.760400  0.887700  0.847100  1
  H  H29  1  0.448800  0.514700  0.845000  1.0
  H  H30  1  0.551200  0.485300  0.155000  1.0
  H  H31  1  0.530900  0.335400  0.516400  1.0
  H  H32  1  0.469100  0.664600  0.483600  1.0
  H  H33  1  0.551600  0.464700  0.612400  1.0
  H  H34  1  0.448400  0.535300  0.387600  1.0
  H  H35  1  0.651000  0.422300  0.621300  1.0
  H  H36  1  0.349000  0.577700  0.378700  1.0
  H  H37  1  0.611600  0.492400  0.903200  1.0
  H  H38  1  0.388400  0.507600  0.096800  1.0
  H  H39  1  0.610700  0.302700  0.804900  1.0
  H  H40  1  0.389300  0.697300  0.195100  1.0
  H  H41  1  0.445600  0.139600  0.643000  1.0
  H  H42  1  0.554400  0.860400  0.357000  1.0
  H  H43  1  0.256800  0.070700  0.503500  1.0
  H  H44  1  0.743200  0.929300  0.496500  1.0
  H  H45  1  0.065800  0.919000  0.434900  1.0
  H  H46  1  0.934200  0.081000  0.565100  1.0
  H  H47  1  0.861000  0.828400  0.133400  1.0
  H  H48  1  0.139000  0.171600  0.866600  1.0
  H  H49  1  0.934200  0.046400  0.185000  1.0
  H  H50  1  0.065800  0.953600  0.815000  1.0
  H  H51  1  0.077100  0.202400  0.358400  1.0
  H  H52  1  0.922900  0.797600  0.641600  1.0
  H  H53  1  0.097500  0.772300  0.262200  1.0
  H  H54  1  0.902500  0.227700  0.737800  1.0
  H  H55  1  0.008000  0.619800  0.211300  1.0
  H  H56  1  0.992000  0.380200  0.788700  1.0
  H  H57  1  0.244200  0.773100  0.396400  1.0
  H  H58  1  0.755800  0.226900  0.603600  1.0
  H  H59  1  0.289400  0.756400  0.564500  1.0
  H  H60  1  0.710600  0.243600  0.435500  1.0
  H  H61  1  0.130100  0.669400  0.642100  1.0
  H  H62  1  0.869900  0.330600  0.357900  1.0
  H  H63  1  0.934800  0.619300  0.560000  1.0
  H  H64  1  0.065200  0.380700  0.440000  1.0
  H  H65  1  0.882200  0.635600  0.082300  1.0
  H  H66  1  0.117800  0.364400  0.917700  1.0
  H  H67  1  0.769600  0.644100  0.122000  1.0
  H  H68  1  0.230400  0.355900  0.878000  1.0
  H  H69  1  0.788600  0.404500  0.970700  1.0
  H  H70  1  0.211400  0.595500  0.029300  1.0
  H  H71  1  0.687900  0.194100  0.961900  1.0
  H  H72  1  0.312100  0.805900  0.038100  1.0
  H  H73  1  0.618500  0.162700  0.113000  1.0
  H  H74  1  0.381500  0.837300  0.887000  1.0
  H  H75  1  0.659000  0.339000  0.272600  1.0
  H  H76  1  0.341000  0.661000  0.727400  1.0
  C  C77  1  0.360500  0.056200  0.909200  1
  C  C78  1  0.639500  0.943800  0.090800  1
  C  C79  1  0.368100  0.179400  0.940900  1
  C  C80  1  0.631900  0.820600  0.059100  1
  C  C81  1  0.209500  0.124600  0.136700  1
  C  C82  1  0.790500  0.875400  0.863300  1
  C  C83  1  0.321200  0.238600  0.218100  1
  C  C84  1  0.678800  0.761400  0.781900  1
  C  C85  1  0.205000  0.100000  0.078000  1
  C  C86  1  0.795000  0.900000  0.922000  1
  C  C87  1  0.301000  0.186200  0.042600  1
  C  C88  1  0.699000  0.813800  0.957400  1
  C  C89  1  0.448600  0.438400  0.802600  1.0
  C  C90  1  0.551400  0.561600  0.197400  1.0
  C  C91  1  0.592300  0.423700  0.569700  1.0
  C  C92  1  0.407700  0.576300  0.430300  1.0
  C  C93  1  0.545700  0.425100  0.838800  1.0
  C  C94  1  0.454300  0.574900  0.161200  1.0
  C  C95  1  0.657100  0.496200  0.508500  1.0
  C  C96  1  0.342900  0.503800  0.491500  1.0
  C  C97  1  0.545800  0.313900  0.780600  1.0
  C  C98  1  0.454200  0.686100  0.219400  1.0
  C  C99  1  0.448800  0.217800  0.685000  1.0
  C  C100  1  0.551200  0.782200  0.315000  1.0
  C  C101  1  0.357000  0.240200  0.653000  1.0
  C  C102  1  0.643000  0.759800  0.347000  1.0
  C  C103  1  0.259300  0.147800  0.548200  1.0
  C  C104  1  0.740700  0.852200  0.451800  1.0
  C  C105  1  0.086500  0.074400  0.411100  1.0
  C  C106  1  0.913500  0.925600  0.588900  1.0
  C  C107  1  0.040400  0.944700  0.382700  1.0
  C  C108  1  0.959600  0.055300  0.617300  1.0
  C  C109  1  0.957200  0.851500  0.278600  1.0
  C  C110  1  0.042800  0.148500  0.721400  1.0
  C  C111  1  0.918000  0.890500  0.204700  1.0
  C  C112  1  0.082000  0.109500  0.795300  1.0
  C  C113  1  0.962300  0.020500  0.235500  1.0
  C  C114  1  0.037700  0.979500  0.764500  1.0
  C  C115  1  0.047000  0.113700  0.338400  1.0
  C  C116  1  0.953000  0.886300  0.661600  1.0
  C  C117  1  0.026500  0.702700  0.270500  1.0
  C  C118  1  0.973500  0.297300  0.729500  1.0
  C  C119  1  0.061700  0.705400  0.383700  1.0
  C  C120  1  0.938300  0.294600  0.616300  1.0
  C  C121  1  0.181700  0.741500  0.431100  1.0
  C  C122  1  0.818300  0.258500  0.568900  1.0
  C  C123  1  0.208000  0.730600  0.529700  1.0
  C  C124  1  0.792000  0.269400  0.470300  1.0
  C  C125  1  0.114900  0.681800  0.576700  1.0
  C  C126  1  0.885100  0.318200  0.423300  1.0
  C  C127  1  0.998500  0.651100  0.526600  1.0
  C  C128  1  0.001500  0.348900  0.473400  1.0
  C  C129  1  0.835200  0.626000  0.137900  1.0
  C  C130  1  0.164800  0.374000  0.862100  1.0
  C  C131  1  0.779200  0.490500  0.128200  1.0
  C  C132  1  0.220800  0.509500  0.871800  1.0
  C  C133  1  0.761100  0.389700  0.031800  1.0
  C  C134  1  0.238900  0.610300  0.968200  1.0
  C  C135  1  0.701000  0.265100  0.026700  1.0
  C  C136  1  0.299000  0.734900  0.973300  1.0
  C  C137  1  0.661500  0.246700  0.116000  1.0
  C  C138  1  0.338500  0.753300  0.884000  1.0
  C  C139  1  0.684900  0.352000  0.210300  1.0
  C  C140  1  0.315100  0.648000  0.789700  1.0
  N  N141  1  0.376100  0.276200  0.971000  1
  N  N142  1  0.623900  0.723800  0.029000  1
  N  N143  1  0.406900  0.327900  0.281100  1
  N  N144  1  0.593100  0.672100  0.718900  1
  N  N145  1  0.370400  0.257300  0.013300  1
  N  N146  1  0.629600  0.742700  0.986700  1
  N  N147  1  0.355100  0.348500  0.711000  1.0
  N  N148  1  0.644900  0.651500  0.289000  1.0
  N  N149  1  0.707300  0.549500  0.460100  1.0
  N  N150  1  0.292700  0.450500  0.539900  1.0
  N  N151  1  0.177000  0.170300  0.516300  1.0
  N  N152  1  0.823000  0.829700  0.483700  1.0
  N  N153  1  0.918100  0.718700  0.252900  1.0
  N  N154  1  0.081900  0.281300  0.747100  1.0
  N  N155  1  0.972000  0.664600  0.432500  1.0
  N  N156  1  0.028000  0.335400  0.567500  1.0
  N  N157  1  0.743200  0.472700  0.217200  1.0
  N  N158  1  0.256800  0.527300  0.782800  1.0
  F  F159  1  0.173900  0.524100  0.209500  1
  F  F160  1  0.826100  0.475900  0.790500  1
  F  F161  1  0.156400  0.339300  0.100500  1
  F  F162  1  0.843600  0.660700  0.899500  1
  F  F163  1  0.970900  0.229500  0.130500  1
  F  F164  1  0.029100  0.770500  0.869500  1
  F  F165  1  0.993600  0.424400  0.240300  1
  F  F166  1  0.006400  0.575600  0.759700  1
  F  F167  1  0.138800  0.379200  0.275400  1
  F  F168  1  0.861200  0.620800  0.724600  1
  F  F169  1  0.005500  0.381900  0.061900  1
  F  F170  1  0.994500  0.618100  0.938100  1
  F  F171  1  0.549300  0.936900  0.574900  1
  F  F172  1  0.450700  0.063100  0.425100  1
  F  F173  1  0.476200  0.997300  0.729400  1
  F  F174  1  0.523800  0.002700  0.270600  1
  F  F175  1  0.617000  0.983600  0.830300  1
  F  F176  1  0.383000  0.016400  0.169700  1
  F  F177  1  0.693700  0.943100  0.686400  1
  F  F178  1  0.306300  0.056900  0.313600  1
  F  F179  1  0.490500  0.816500  0.665600  1
  F  F180  1  0.509500  0.183500  0.334400  1
  F  F181  1  0.663900  0.115700  0.738000  1
  F  F182  1  0.336100  0.884300  0.262000  1
  F  F183  1  0.973100  0.321900  0.031600  1
  F  F184  1  0.026900  0.678100  0.968400  1
  F  F185  1  0.927300  0.209700  0.113000  1
  F  F186  1  0.072700  0.790300  0.887000  1
  F  F187  1  0.110700  0.338500  0.253200  1
  F  F188  1  0.889300  0.661500  0.746800  1
  F  F189  1  0.149900  0.482200  0.156300  1
  F  F190  1  0.850100  0.517800  0.843700  1
  F  F191  1  0.109400  0.281700  0.074500  1
  F  F192  1  0.890600  0.718300  0.925500  1
  F  F193  1  0.968600  0.403900  0.212700  1
  F  F194  1  0.031400  0.596100  0.787300  1
  F  F195  1  0.596000  0.003100  0.580900  1
  F  F196  1  0.404000  0.996900  0.419100  1
  F  F197  1  0.511400  0.829900  0.622500  1
  F  F198  1  0.488600  0.170100  0.377500  1
  F  F199  1  0.575700  0.970700  0.807900  1
  F  F200  1  0.424300  0.029300  0.192100  1
  F  F201  1  0.667700  0.134400  0.758500  1
  F  F202  1  0.332300  0.865600  0.241500  1
  F  F203  1  0.717100  0.990300  0.701900  1
  F  F204  1  0.282900  0.009700  0.298100  1
  F  F205  1  0.461500  0.979400  0.678900  1
  F  F206  1  0.538500  0.020600  0.321100  1
