# generated using pymatgen
data_Cd3B6H88C94N20(O4F15)2
_symmetry_space_group_name_H-M   'P 1'
_cell_length_a   16.58850000
_cell_length_b   18.84674429
_cell_length_c   18.84674429
_cell_angle_alpha   83.34604993
_cell_angle_beta   74.84077350
_cell_angle_gamma   74.84077350
_symmetry_Int_Tables_number   1
_chemical_formula_structural   Cd3B6H88C94N20(O4F15)2
_chemical_formula_sum   'Cd6 B12 H176 C188 N40 O16 F60'
_cell_volume   5482.16360709
_cell_formula_units_Z   2
loop_
 _symmetry_equiv_pos_site_id
 _symmetry_equiv_pos_as_xyz
  1  'x, y, z'
loop_
 _atom_site_type_symbol
 _atom_site_label
 _atom_site_symmetry_multiplicity
 _atom_site_fract_x
 _atom_site_fract_y
 _atom_site_fract_z
 _atom_site_occupancy
  B  B1  1  0.120300  0.535600  0.296200  1
  B  B2  1  0.379700  0.703800  0.464400  1
  B  B3  1  0.879700  0.464400  0.703800  1
  B  B4  1  0.620300  0.296200  0.535600  1
  B  B5  1  0.888600  0.044000  0.799000  1.0
  B  B6  1  0.611400  0.201000  0.956000  1.0
  B  B7  1  0.111400  0.956000  0.201000  1.0
  B  B8  1  0.388600  0.799000  0.044000  1.0
  B  B9  1  0.604600  0.842900  0.665100  1.0
  B  B10  1  0.895400  0.334900  0.157100  1.0
  B  B11  1  0.395400  0.157100  0.334900  1.0
  B  B12  1  0.104600  0.665100  0.842900  1.0
  C  C13  1  0.691400  0.172500  0.728300  1
  C  C14  1  0.808600  0.271700  0.827500  1
  C  C15  1  0.308600  0.827500  0.271700  1
  C  C16  1  0.191400  0.728300  0.172500  1
  C  C17  1  0.620800  0.931890  0.970090  1.0
  C  C18  1  0.879200  0.029910  0.068110  1.0
  C  C19  1  0.379200  0.068110  0.029910  1.0
  C  C20  1  0.120800  0.970090  0.931890  1.0
  C  C21  1  0.580000  0.887200  0.945600  1.0
  C  C22  1  0.920000  0.054400  0.112800  1.0
  C  C23  1  0.420000  0.112800  0.054400  1.0
  C  C24  1  0.080000  0.945600  0.887200  1.0
  C  C25  1  0.600400  0.873320  0.871320  1.0
  C  C26  1  0.899600  0.128680  0.126680  1.0
  C  C27  1  0.399600  0.126680  0.128680  1.0
  C  C28  1  0.100400  0.871320  0.873320  1.0
  C  C29  1  0.661700  0.904010  0.821610  1.0
  C  C30  1  0.838300  0.178390  0.095990  1.0
  C  C31  1  0.338300  0.095990  0.178390  1.0
  C  C32  1  0.161700  0.821610  0.904010  1.0
  C  C33  1  0.702500  0.948800  0.846000  1.0
  C  C34  1  0.797500  0.154000  0.051200  1.0
  C  C35  1  0.297500  0.051200  0.154000  1.0
  C  C36  1  0.202500  0.846000  0.948800  1.0
  C  C37  1  0.598700  0.951130  0.042130  1.0
  C  C38  1  0.901300  0.957870  0.048870  1.0
  C  C39  1  0.401300  0.048870  0.957870  1.0
  C  C40  1  0.098700  0.042130  0.951130  1.0
  C  C41  1  0.539000  0.932100  0.105900  1.0
  C  C42  1  0.961000  0.894100  0.067900  1.0
  C  C43  1  0.461000  0.067900  0.894100  1.0
  C  C44  1  0.039000  0.105900  0.932100  1.0
  C  C45  1  0.539600  0.972730  0.164670  1.0
  C  C46  1  0.960400  0.835330  0.027270  1.0
  C  C47  1  0.460400  0.027270  0.835330  1.0
  C  C48  1  0.039600  0.164670  0.972730  1.0
  C  C49  1  0.619800  0.066900  0.171700  1.0
  C  C50  1  0.880200  0.828300  0.933100  1.0
  C  C51  1  0.380200  0.933100  0.828300  1.0
  C  C52  1  0.119800  0.171700  0.066900  1.0
  C  C53  1  0.872800  0.707500  0.464100  1.0
  C  C54  1  0.627200  0.535900  0.292500  1.0
  C  C55  1  0.127200  0.292500  0.535900  1.0
  C  C56  1  0.372800  0.464100  0.707500  1.0
  C  C57  1  0.915300  0.633800  0.470000  1.0
  C  C58  1  0.584700  0.530000  0.366200  1.0
  C  C59  1  0.084700  0.366200  0.530000  1.0
  C  C60  1  0.415300  0.470000  0.633800  1.0
  C  C61  1  0.888900  0.590700  0.532500  1.0
  C  C62  1  0.611100  0.467500  0.409300  1.0
  C  C63  1  0.111100  0.409300  0.467500  1.0
  C  C64  1  0.388900  0.532500  0.590700  1.0
  C  C65  1  0.819900  0.621200  0.588800  1.0
  C  C66  1  0.680100  0.411200  0.378800  1.0
  C  C67  1  0.180100  0.378800  0.411200  1.0
  C  C68  1  0.319900  0.588800  0.621200  1.0
  C  C69  1  0.777300  0.694900  0.582900  1.0
  C  C70  1  0.722700  0.417100  0.305100  1.0
  C  C71  1  0.222700  0.305100  0.417100  1.0
  C  C72  1  0.277300  0.582900  0.694900  1.0
  C  C73  1  0.897300  0.751030  0.403970  1.0
  C  C74  1  0.602700  0.596030  0.248970  1.0
  C  C75  1  0.102700  0.248970  0.596030  1.0
  C  C76  1  0.397300  0.403970  0.751030  1.0
  C  C77  1  0.964400  0.738800  0.338800  1.0
  C  C78  1  0.535600  0.661200  0.261200  1.0
  C  C79  1  0.035600  0.261200  0.661200  1.0
  C  C80  1  0.464400  0.338800  0.738800  1.0
  C  C81  1  0.968600  0.808100  0.301500  1.0
  C  C82  1  0.531400  0.698500  0.191900  1.0
  C  C83  1  0.031400  0.191900  0.698500  1.0
  C  C84  1  0.468600  0.301500  0.808100  1.0
  C  C85  1  0.884500  0.940300  0.334500  1.0
  C  C86  1  0.615500  0.665500  0.059700  1.0
  C  C87  1  0.115500  0.059700  0.665500  1.0
  C  C88  1  0.384500  0.334500  0.940300  1.0
  C  C89  1  0.689500  0.034020  0.215440  1.0
  C  C90  1  0.810500  0.784560  0.965980  1.0
  C  C91  1  0.310500  0.965980  0.784560  1.0
  C  C92  1  0.189500  0.215440  0.034020  1.0
  C  C93  1  0.723600  0.958370  0.218170  1.0
  C  C94  1  0.776400  0.781830  0.041630  1.0
  C  C95  1  0.276400  0.041630  0.781830  1.0
  C  C96  1  0.223600  0.218170  0.958370  1.0
  C  C97  1  0.787700  0.928200  0.255520  1.0
  C  C98  1  0.712300  0.744480  0.071800  1.0
  C  C99  1  0.212300  0.071800  0.744480  1.0
  C  C100  1  0.287700  0.255520  0.928200  1.0
  C  C101  1  0.817700  0.973700  0.290140  1.0
  C  C102  1  0.682300  0.709860  0.026300  1.0
  C  C103  1  0.182300  0.026300  0.709860  1.0
  C  C104  1  0.317700  0.290140  0.973700  1.0
  C  C105  1  0.783600  0.049350  0.287410  1.0
  C  C106  1  0.716400  0.712590  0.950650  1.0
  C  C107  1  0.216400  0.950650  0.712590  1.0
  C  C108  1  0.283600  0.287410  0.049350  1.0
  C  C109  1  0.719500  0.079520  0.250060  1.0
  C  C110  1  0.780500  0.749940  0.920480  1.0
  C  C111  1  0.280500  0.920480  0.749940  1.0
  C  C112  1  0.219500  0.250060  0.079520  1.0
  C  C113  1  0.685400  0.155170  0.247330  1.0
  C  C114  1  0.814600  0.752670  0.844830  1.0
  C  C115  1  0.314600  0.844830  0.752670  1.0
  C  C116  1  0.185400  0.247330  0.155170  1.0
  C  C117  1  0.715500  0.200710  0.281910  1.0
  C  C118  1  0.784500  0.718090  0.799290  1.0
  C  C119  1  0.284500  0.799290  0.718090  1.0
  C  C120  1  0.215500  0.281910  0.200710  1.0
  C  C121  1  0.779600  0.170510  0.319310  1.0
  C  C122  1  0.720400  0.680690  0.829490  1.0
  C  C123  1  0.220400  0.829490  0.680690  1.0
  C  C124  1  0.279600  0.319310  0.170510  1.0
  C  C125  1  0.813700  0.094850  0.322050  1.0
  C  C126  1  0.686300  0.677950  0.905150  1.0
  C  C127  1  0.186300  0.905150  0.677950  1.0
  C  C128  1  0.313700  0.322050  0.094850  1.0
  C  C129  1  0.622500  0.996020  0.442020  1.0
  C  C130  1  0.877500  0.557980  0.003980  1.0
  C  C131  1  0.377500  0.003980  0.557980  1.0
  C  C132  1  0.122500  0.442020  0.996020  1.0
  C  C133  1  0.585800  0.069000  0.424600  1.0
  C  C134  1  0.914200  0.575400  0.931000  1.0
  C  C135  1  0.414200  0.931000  0.575400  1.0
  C  C136  1  0.085800  0.424600  0.069000  1.0
  C  C137  1  0.610100  0.125400  0.448800  1.0
  C  C138  1  0.889900  0.551200  0.874600  1.0
  C  C139  1  0.389900  0.874600  0.551200  1.0
  C  C140  1  0.110100  0.448800  0.125400  1.0
  C  C141  1  0.671000  0.108800  0.490600  1.0
  C  C142  1  0.829000  0.509400  0.891200  1.0
  C  C143  1  0.329000  0.891200  0.509400  1.0
  C  C144  1  0.171000  0.490600  0.108800  1.0
  C  C145  1  0.707700  0.035800  0.508000  1.0
  C  C146  1  0.792300  0.492000  0.964200  1.0
  C  C147  1  0.292300  0.964200  0.492000  1.0
  C  C148  1  0.207700  0.508000  0.035800  1.0
  C  C149  1  0.598300  0.939400  0.422600  1.0
  C  C150  1  0.901700  0.577400  0.060600  1.0
  C  C151  1  0.401700  0.060600  0.577400  1.0
  C  C152  1  0.098300  0.422600  0.939400  1.0
  C  C153  1  0.537000  0.936000  0.383600  1.0
  C  C154  1  0.963000  0.616400  0.064000  1.0
  C  C155  1  0.463000  0.064000  0.616400  1.0
  C  C156  1  0.037000  0.383600  0.936000  1.0
  C  C157  1  0.533300  0.861300  0.385500  1.0
  C  C158  1  0.966700  0.614500  0.138700  1.0
  C  C159  1  0.466700  0.138700  0.614500  1.0
  C  C160  1  0.033300  0.385500  0.861300  1.0
  C  C161  1  0.606700  0.745900  0.450100  1.0
  C  C162  1  0.893300  0.549900  0.254100  1.0
  C  C163  1  0.393300  0.254100  0.549900  1.0
  C  C164  1  0.106700  0.450100  0.745900  1.0
  C  C165  1  0.683200  0.696200  0.397400  1.0
  C  C166  1  0.816800  0.602600  0.303800  1.0
  C  C167  1  0.316800  0.303800  0.602600  1.0
  C  C168  1  0.183200  0.397400  0.696200  1.0
  C  C169  1  0.718000  0.719400  0.326600  1.0
  C  C170  1  0.782000  0.673400  0.280600  1.0
  C  C171  1  0.282000  0.280600  0.673400  1.0
  C  C172  1  0.218000  0.326600  0.719400  1.0
  C  C173  1  0.717400  0.623500  0.420300  1.0
  C  C174  1  0.782600  0.579700  0.376500  1.0
  C  C175  1  0.282600  0.376500  0.579700  1.0
  C  C176  1  0.217400  0.420300  0.623500  1.0
  C  C177  1  0.682000  0.596600  0.495600  1.0
  C  C178  1  0.818000  0.504400  0.403400  1.0
  C  C179  1  0.318000  0.403400  0.504400  1.0
  C  C180  1  0.182000  0.495600  0.596600  1.0
  C  C181  1  0.713700  0.527300  0.518700  1.0
  C  C182  1  0.786300  0.481300  0.472700  1.0
  C  C183  1  0.286300  0.472700  0.481300  1.0
  C  C184  1  0.213700  0.518700  0.527300  1.0
  C  C185  1  0.860200  0.904500  0.666100  1.0
  C  C186  1  0.639800  0.333900  0.095500  1.0
  C  C187  1  0.139800  0.095500  0.333900  1.0
  C  C188  1  0.360200  0.666100  0.904500  1.0
  C  C189  1  0.890600  0.901700  0.581300  1.0
  C  C190  1  0.609400  0.418700  0.098300  1.0
  C  C191  1  0.109400  0.098300  0.418700  1.0
  C  C192  1  0.390600  0.581300  0.901700  1.0
  C  C193  1  0.016200  0.898000  0.475800  1.0
  C  C194  1  0.483800  0.524200  0.102000  1.0
  C  C195  1  0.983800  0.102000  0.524200  1.0
  C  C196  1  0.516200  0.475800  0.898000  1.0
  C  C197  1  0.108100  0.897200  0.471000  1.0
  C  C198  1  0.391900  0.529000  0.102800  1.0
  C  C199  1  0.891900  0.102800  0.529000  1.0
  C  C200  1  0.608100  0.471000  0.897200  1.0
  Cd  Cd201  1  0.750000  0.029330  0.970670  1
  Cd  Cd202  1  0.250000  0.970670  0.029330  1
  Cd  Cd203  1  0.742880  0.858950  0.503750  1.0
  Cd  Cd204  1  0.757120  0.496250  0.141050  1.0
  Cd  Cd205  1  0.257120  0.141050  0.496250  1.0
  Cd  Cd206  1  0.242880  0.503750  0.858950  1.0
  F  F207  1  0.208300  0.510800  0.273600  1
  F  F208  1  0.291700  0.726400  0.489200  1
  F  F209  1  0.791700  0.489200  0.726400  1
  F  F210  1  0.708300  0.273600  0.510800  1
  F  F211  1  0.102500  0.558700  0.365900  1
  F  F212  1  0.397500  0.634100  0.441300  1
  F  F213  1  0.897500  0.441300  0.634100  1
  F  F214  1  0.602500  0.365900  0.558700  1
  F  F215  1  0.092500  0.595400  0.250800  1
  F  F216  1  0.407500  0.749200  0.404600  1
  F  F217  1  0.907500  0.404600  0.749200  1
  F  F218  1  0.592500  0.250800  0.595400  1
  F  F219  1  0.078900  0.480800  0.295200  1
  F  F220  1  0.421100  0.704800  0.519200  1
  F  F221  1  0.921100  0.519200  0.704800  1
  F  F222  1  0.578900  0.295200  0.480800  1
  F  F223  1  0.849200  0.017100  0.866100  1
  F  F224  1  0.650800  0.133900  0.982900  1
  F  F225  1  0.150800  0.982900  0.133900  1
  F  F226  1  0.349200  0.866100  0.017100  1
  F  F227  1  0.826000  0.107500  0.788300  1
  F  F228  1  0.674000  0.211700  0.892500  1
  F  F229  1  0.174000  0.892500  0.211700  1
  F  F230  1  0.326000  0.788300  0.107500  1
  F  F231  1  0.915000  0.032600  0.724800  1
  F  F232  1  0.585000  0.275200  0.967400  1
  F  F233  1  0.085000  0.967400  0.275200  1
  F  F234  1  0.415000  0.724800  0.032600  1
  F  F235  1  0.812000  0.062600  0.849800  1.0
  F  F236  1  0.688000  0.150200  0.937400  1.0
  F  F237  1  0.188000  0.937400  0.150200  1.0
  F  F238  1  0.312000  0.849800  0.062600  1.0
  F  F239  1  0.916500  0.967800  0.812200  1.0
  F  F240  1  0.583500  0.187800  0.032200  1.0
  F  F241  1  0.083500  0.032200  0.187800  1.0
  F  F242  1  0.416500  0.812200  0.967800  1.0
  F  F243  1  0.882800  0.061200  0.727800  1.0
  F  F244  1  0.617200  0.272200  0.938800  1.0
  F  F245  1  0.117200  0.938800  0.272200  1.0
  F  F246  1  0.382800  0.727800  0.061200  1.0
  F  F247  1  0.947400  0.077000  0.812800  1.0
  F  F248  1  0.552600  0.187200  0.923000  1.0
  F  F249  1  0.052600  0.923000  0.187200  1.0
  F  F250  1  0.447400  0.812800  0.077000  1.0
  F  F251  1  0.681100  0.862300  0.632300  1.0
  F  F252  1  0.818900  0.367700  0.137700  1.0
  F  F253  1  0.318900  0.137700  0.367700  1.0
  F  F254  1  0.181100  0.632300  0.862300  1.0
  F  F255  1  0.583600  0.814500  0.611100  1.0
  F  F256  1  0.916400  0.388900  0.185500  1.0
  F  F257  1  0.416400  0.185500  0.388900  1.0
  F  F258  1  0.083600  0.611100  0.814500  1.0
  F  F259  1  0.546100  0.904900  0.691700  1.0
  F  F260  1  0.953900  0.308300  0.095100  1.0
  F  F261  1  0.453900  0.095100  0.308300  1.0
  F  F262  1  0.046100  0.691700  0.904900  1.0
  F  F263  1  0.615100  0.792100  0.721100  1.0
  F  F264  1  0.884900  0.278900  0.207900  1.0
  F  F265  1  0.384900  0.207900  0.278900  1.0
  F  F266  1  0.115100  0.721100  0.792100  1.0
  H  H267  1  0.740400  0.146900  0.748900  1
  H  H268  1  0.759600  0.251100  0.853100  1
  H  H269  1  0.259600  0.853100  0.251100  1
  H  H270  1  0.240400  0.748900  0.146900  1
  H  H271  1  0.651400  0.208300  0.762700  1
  H  H272  1  0.848600  0.237300  0.791700  1
  H  H273  1  0.348600  0.791700  0.237300  1
  H  H274  1  0.151400  0.762700  0.208300  1
  H  H275  1  0.712000  0.197900  0.681300  1
  H  H276  1  0.788000  0.318700  0.802100  1
  H  H277  1  0.288000  0.802100  0.318700  1
  H  H278  1  0.212000  0.681300  0.197900  1
  H  H279  1  0.538200  0.866200  0.979600  1.0
  H  H280  1  0.961800  0.020400  0.133800  1.0
  H  H281  1  0.461800  0.133800  0.020400  1.0
  H  H282  1  0.038200  0.979600  0.866200  1.0
  H  H283  1  0.572500  0.842700  0.854700  1.0
  H  H284  1  0.927500  0.145300  0.157300  1.0
  H  H285  1  0.427500  0.157300  0.145300  1.0
  H  H286  1  0.072500  0.854700  0.842700  1.0
  H  H287  1  0.675600  0.894600  0.770800  1.0
  H  H288  1  0.824400  0.229200  0.105400  1.0
  H  H289  1  0.324400  0.105400  0.229200  1.0
  H  H290  1  0.175600  0.770800  0.894600  1.0
  H  H291  1  0.744300  0.969800  0.812000  1.0
  H  H292  1  0.755700  0.188000  0.030200  1.0
  H  H293  1  0.255700  0.030200  0.188000  1.0
  H  H294  1  0.244300  0.812000  0.969800  1.0
  H  H295  1  0.504700  0.898200  0.108800  1.0
  H  H296  1  0.995300  0.891200  0.101800  1.0
  H  H297  1  0.495300  0.101800  0.891200  1.0
  H  H298  1  0.004700  0.108800  0.898200  1.0
  H  H299  1  0.505800  0.970700  0.213700  1.0
  H  H300  1  0.994200  0.786300  0.029300  1.0
  H  H301  1  0.494200  0.029300  0.786300  1.0
  H  H302  1  0.005800  0.213700  0.970700  1.0
  H  H303  1  0.566800  0.092900  0.205900  1.0
  H  H304  1  0.933200  0.794100  0.907100  1.0
  H  H305  1  0.433200  0.907100  0.794100  1.0
  H  H306  1  0.066800  0.205900  0.092900  1.0
  H  H307  1  0.640100  0.103900  0.134300  1.0
  H  H308  1  0.859900  0.865700  0.896100  1.0
  H  H309  1  0.359900  0.896100  0.865700  1.0
  H  H310  1  0.140100  0.134300  0.103900  1.0
  H  H311  1  0.962500  0.612900  0.431500  1.0
  H  H312  1  0.537500  0.568500  0.387100  1.0
  H  H313  1  0.037500  0.387100  0.568500  1.0
  H  H314  1  0.462500  0.431500  0.612900  1.0
  H  H315  1  0.918000  0.540400  0.536600  1.0
  H  H316  1  0.582000  0.463400  0.459600  1.0
  H  H317  1  0.082000  0.459600  0.463400  1.0
  H  H318  1  0.418000  0.536600  0.540400  1.0
  H  H319  1  0.801900  0.591700  0.631500  1.0
  H  H320  1  0.698100  0.368500  0.408300  1.0
  H  H321  1  0.198100  0.408300  0.368500  1.0
  H  H322  1  0.301900  0.631500  0.591700  1.0
  H  H323  1  0.730200  0.715800  0.621400  1.0
  H  H324  1  0.769800  0.378600  0.284200  1.0
  H  H325  1  0.269800  0.284200  0.378600  1.0
  H  H326  1  0.230200  0.621400  0.715800  1.0
  H  H327  1  0.000300  0.692400  0.323000  1.0
  H  H328  1  0.499700  0.677000  0.307600  1.0
  H  H329  1  0.999700  0.307600  0.677000  1.0
  H  H330  1  0.500300  0.323000  0.692400  1.0
  H  H331  1  0.007700  0.816300  0.256300  1.0
  H  H332  1  0.492300  0.743700  0.183700  1.0
  H  H333  1  0.992300  0.183700  0.743700  1.0
  H  H334  1  0.507700  0.256300  0.816300  1.0
  H  H335  1  0.938300  0.955600  0.309800  1.0
  H  H336  1  0.561700  0.690200  0.044400  1.0
  H  H337  1  0.061700  0.044400  0.690200  1.0
  H  H338  1  0.438300  0.309800  0.955600  1.0
  H  H339  1  0.863600  0.960900  0.383700  1.0
  H  H340  1  0.636400  0.616300  0.039100  1.0
  H  H341  1  0.136400  0.039100  0.616300  1.0
  H  H342  1  0.363600  0.383700  0.960900  1.0
  H  H343  1  0.703100  0.927300  0.194500  1.0
  H  H344  1  0.796900  0.805500  0.072700  1.0
  H  H345  1  0.296900  0.072700  0.805500  1.0
  H  H346  1  0.203100  0.194500  0.927300  1.0
  H  H347  1  0.811000  0.876500  0.257300  1.0
  H  H348  1  0.689000  0.742700  0.123500  1.0
  H  H349  1  0.189000  0.123500  0.742700  1.0
  H  H350  1  0.311000  0.257300  0.876500  1.0
  H  H351  1  0.641600  0.175800  0.221800  1.0
  H  H352  1  0.858400  0.778200  0.824200  1.0
  H  H353  1  0.358400  0.824200  0.778200  1.0
  H  H354  1  0.141600  0.221800  0.175800  1.0
  H  H355  1  0.692200  0.252400  0.280000  1.0
  H  H356  1  0.807800  0.720000  0.747600  1.0
  H  H357  1  0.307800  0.747600  0.720000  1.0
  H  H358  1  0.192200  0.280000  0.252400  1.0
  H  H359  1  0.800100  0.201600  0.343000  1.0
  H  H360  1  0.699900  0.657000  0.798400  1.0
  H  H361  1  0.199900  0.798400  0.657000  1.0
  H  H362  1  0.300100  0.343000  0.201600  1.0
  H  H363  1  0.857500  0.074200  0.347600  1.0
  H  H364  1  0.642500  0.652400  0.925800  1.0
  H  H365  1  0.142500  0.925800  0.652400  1.0
  H  H366  1  0.357500  0.347600  0.074200  1.0
  H  H367  1  0.544200  0.080400  0.396000  1.0
  H  H368  1  0.955800  0.604000  0.919600  1.0
  H  H369  1  0.455800  0.919600  0.604000  1.0
  H  H370  1  0.044200  0.396000  0.080400  1.0
  H  H371  1  0.585000  0.175300  0.436900  1.0
  H  H372  1  0.915000  0.563100  0.824700  1.0
  H  H373  1  0.415000  0.824700  0.563100  1.0
  H  H374  1  0.085000  0.436900  0.175300  1.0
  H  H375  1  0.687600  0.147200  0.507200  1.0
  H  H376  1  0.812400  0.492800  0.852800  1.0
  H  H377  1  0.312400  0.852800  0.492800  1.0
  H  H378  1  0.187600  0.507200  0.147200  1.0
  H  H379  1  0.749400  0.024400  0.536600  1.0
  H  H380  1  0.750600  0.463400  0.975600  1.0
  H  H381  1  0.250600  0.975600  0.463400  1.0
  H  H382  1  0.249400  0.536600  0.024400  1.0
  H  H383  1  0.504200  0.976500  0.360300  1.0
  H  H384  1  0.995800  0.639700  0.023500  1.0
  H  H385  1  0.495800  0.023500  0.639700  1.0
  H  H386  1  0.004200  0.360300  0.976500  1.0
  H  H387  1  0.497700  0.843100  0.363700  1.0
  H  H388  1  0.002300  0.636300  0.156900  1.0
  H  H389  1  0.502300  0.156900  0.636300  1.0
  H  H390  1  0.997700  0.363700  0.843100  1.0
  H  H391  1  0.554000  0.728500  0.455100  1.0
  H  H392  1  0.946000  0.544900  0.271500  1.0
  H  H393  1  0.446000  0.271500  0.544900  1.0
  H  H394  1  0.054000  0.455100  0.728500  1.0
  H  H395  1  0.618600  0.741500  0.499500  1.0
  H  H396  1  0.881400  0.500500  0.258500  1.0
  H  H397  1  0.381400  0.258500  0.500500  1.0
  H  H398  1  0.118600  0.499500  0.741500  1.0
  H  H399  1  0.696700  0.768500  0.309700  1.0
  H  H400  1  0.803300  0.690300  0.231500  1.0
  H  H401  1  0.303300  0.231500  0.690300  1.0
  H  H402  1  0.196700  0.309700  0.768500  1.0
  H  H403  1  0.636700  0.628400  0.527800  1.0
  H  H404  1  0.863300  0.472200  0.371600  1.0
  H  H405  1  0.363300  0.371600  0.472200  1.0
  H  H406  1  0.136700  0.527800  0.628400  1.0
  H  H407  1  0.687700  0.508800  0.565800  1.0
  H  H408  1  0.812300  0.434200  0.491200  1.0
  H  H409  1  0.312300  0.491200  0.434200  1.0
  H  H410  1  0.187700  0.565800  0.508800  1.0
  H  H411  1  0.908500  0.905900  0.686300  1.0
  H  H412  1  0.591500  0.313700  0.094100  1.0
  H  H413  1  0.091500  0.094100  0.313700  1.0
  H  H414  1  0.408500  0.686300  0.905900  1.0
  H  H415  1  0.839200  0.860700  0.686500  1.0
  H  H416  1  0.660800  0.313500  0.139300  1.0
  H  H417  1  0.160800  0.139300  0.313500  1.0
  H  H418  1  0.339200  0.686500  0.860700  1.0
  H  H419  1  0.813800  0.948700  0.679100  1.0
  H  H420  1  0.686200  0.320900  0.051300  1.0
  H  H421  1  0.186200  0.051300  0.320900  1.0
  H  H422  1  0.313800  0.679100  0.948700  1.0
  H  H423  1  0.011000  0.852900  0.456900  1.0
  H  H424  1  0.489000  0.543100  0.147100  1.0
  H  H425  1  0.989000  0.147100  0.543100  1.0
  H  H426  1  0.511000  0.456900  0.852900  1.0
  H  H427  1  0.987400  0.942000  0.449600  1.0
  H  H428  1  0.512600  0.550400  0.058000  1.0
  H  H429  1  0.012600  0.058000  0.550400  1.0
  H  H430  1  0.487400  0.449600  0.942000  1.0
  H  H431  1  0.119400  0.886800  0.520000  1.0
  H  H432  1  0.380600  0.480000  0.113200  1.0
  H  H433  1  0.880600  0.113200  0.480000  1.0
  H  H434  1  0.619400  0.520000  0.886800  1.0
  H  H435  1  0.118800  0.945300  0.451300  1.0
  H  H436  1  0.381200  0.548700  0.054700  1.0
  H  H437  1  0.881200  0.054700  0.548700  1.0
  H  H438  1  0.618800  0.451300  0.945300  1.0
  H  H439  1  0.146300  0.859000  0.438200  1.0
  H  H440  1  0.353700  0.561800  0.141000  1.0
  H  H441  1  0.853700  0.141000  0.561800  1.0
  H  H442  1  0.646300  0.438200  0.859000  1.0
  N  N443  1  0.646600  0.118300  0.716100  1
  N  N444  1  0.853400  0.283900  0.881700  1
  N  N445  1  0.353400  0.881700  0.283900  1
  N  N446  1  0.146600  0.716100  0.118300  1
  N  N447  1  0.682100  0.962680  0.920280  1.0
  N  N448  1  0.817900  0.079720  0.037320  1.0
  N  N449  1  0.317900  0.037320  0.079720  1.0
  N  N450  1  0.182100  0.920280  0.962680  1.0
  N  N451  1  0.599700  0.016770  0.137170  1.0
  N  N452  1  0.900300  0.862830  0.983230  1.0
  N  N453  1  0.400300  0.983230  0.862830  1.0
  N  N454  1  0.099700  0.137170  0.016770  1.0
  N  N455  1  0.636200  0.003450  0.061470  1.0
  N  N456  1  0.863800  0.938530  0.996550  1.0
  N  N457  1  0.363800  0.996550  0.938530  1.0
  N  N458  1  0.136200  0.061470  0.003450  1.0
  N  N459  1  0.803800  0.738000  0.520400  1.0
  N  N460  1  0.696200  0.479600  0.262000  1.0
  N  N461  1  0.196200  0.262000  0.479600  1.0
  N  N462  1  0.303800  0.520400  0.738000  1.0
  N  N463  1  0.904000  0.863150  0.343450  1.0
  N  N464  1  0.596000  0.656550  0.136850  1.0
  N  N465  1  0.096000  0.136850  0.656550  1.0
  N  N466  1  0.404000  0.343450  0.863150  1.0
  N  N467  1  0.860000  0.827900  0.406900  1.0
  N  N468  1  0.640000  0.593100  0.172100  1.0
  N  N469  1  0.140000  0.172100  0.593100  1.0
  N  N470  1  0.360000  0.406900  0.827900  1.0
  N  N471  1  0.683400  0.979400  0.483800  1.0
  N  N472  1  0.816600  0.516200  0.020600  1.0
  N  N473  1  0.316600  0.020600  0.516200  1.0
  N  N474  1  0.183400  0.483800  0.979400  1.0
  N  N475  1  0.592400  0.818600  0.425600  1.0
  N  N476  1  0.907600  0.574400  0.181400  1.0
  N  N477  1  0.407600  0.181400  0.574400  1.0
  N  N478  1  0.092400  0.425600  0.818600  1.0
  N  N479  1  0.632500  0.866800  0.448600  1.0
  N  N480  1  0.867500  0.551400  0.133200  1.0
  N  N481  1  0.367500  0.133200  0.551400  1.0
  N  N482  1  0.132500  0.448600  0.866800  1.0
  O  O483  1  0.680500  0.063700  0.682700  1
  O  O484  1  0.819500  0.317300  0.936300  1
  O  O485  1  0.319500  0.936300  0.317300  1
  O  O486  1  0.180500  0.682700  0.063700  1
  O  O487  1  0.568800  0.132600  0.743400  1
  O  O488  1  0.931200  0.256600  0.867400  1
  O  O489  1  0.431200  0.867400  0.256600  1
  O  O490  1  0.068800  0.743400  0.132600  1
  O  O491  1  0.850000  0.900800  0.542800  1.0
  O  O492  1  0.650000  0.457200  0.099200  1.0
  O  O493  1  0.150000  0.099200  0.457200  1.0
  O  O494  1  0.350000  0.542800  0.900800  1.0
  O  O495  1  0.981200  0.900500  0.560500  1.0
  O  O496  1  0.518800  0.439500  0.099500  1.0
  O  O497  1  0.018800  0.099500  0.439500  1.0
  O  O498  1  0.481200  0.560500  0.900500  1.0
