# generated using pymatgen
data_PdC44(N3O)2
_symmetry_space_group_name_H-M   'P 1'
_cell_length_a   43.69495644
_cell_length_b   43.69495644
_cell_length_c   43.69495644
_cell_angle_alpha   60.00000000
_cell_angle_beta   60.00000000
_cell_angle_gamma   60.00000000
_symmetry_Int_Tables_number   1
_chemical_formula_structural   PdC44(N3O)2
_chemical_formula_sum   'Pd12 C528 N72 O24'
_cell_volume   58990.07308855
_cell_formula_units_Z   12
loop_
 _symmetry_equiv_pos_site_id
 _symmetry_equiv_pos_as_xyz
  1  'x, y, z'
loop_
 _atom_site_type_symbol
 _atom_site_label
 _atom_site_symmetry_multiplicity
 _atom_site_fract_x
 _atom_site_fract_y
 _atom_site_fract_z
 _atom_site_occupancy
  C  C1  1  0.693700  0.693700  0.109500  1.0
  C  C2  1  0.693700  0.109500  0.693700  1.0
  C  C3  1  0.109500  0.693700  0.693700  1.0
  C  C4  1  0.496900  0.306300  0.890500  1.0
  C  C5  1  0.306300  0.496900  0.306300  1.0
  C  C6  1  0.890500  0.306300  0.496900  1.0
  C  C7  1  0.496900  0.890500  0.306300  1.0
  C  C8  1  0.306300  0.306300  0.496900  1.0
  C  C9  1  0.890500  0.496900  0.306300  1.0
  C  C10  1  0.496900  0.306300  0.306300  1.0
  C  C11  1  0.306300  0.496900  0.890500  1.0
  C  C12  1  0.306300  0.890500  0.496900  1.0
  C  C13  1  0.503100  0.109500  0.693700  1.0
  C  C14  1  0.109500  0.503100  0.693700  1.0
  C  C15  1  0.693700  0.693700  0.503100  1.0
  C  C16  1  0.109500  0.693700  0.503100  1.0
  C  C17  1  0.503100  0.693700  0.109500  1.0
  C  C18  1  0.693700  0.503100  0.693700  1.0
  C  C19  1  0.693700  0.503100  0.109500  1.0
  C  C20  1  0.693700  0.109500  0.503100  1.0
  C  C21  1  0.503100  0.693700  0.693700  1.0
  C  C22  1  0.306300  0.890500  0.306300  1.0
  C  C23  1  0.306300  0.306300  0.890500  1.0
  C  C24  1  0.890500  0.306300  0.306300  1.0
  C  C25  1  0.734500  0.734500  0.053700  1.0
  C  C26  1  0.734500  0.053700  0.734500  1.0
  C  C27  1  0.053700  0.734500  0.734500  1.0
  C  C28  1  0.522700  0.265500  0.946300  1.0
  C  C29  1  0.265500  0.522700  0.265500  1.0
  C  C30  1  0.946300  0.265500  0.522700  1.0
  C  C31  1  0.522700  0.946300  0.265500  1.0
  C  C32  1  0.265500  0.265500  0.522700  1.0
  C  C33  1  0.946300  0.522700  0.265500  1.0
  C  C34  1  0.522700  0.265500  0.265500  1.0
  C  C35  1  0.265500  0.522700  0.946300  1.0
  C  C36  1  0.265500  0.946300  0.522700  1.0
  C  C37  1  0.477300  0.053700  0.734500  1.0
  C  C38  1  0.053700  0.477300  0.734500  1.0
  C  C39  1  0.734500  0.734500  0.477300  1.0
  C  C40  1  0.053700  0.734500  0.477300  1.0
  C  C41  1  0.477300  0.734500  0.053700  1.0
  C  C42  1  0.734500  0.477300  0.734500  1.0
  C  C43  1  0.734500  0.477300  0.053700  1.0
  C  C44  1  0.734500  0.053700  0.477300  1.0
  C  C45  1  0.477300  0.734500  0.734500  1.0
  C  C46  1  0.265500  0.946300  0.265500  1.0
  C  C47  1  0.265500  0.265500  0.946300  1.0
  C  C48  1  0.946300  0.265500  0.265500  1.0
  C  C49  1  0.636100  0.636100  0.219500  1.0
  C  C50  1  0.636100  0.219500  0.636100  1.0
  C  C51  1  0.219500  0.636100  0.636100  1.0
  C  C52  1  0.491700  0.363900  0.780500  1.0
  C  C53  1  0.363900  0.491700  0.363900  1.0
  C  C54  1  0.780500  0.363900  0.491700  1.0
  C  C55  1  0.491700  0.780500  0.363900  1.0
  C  C56  1  0.363900  0.363900  0.491700  1.0
  C  C57  1  0.780500  0.491700  0.363900  1.0
  C  C58  1  0.491700  0.363900  0.363900  1.0
  C  C59  1  0.363900  0.491700  0.780500  1.0
  C  C60  1  0.363900  0.780500  0.491700  1.0
  C  C61  1  0.508300  0.219500  0.636100  1.0
  C  C62  1  0.219500  0.508300  0.636100  1.0
  C  C63  1  0.636100  0.636100  0.508300  1.0
  C  C64  1  0.219500  0.636100  0.508300  1.0
  C  C65  1  0.508300  0.636100  0.219500  1.0
  C  C66  1  0.636100  0.508300  0.636100  1.0
  C  C67  1  0.636100  0.508300  0.219500  1.0
  C  C68  1  0.636100  0.219500  0.508300  1.0
  C  C69  1  0.508300  0.636100  0.636100  1.0
  C  C70  1  0.363900  0.780500  0.363900  1.0
  C  C71  1  0.363900  0.363900  0.780500  1.0
  C  C72  1  0.780500  0.363900  0.363900  1.0
  C  C73  1  0.670400  0.670400  0.141400  1.0
  C  C74  1  0.670400  0.141400  0.670400  1.0
  C  C75  1  0.141400  0.670400  0.670400  1.0
  C  C76  1  0.482200  0.329600  0.858600  1.0
  C  C77  1  0.329600  0.482200  0.329600  1.0
  C  C78  1  0.858600  0.329600  0.482200  1.0
  C  C79  1  0.482200  0.858600  0.329600  1.0
  C  C80  1  0.329600  0.329600  0.482200  1.0
  C  C81  1  0.858600  0.482200  0.329600  1.0
  C  C82  1  0.482200  0.329600  0.329600  1.0
  C  C83  1  0.329600  0.482200  0.858600  1.0
  C  C84  1  0.329600  0.858600  0.482200  1.0
  C  C85  1  0.517800  0.141400  0.670400  1.0
  C  C86  1  0.141400  0.517800  0.670400  1.0
  C  C87  1  0.670400  0.670400  0.517800  1.0
  C  C88  1  0.141400  0.670400  0.517800  1.0
  C  C89  1  0.517800  0.670400  0.141400  1.0
  C  C90  1  0.670400  0.517800  0.670400  1.0
  C  C91  1  0.670400  0.517800  0.141400  1.0
  C  C92  1  0.670400  0.141400  0.517800  1.0
  C  C93  1  0.517800  0.670400  0.670400  1.0
  C  C94  1  0.329600  0.858600  0.329600  1.0
  C  C95  1  0.329600  0.329600  0.858600  1.0
  C  C96  1  0.858600  0.329600  0.329600  1.0
  C  C97  1  0.921400  0.605400  0.012800  1.0
  C  C98  1  0.605400  0.012800  0.921400  1.0
  C  C99  1  0.012800  0.921400  0.605400  1.0
  C  C100  1  0.539600  0.394600  0.987200  1.0
  C  C101  1  0.394600  0.539600  0.078600  1.0
  C  C102  1  0.987200  0.078600  0.539600  1.0
  C  C103  1  0.539600  0.987200  0.078600  1.0
  C  C104  1  0.078600  0.394600  0.539600  1.0
  C  C105  1  0.987200  0.539600  0.394600  1.0
  C  C106  1  0.539600  0.078600  0.394600  1.0
  C  C107  1  0.078600  0.539600  0.987200  1.0
  C  C108  1  0.394600  0.987200  0.539600  1.0
  C  C109  1  0.460400  0.012800  0.605400  1.0
  C  C110  1  0.012800  0.460400  0.921400  1.0
  C  C111  1  0.605400  0.921400  0.460400  1.0
  C  C112  1  0.012800  0.605400  0.460400  1.0
  C  C113  1  0.460400  0.921400  0.012800  1.0
  C  C114  1  0.921400  0.460400  0.605400  1.0
  C  C115  1  0.605400  0.460400  0.012800  1.0
  C  C116  1  0.921400  0.012800  0.460400  1.0
  C  C117  1  0.460400  0.605400  0.921400  1.0
  C  C118  1  0.078600  0.987200  0.394600  1.0
  C  C119  1  0.394600  0.078600  0.987200  1.0
  C  C120  1  0.987200  0.394600  0.078600  1.0
  C  C121  1  0.078600  0.394600  0.987200  1.0
  C  C122  1  0.394600  0.987200  0.078600  1.0
  C  C123  1  0.987200  0.078600  0.394600  1.0
  C  C124  1  0.460400  0.605400  0.012800  1.0
  C  C125  1  0.605400  0.460400  0.921400  1.0
  C  C126  1  0.012800  0.921400  0.460400  1.0
  C  C127  1  0.460400  0.012800  0.921400  1.0
  C  C128  1  0.921400  0.605400  0.460400  1.0
  C  C129  1  0.012800  0.460400  0.605400  1.0
  C  C130  1  0.460400  0.921400  0.605400  1.0
  C  C131  1  0.921400  0.460400  0.012800  1.0
  C  C132  1  0.605400  0.012800  0.460400  1.0
  C  C133  1  0.539600  0.987200  0.394600  1.0
  C  C134  1  0.987200  0.539600  0.078600  1.0
  C  C135  1  0.394600  0.078600  0.539600  1.0
  C  C136  1  0.987200  0.394600  0.539600  1.0
  C  C137  1  0.539600  0.078600  0.987200  1.0
  C  C138  1  0.078600  0.539600  0.394600  1.0
  C  C139  1  0.394600  0.539600  0.987200  1.0
  C  C140  1  0.078600  0.987200  0.539600  1.0
  C  C141  1  0.539600  0.394600  0.078600  1.0
  C  C142  1  0.921400  0.012800  0.605400  1.0
  C  C143  1  0.605400  0.921400  0.012800  1.0
  C  C144  1  0.012800  0.605400  0.921400  1.0
  C  C145  1  0.884700  0.620500  0.021300  1.0
  C  C146  1  0.620500  0.021300  0.884700  1.0
  C  C147  1  0.021300  0.884700  0.620500  1.0
  C  C148  1  0.526500  0.379500  0.978700  1.0
  C  C149  1  0.379500  0.526500  0.115300  1.0
  C  C150  1  0.978700  0.115300  0.526500  1.0
  C  C151  1  0.526500  0.978700  0.115300  1.0
  C  C152  1  0.115300  0.379500  0.526500  1.0
  C  C153  1  0.978700  0.526500  0.379500  1.0
  C  C154  1  0.526500  0.115300  0.379500  1.0
  C  C155  1  0.115300  0.526500  0.978700  1.0
  C  C156  1  0.379500  0.978700  0.526500  1.0
  C  C157  1  0.473500  0.021300  0.620500  1.0
  C  C158  1  0.021300  0.473500  0.884700  1.0
  C  C159  1  0.620500  0.884700  0.473500  1.0
  C  C160  1  0.021300  0.620500  0.473500  1.0
  C  C161  1  0.473500  0.884700  0.021300  1.0
  C  C162  1  0.884700  0.473500  0.620500  1.0
  C  C163  1  0.620500  0.473500  0.021300  1.0
  C  C164  1  0.884700  0.021300  0.473500  1.0
  C  C165  1  0.473500  0.620500  0.884700  1.0
  C  C166  1  0.115300  0.978700  0.379500  1.0
  C  C167  1  0.379500  0.115300  0.978700  1.0
  C  C168  1  0.978700  0.379500  0.115300  1.0
  C  C169  1  0.115300  0.379500  0.978700  1.0
  C  C170  1  0.379500  0.978700  0.115300  1.0
  C  C171  1  0.978700  0.115300  0.379500  1.0
  C  C172  1  0.473500  0.620500  0.021300  1.0
  C  C173  1  0.620500  0.473500  0.884700  1.0
  C  C174  1  0.021300  0.884700  0.473500  1.0
  C  C175  1  0.473500  0.021300  0.884700  1.0
  C  C176  1  0.884700  0.620500  0.473500  1.0
  C  C177  1  0.021300  0.473500  0.620500  1.0
  C  C178  1  0.473500  0.884700  0.620500  1.0
  C  C179  1  0.884700  0.473500  0.021300  1.0
  C  C180  1  0.620500  0.021300  0.473500  1.0
  C  C181  1  0.526500  0.978700  0.379500  1.0
  C  C182  1  0.978700  0.526500  0.115300  1.0
  C  C183  1  0.379500  0.115300  0.526500  1.0
  C  C184  1  0.978700  0.379500  0.526500  1.0
  C  C185  1  0.526500  0.115300  0.978700  1.0
  C  C186  1  0.115300  0.526500  0.379500  1.0
  C  C187  1  0.379500  0.526500  0.978700  1.0
  C  C188  1  0.115300  0.978700  0.526500  1.0
  C  C189  1  0.526500  0.379500  0.115300  1.0
  C  C190  1  0.884700  0.021300  0.620500  1.0
  C  C191  1  0.620500  0.884700  0.021300  1.0
  C  C192  1  0.021300  0.620500  0.884700  1.0
  C  C193  1  0.870100  0.650500  0.025700  1.0
  C  C194  1  0.650500  0.025700  0.870100  1.0
  C  C195  1  0.025700  0.870100  0.650500  1.0
  C  C196  1  0.546300  0.349500  0.974300  1.0
  C  C197  1  0.349500  0.546300  0.129900  1.0
  C  C198  1  0.974300  0.129900  0.546300  1.0
  C  C199  1  0.546300  0.974300  0.129900  1.0
  C  C200  1  0.129900  0.349500  0.546300  1.0
  C  C201  1  0.974300  0.546300  0.349500  1.0
  C  C202  1  0.546300  0.129900  0.349500  1.0
  C  C203  1  0.129900  0.546300  0.974300  1.0
  C  C204  1  0.349500  0.974300  0.546300  1.0
  C  C205  1  0.453700  0.025700  0.650500  1.0
  C  C206  1  0.025700  0.453700  0.870100  1.0
  C  C207  1  0.650500  0.870100  0.453700  1.0
  C  C208  1  0.025700  0.650500  0.453700  1.0
  C  C209  1  0.453700  0.870100  0.025700  1.0
  C  C210  1  0.870100  0.453700  0.650500  1.0
  C  C211  1  0.650500  0.453700  0.025700  1.0
  C  C212  1  0.870100  0.025700  0.453700  1.0
  C  C213  1  0.453700  0.650500  0.870100  1.0
  C  C214  1  0.129900  0.974300  0.349500  1.0
  C  C215  1  0.349500  0.129900  0.974300  1.0
  C  C216  1  0.974300  0.349500  0.129900  1.0
  C  C217  1  0.129900  0.349500  0.974300  1.0
  C  C218  1  0.349500  0.974300  0.129900  1.0
  C  C219  1  0.974300  0.129900  0.349500  1.0
  C  C220  1  0.453700  0.650500  0.025700  1.0
  C  C221  1  0.650500  0.453700  0.870100  1.0
  C  C222  1  0.025700  0.870100  0.453700  1.0
  C  C223  1  0.453700  0.025700  0.870100  1.0
  C  C224  1  0.870100  0.650500  0.453700  1.0
  C  C225  1  0.025700  0.453700  0.650500  1.0
  C  C226  1  0.453700  0.870100  0.650500  1.0
  C  C227  1  0.870100  0.453700  0.025700  1.0
  C  C228  1  0.650500  0.025700  0.453700  1.0
  C  C229  1  0.546300  0.974300  0.349500  1.0
  C  C230  1  0.974300  0.546300  0.129900  1.0
  C  C231  1  0.349500  0.129900  0.546300  1.0
  C  C232  1  0.974300  0.349500  0.546300  1.0
  C  C233  1  0.546300  0.129900  0.974300  1.0
  C  C234  1  0.129900  0.546300  0.349500  1.0
  C  C235  1  0.349500  0.546300  0.974300  1.0
  C  C236  1  0.129900  0.974300  0.546300  1.0
  C  C237  1  0.546300  0.349500  0.129900  1.0
  C  C238  1  0.870100  0.025700  0.650500  1.0
  C  C239  1  0.650500  0.870100  0.025700  1.0
  C  C240  1  0.025700  0.650500  0.870100  1.0
  C  C241  1  0.885000  0.672800  0.024200  1.0
  C  C242  1  0.672800  0.024200  0.885000  1.0
  C  C243  1  0.024200  0.885000  0.672800  1.0
  C  C244  1  0.582000  0.327200  0.975800  1.0
  C  C245  1  0.327200  0.582000  0.115000  1.0
  C  C246  1  0.975800  0.115000  0.582000  1.0
  C  C247  1  0.582000  0.975800  0.115000  1.0
  C  C248  1  0.115000  0.327200  0.582000  1.0
  C  C249  1  0.975800  0.582000  0.327200  1.0
  C  C250  1  0.582000  0.115000  0.327200  1.0
  C  C251  1  0.115000  0.582000  0.975800  1.0
  C  C252  1  0.327200  0.975800  0.582000  1.0
  C  C253  1  0.418000  0.024200  0.672800  1.0
  C  C254  1  0.024200  0.418000  0.885000  1.0
  C  C255  1  0.672800  0.885000  0.418000  1.0
  C  C256  1  0.024200  0.672800  0.418000  1.0
  C  C257  1  0.418000  0.885000  0.024200  1.0
  C  C258  1  0.885000  0.418000  0.672800  1.0
  C  C259  1  0.672800  0.418000  0.024200  1.0
  C  C260  1  0.885000  0.024200  0.418000  1.0
  C  C261  1  0.418000  0.672800  0.885000  1.0
  C  C262  1  0.115000  0.975800  0.327200  1.0
  C  C263  1  0.327200  0.115000  0.975800  1.0
  C  C264  1  0.975800  0.327200  0.115000  1.0
  C  C265  1  0.115000  0.327200  0.975800  1.0
  C  C266  1  0.327200  0.975800  0.115000  1.0
  C  C267  1  0.975800  0.115000  0.327200  1.0
  C  C268  1  0.418000  0.672800  0.024200  1.0
  C  C269  1  0.672800  0.418000  0.885000  1.0
  C  C270  1  0.024200  0.885000  0.418000  1.0
  C  C271  1  0.418000  0.024200  0.885000  1.0
  C  C272  1  0.885000  0.672800  0.418000  1.0
  C  C273  1  0.024200  0.418000  0.672800  1.0
  C  C274  1  0.418000  0.885000  0.672800  1.0
  C  C275  1  0.885000  0.418000  0.024200  1.0
  C  C276  1  0.672800  0.024200  0.418000  1.0
  C  C277  1  0.582000  0.975800  0.327200  1.0
  C  C278  1  0.975800  0.582000  0.115000  1.0
  C  C279  1  0.327200  0.115000  0.582000  1.0
  C  C280  1  0.975800  0.327200  0.582000  1.0
  C  C281  1  0.582000  0.115000  0.975800  1.0
  C  C282  1  0.115000  0.582000  0.327200  1.0
  C  C283  1  0.327200  0.582000  0.975800  1.0
  C  C284  1  0.115000  0.975800  0.582000  1.0
  C  C285  1  0.582000  0.327200  0.115000  1.0
  C  C286  1  0.885000  0.024200  0.672800  1.0
  C  C287  1  0.672800  0.885000  0.024200  1.0
  C  C288  1  0.024200  0.672800  0.885000  1.0
  C  C289  1  0.923900  0.653100  0.013700  1.0
  C  C290  1  0.653100  0.013700  0.923900  1.0
  C  C291  1  0.013700  0.923900  0.653100  1.0
  C  C292  1  0.590700  0.346900  0.986300  1.0
  C  C293  1  0.346900  0.590700  0.076100  1.0
  C  C294  1  0.986300  0.076100  0.590700  1.0
  C  C295  1  0.590700  0.986300  0.076100  1.0
  C  C296  1  0.076100  0.346900  0.590700  1.0
  C  C297  1  0.986300  0.590700  0.346900  1.0
  C  C298  1  0.590700  0.076100  0.346900  1.0
  C  C299  1  0.076100  0.590700  0.986300  1.0
  C  C300  1  0.346900  0.986300  0.590700  1.0
  C  C301  1  0.409300  0.013700  0.653100  1.0
  C  C302  1  0.013700  0.409300  0.923900  1.0
  C  C303  1  0.653100  0.923900  0.409300  1.0
  C  C304  1  0.013700  0.653100  0.409300  1.0
  C  C305  1  0.409300  0.923900  0.013700  1.0
  C  C306  1  0.923900  0.409300  0.653100  1.0
  C  C307  1  0.653100  0.409300  0.013700  1.0
  C  C308  1  0.923900  0.013700  0.409300  1.0
  C  C309  1  0.409300  0.653100  0.923900  1.0
  C  C310  1  0.076100  0.986300  0.346900  1.0
  C  C311  1  0.346900  0.076100  0.986300  1.0
  C  C312  1  0.986300  0.346900  0.076100  1.0
  C  C313  1  0.076100  0.346900  0.986300  1.0
  C  C314  1  0.346900  0.986300  0.076100  1.0
  C  C315  1  0.986300  0.076100  0.346900  1.0
  C  C316  1  0.409300  0.653100  0.013700  1.0
  C  C317  1  0.653100  0.409300  0.923900  1.0
  C  C318  1  0.013700  0.923900  0.409300  1.0
  C  C319  1  0.409300  0.013700  0.923900  1.0
  C  C320  1  0.923900  0.653100  0.409300  1.0
  C  C321  1  0.013700  0.409300  0.653100  1.0
  C  C322  1  0.409300  0.923900  0.653100  1.0
  C  C323  1  0.923900  0.409300  0.013700  1.0
  C  C324  1  0.653100  0.013700  0.409300  1.0
  C  C325  1  0.590700  0.986300  0.346900  1.0
  C  C326  1  0.986300  0.590700  0.076100  1.0
  C  C327  1  0.346900  0.076100  0.590700  1.0
  C  C328  1  0.986300  0.346900  0.590700  1.0
  C  C329  1  0.590700  0.076100  0.986300  1.0
  C  C330  1  0.076100  0.590700  0.346900  1.0
  C  C331  1  0.346900  0.590700  0.986300  1.0
  C  C332  1  0.076100  0.986300  0.590700  1.0
  C  C333  1  0.590700  0.346900  0.076100  1.0
  C  C334  1  0.923900  0.013700  0.653100  1.0
  C  C335  1  0.653100  0.923900  0.013700  1.0
  C  C336  1  0.013700  0.653100  0.923900  1.0
  C  C337  1  0.796100  0.680300  0.046100  1.0
  C  C338  1  0.680300  0.046100  0.796100  1.0
  C  C339  1  0.046100  0.796100  0.680300  1.0
  C  C340  1  0.522500  0.319700  0.953900  1.0
  C  C341  1  0.319700  0.522500  0.203900  1.0
  C  C342  1  0.953900  0.203900  0.522500  1.0
  C  C343  1  0.522500  0.953900  0.203900  1.0
  C  C344  1  0.203900  0.319700  0.522500  1.0
  C  C345  1  0.953900  0.522500  0.319700  1.0
  C  C346  1  0.522500  0.203900  0.319700  1.0
  C  C347  1  0.203900  0.522500  0.953900  1.0
  C  C348  1  0.319700  0.953900  0.522500  1.0
  C  C349  1  0.477500  0.046100  0.680300  1.0
  C  C350  1  0.046100  0.477500  0.796100  1.0
  C  C351  1  0.680300  0.796100  0.477500  1.0
  C  C352  1  0.046100  0.680300  0.477500  1.0
  C  C353  1  0.477500  0.796100  0.046100  1.0
  C  C354  1  0.796100  0.477500  0.680300  1.0
  C  C355  1  0.680300  0.477500  0.046100  1.0
  C  C356  1  0.796100  0.046100  0.477500  1.0
  C  C357  1  0.477500  0.680300  0.796100  1.0
  C  C358  1  0.203900  0.953900  0.319700  1.0
  C  C359  1  0.319700  0.203900  0.953900  1.0
  C  C360  1  0.953900  0.319700  0.203900  1.0
  C  C361  1  0.203900  0.319700  0.953900  1.0
  C  C362  1  0.319700  0.953900  0.203900  1.0
  C  C363  1  0.953900  0.203900  0.319700  1.0
  C  C364  1  0.477500  0.680300  0.046100  1.0
  C  C365  1  0.680300  0.477500  0.796100  1.0
  C  C366  1  0.046100  0.796100  0.477500  1.0
  C  C367  1  0.477500  0.046100  0.796100  1.0
  C  C368  1  0.796100  0.680300  0.477500  1.0
  C  C369  1  0.046100  0.477500  0.680300  1.0
  C  C370  1  0.477500  0.796100  0.680300  1.0
  C  C371  1  0.796100  0.477500  0.046100  1.0
  C  C372  1  0.680300  0.046100  0.477500  1.0
  C  C373  1  0.522500  0.953900  0.319700  1.0
  C  C374  1  0.953900  0.522500  0.203900  1.0
  C  C375  1  0.319700  0.203900  0.522500  1.0
  C  C376  1  0.953900  0.319700  0.522500  1.0
  C  C377  1  0.522500  0.203900  0.953900  1.0
  C  C378  1  0.203900  0.522500  0.319700  1.0
  C  C379  1  0.319700  0.522500  0.953900  1.0
  C  C380  1  0.203900  0.953900  0.522500  1.0
  C  C381  1  0.522500  0.319700  0.203900  1.0
  C  C382  1  0.796100  0.046100  0.680300  1.0
  C  C383  1  0.680300  0.796100  0.046100  1.0
  C  C384  1  0.046100  0.680300  0.796100  1.0
  C  C385  1  0.823100  0.666900  0.040100  1.0
  C  C386  1  0.666900  0.040100  0.823100  1.0
  C  C387  1  0.040100  0.823100  0.666900  1.0
  C  C388  1  0.530100  0.333100  0.959900  1.0
  C  C389  1  0.333100  0.530100  0.176900  1.0
  C  C390  1  0.959900  0.176900  0.530100  1.0
  C  C391  1  0.530100  0.959900  0.176900  1.0
  C  C392  1  0.176900  0.333100  0.530100  1.0
  C  C393  1  0.959900  0.530100  0.333100  1.0
  C  C394  1  0.530100  0.176900  0.333100  1.0
  C  C395  1  0.176900  0.530100  0.959900  1.0
  C  C396  1  0.333100  0.959900  0.530100  1.0
  C  C397  1  0.469900  0.040100  0.666900  1.0
  C  C398  1  0.040100  0.469900  0.823100  1.0
  C  C399  1  0.666900  0.823100  0.469900  1.0
  C  C400  1  0.040100  0.666900  0.469900  1.0
  C  C401  1  0.469900  0.823100  0.040100  1.0
  C  C402  1  0.823100  0.469900  0.666900  1.0
  C  C403  1  0.666900  0.469900  0.040100  1.0
  C  C404  1  0.823100  0.040100  0.469900  1.0
  C  C405  1  0.469900  0.666900  0.823100  1.0
  C  C406  1  0.176900  0.959900  0.333100  1.0
  C  C407  1  0.333100  0.176900  0.959900  1.0
  C  C408  1  0.959900  0.333100  0.176900  1.0
  C  C409  1  0.176900  0.333100  0.959900  1.0
  C  C410  1  0.333100  0.959900  0.176900  1.0
  C  C411  1  0.959900  0.176900  0.333100  1.0
  C  C412  1  0.469900  0.666900  0.040100  1.0
  C  C413  1  0.666900  0.469900  0.823100  1.0
  C  C414  1  0.040100  0.823100  0.469900  1.0
  C  C415  1  0.469900  0.040100  0.823100  1.0
  C  C416  1  0.823100  0.666900  0.469900  1.0
  C  C417  1  0.040100  0.469900  0.666900  1.0
  C  C418  1  0.469900  0.823100  0.666900  1.0
  C  C419  1  0.823100  0.469900  0.040100  1.0
  C  C420  1  0.666900  0.040100  0.469900  1.0
  C  C421  1  0.530100  0.959900  0.333100  1.0
  C  C422  1  0.959900  0.530100  0.176900  1.0
  C  C423  1  0.333100  0.176900  0.530100  1.0
  C  C424  1  0.959900  0.333100  0.530100  1.0
  C  C425  1  0.530100  0.176900  0.959900  1.0
  C  C426  1  0.176900  0.530100  0.333100  1.0
  C  C427  1  0.333100  0.530100  0.959900  1.0
  C  C428  1  0.176900  0.959900  0.530100  1.0
  C  C429  1  0.530100  0.333100  0.176900  1.0
  C  C430  1  0.823100  0.040100  0.666900  1.0
  C  C431  1  0.666900  0.823100  0.040100  1.0
  C  C432  1  0.040100  0.666900  0.823100  1.0
  C  C433  1  0.729700  0.678300  0.095500  1.0
  C  C434  1  0.678300  0.095500  0.729700  1.0
  C  C435  1  0.095500  0.729700  0.678300  1.0
  C  C436  1  0.503500  0.321700  0.904500  1.0
  C  C437  1  0.321700  0.503500  0.270300  1.0
  C  C438  1  0.904500  0.270300  0.503500  1.0
  C  C439  1  0.503500  0.904500  0.270300  1.0
  C  C440  1  0.270300  0.321700  0.503500  1.0
  C  C441  1  0.904500  0.503500  0.321700  1.0
  C  C442  1  0.503500  0.270300  0.321700  1.0
  C  C443  1  0.270300  0.503500  0.904500  1.0
  C  C444  1  0.321700  0.904500  0.503500  1.0
  C  C445  1  0.496500  0.095500  0.678300  1.0
  C  C446  1  0.095500  0.496500  0.729700  1.0
  C  C447  1  0.678300  0.729700  0.496500  1.0
  C  C448  1  0.095500  0.678300  0.496500  1.0
  C  C449  1  0.496500  0.729700  0.095500  1.0
  C  C450  1  0.729700  0.496500  0.678300  1.0
  C  C451  1  0.678300  0.496500  0.095500  1.0
  C  C452  1  0.729700  0.095500  0.496500  1.0
  C  C453  1  0.496500  0.678300  0.729700  1.0
  C  C454  1  0.270300  0.904500  0.321700  1.0
  C  C455  1  0.321700  0.270300  0.904500  1.0
  C  C456  1  0.904500  0.321700  0.270300  1.0
  C  C457  1  0.270300  0.321700  0.904500  1.0
  C  C458  1  0.321700  0.904500  0.270300  1.0
  C  C459  1  0.904500  0.270300  0.321700  1.0
  C  C460  1  0.496500  0.678300  0.095500  1.0
  C  C461  1  0.678300  0.496500  0.729700  1.0
  C  C462  1  0.095500  0.729700  0.496500  1.0
  C  C463  1  0.496500  0.095500  0.729700  1.0
  C  C464  1  0.729700  0.678300  0.496500  1.0
  C  C465  1  0.095500  0.496500  0.678300  1.0
  C  C466  1  0.496500  0.729700  0.678300  1.0
  C  C467  1  0.729700  0.496500  0.095500  1.0
  C  C468  1  0.678300  0.095500  0.496500  1.0
  C  C469  1  0.503500  0.904500  0.321700  1.0
  C  C470  1  0.904500  0.503500  0.270300  1.0
  C  C471  1  0.321700  0.270300  0.503500  1.0
  C  C472  1  0.904500  0.321700  0.503500  1.0
  C  C473  1  0.503500  0.270300  0.904500  1.0
  C  C474  1  0.270300  0.503500  0.321700  1.0
  C  C475  1  0.321700  0.503500  0.904500  1.0
  C  C476  1  0.270300  0.904500  0.503500  1.0
  C  C477  1  0.503500  0.321700  0.270300  1.0
  C  C478  1  0.729700  0.095500  0.678300  1.0
  C  C479  1  0.678300  0.729700  0.095500  1.0
  C  C480  1  0.095500  0.678300  0.729700  1.0
  C  C481  1  0.750100  0.698500  0.067700  1.0
  C  C482  1  0.698500  0.067700  0.750100  1.0
  C  C483  1  0.067700  0.750100  0.698500  1.0
  C  C484  1  0.516300  0.301500  0.932300  1.0
  C  C485  1  0.301500  0.516300  0.249900  1.0
  C  C486  1  0.932300  0.249900  0.516300  1.0
  C  C487  1  0.516300  0.932300  0.249900  1.0
  C  C488  1  0.249900  0.301500  0.516300  1.0
  C  C489  1  0.932300  0.516300  0.301500  1.0
  C  C490  1  0.516300  0.249900  0.301500  1.0
  C  C491  1  0.249900  0.516300  0.932300  1.0
  C  C492  1  0.301500  0.932300  0.516300  1.0
  C  C493  1  0.483700  0.067700  0.698500  1.0
  C  C494  1  0.067700  0.483700  0.750100  1.0
  C  C495  1  0.698500  0.750100  0.483700  1.0
  C  C496  1  0.067700  0.698500  0.483700  1.0
  C  C497  1  0.483700  0.750100  0.067700  1.0
  C  C498  1  0.750100  0.483700  0.698500  1.0
  C  C499  1  0.698500  0.483700  0.067700  1.0
  C  C500  1  0.750100  0.067700  0.483700  1.0
  C  C501  1  0.483700  0.698500  0.750100  1.0
  C  C502  1  0.249900  0.932300  0.301500  1.0
  C  C503  1  0.301500  0.249900  0.932300  1.0
  C  C504  1  0.932300  0.301500  0.249900  1.0
  C  C505  1  0.249900  0.301500  0.932300  1.0
  C  C506  1  0.301500  0.932300  0.249900  1.0
  C  C507  1  0.932300  0.249900  0.301500  1.0
  C  C508  1  0.483700  0.698500  0.067700  1.0
  C  C509  1  0.698500  0.483700  0.750100  1.0
  C  C510  1  0.067700  0.750100  0.483700  1.0
  C  C511  1  0.483700  0.067700  0.750100  1.0
  C  C512  1  0.750100  0.698500  0.483700  1.0
  C  C513  1  0.067700  0.483700  0.698500  1.0
  C  C514  1  0.483700  0.750100  0.698500  1.0
  C  C515  1  0.750100  0.483700  0.067700  1.0
  C  C516  1  0.698500  0.067700  0.483700  1.0
  C  C517  1  0.516300  0.932300  0.301500  1.0
  C  C518  1  0.932300  0.516300  0.249900  1.0
  C  C519  1  0.301500  0.249900  0.516300  1.0
  C  C520  1  0.932300  0.301500  0.516300  1.0
  C  C521  1  0.516300  0.249900  0.932300  1.0
  C  C522  1  0.249900  0.516300  0.301500  1.0
  C  C523  1  0.301500  0.516300  0.932300  1.0
  C  C524  1  0.249900  0.932300  0.516300  1.0
  C  C525  1  0.516300  0.301500  0.249900  1.0
  C  C526  1  0.750100  0.067700  0.698500  1.0
  C  C527  1  0.698500  0.750100  0.067700  1.0
  C  C528  1  0.067700  0.698500  0.750100  1.0
  N  N529  1  0.666100  0.666100  0.180700  1.0
  N  N530  1  0.666100  0.180700  0.666100  1.0
  N  N531  1  0.180700  0.666100  0.666100  1.0
  N  N532  1  0.512900  0.333900  0.819300  1.0
  N  N533  1  0.333900  0.512900  0.333900  1.0
  N  N534  1  0.819300  0.333900  0.512900  1.0
  N  N535  1  0.512900  0.819300  0.333900  1.0
  N  N536  1  0.333900  0.333900  0.512900  1.0
  N  N537  1  0.819300  0.512900  0.333900  1.0
  N  N538  1  0.512900  0.333900  0.333900  1.0
  N  N539  1  0.333900  0.512900  0.819300  1.0
  N  N540  1  0.333900  0.819300  0.512900  1.0
  N  N541  1  0.487100  0.180700  0.666100  1.0
  N  N542  1  0.180700  0.487100  0.666100  1.0
  N  N543  1  0.666100  0.666100  0.487100  1.0
  N  N544  1  0.180700  0.666100  0.487100  1.0
  N  N545  1  0.487100  0.666100  0.180700  1.0
  N  N546  1  0.666100  0.487100  0.666100  1.0
  N  N547  1  0.666100  0.487100  0.180700  1.0
  N  N548  1  0.666100  0.180700  0.487100  1.0
  N  N549  1  0.487100  0.666100  0.666100  1.0
  N  N550  1  0.333900  0.819300  0.333900  1.0
  N  N551  1  0.333900  0.333900  0.819300  1.0
  N  N552  1  0.819300  0.333900  0.333900  1.0
  N  N553  1  0.943200  0.621400  0.009400  1.0
  N  N554  1  0.621400  0.009400  0.943200  1.0
  N  N555  1  0.009400  0.943200  0.621400  1.0
  N  N556  1  0.574000  0.378600  0.990600  1.0
  N  N557  1  0.378600  0.574000  0.056800  1.0
  N  N558  1  0.990600  0.056800  0.574000  1.0
  N  N559  1  0.574000  0.990600  0.056800  1.0
  N  N560  1  0.056800  0.378600  0.574000  1.0
  N  N561  1  0.990600  0.574000  0.378600  1.0
  N  N562  1  0.574000  0.056800  0.378600  1.0
  N  N563  1  0.056800  0.574000  0.990600  1.0
  N  N564  1  0.378600  0.990600  0.574000  1.0
  N  N565  1  0.426000  0.009400  0.621400  1.0
  N  N566  1  0.009400  0.426000  0.943200  1.0
  N  N567  1  0.621400  0.943200  0.426000  1.0
  N  N568  1  0.009400  0.621400  0.426000  1.0
  N  N569  1  0.426000  0.943200  0.009400  1.0
  N  N570  1  0.943200  0.426000  0.621400  1.0
  N  N571  1  0.621400  0.426000  0.009400  1.0
  N  N572  1  0.943200  0.009400  0.426000  1.0
  N  N573  1  0.426000  0.621400  0.943200  1.0
  N  N574  1  0.056800  0.990600  0.378600  1.0
  N  N575  1  0.378600  0.056800  0.990600  1.0
  N  N576  1  0.990600  0.378600  0.056800  1.0
  N  N577  1  0.056800  0.378600  0.990600  1.0
  N  N578  1  0.378600  0.990600  0.056800  1.0
  N  N579  1  0.990600  0.056800  0.378600  1.0
  N  N580  1  0.426000  0.621400  0.009400  1.0
  N  N581  1  0.621400  0.426000  0.943200  1.0
  N  N582  1  0.009400  0.943200  0.426000  1.0
  N  N583  1  0.426000  0.009400  0.943200  1.0
  N  N584  1  0.943200  0.621400  0.426000  1.0
  N  N585  1  0.009400  0.426000  0.621400  1.0
  N  N586  1  0.426000  0.943200  0.621400  1.0
  N  N587  1  0.943200  0.426000  0.009400  1.0
  N  N588  1  0.621400  0.009400  0.426000  1.0
  N  N589  1  0.574000  0.990600  0.378600  1.0
  N  N590  1  0.990600  0.574000  0.056800  1.0
  N  N591  1  0.378600  0.056800  0.574000  1.0
  N  N592  1  0.990600  0.378600  0.574000  1.0
  N  N593  1  0.574000  0.056800  0.990600  1.0
  N  N594  1  0.056800  0.574000  0.378600  1.0
  N  N595  1  0.378600  0.574000  0.990600  1.0
  N  N596  1  0.056800  0.990600  0.574000  1.0
  N  N597  1  0.574000  0.378600  0.056800  1.0
  N  N598  1  0.943200  0.009400  0.621400  1.0
  N  N599  1  0.621400  0.943200  0.009400  1.0
  N  N600  1  0.009400  0.621400  0.943200  1.0
  O  O601  1  0.756100  0.756100  0.027300  1.0
  O  O602  1  0.756100  0.027300  0.756100  1.0
  O  O603  1  0.027300  0.756100  0.756100  1.0
  O  O604  1  0.539500  0.243900  0.972700  1.0
  O  O605  1  0.243900  0.539500  0.243900  1.0
  O  O606  1  0.972700  0.243900  0.539500  1.0
  O  O607  1  0.539500  0.972700  0.243900  1.0
  O  O608  1  0.243900  0.243900  0.539500  1.0
  O  O609  1  0.972700  0.539500  0.243900  1.0
  O  O610  1  0.539500  0.243900  0.243900  1.0
  O  O611  1  0.243900  0.539500  0.972700  1.0
  O  O612  1  0.243900  0.972700  0.539500  1.0
  O  O613  1  0.460500  0.027300  0.756100  1.0
  O  O614  1  0.027300  0.460500  0.756100  1.0
  O  O615  1  0.756100  0.756100  0.460500  1.0
  O  O616  1  0.027300  0.756100  0.460500  1.0
  O  O617  1  0.460500  0.756100  0.027300  1.0
  O  O618  1  0.756100  0.460500  0.756100  1.0
  O  O619  1  0.756100  0.460500  0.027300  1.0
  O  O620  1  0.756100  0.027300  0.460500  1.0
  O  O621  1  0.460500  0.756100  0.756100  1.0
  O  O622  1  0.243900  0.972700  0.243900  1.0
  O  O623  1  0.243900  0.243900  0.972700  1.0
  O  O624  1  0.972700  0.243900  0.243900  1.0
  Pd  Pd625  1  0.000000  0.598100  1.000000  1.0
  Pd  Pd626  1  0.598100  0.000000  1.000000  1.0
  Pd  Pd627  1  0.000000  0.000000  0.598100  1.0
  Pd  Pd628  1  0.598100  0.401900  1.000000  1.0
  Pd  Pd629  1  0.401900  0.598100  0.000000  1.0
  Pd  Pd630  1  1.000000  0.401900  0.598100  1.0
  Pd  Pd631  1  0.000000  0.598100  0.401900  1.0
  Pd  Pd632  1  0.598100  1.000000  0.401900  1.0
  Pd  Pd633  1  0.401900  0.000000  0.598100  1.0
  Pd  Pd634  1  1.000000  0.401900  0.000000  1.0
  Pd  Pd635  1  0.401900  0.000000  0.000000  1.0
  Pd  Pd636  1  1.000000  0.000000  0.401900  1.0
