# generated using pymatgen
data_P2PdC21N4O4F11
_symmetry_space_group_name_H-M   'P 1'
_cell_length_a   9.96400000
_cell_length_b   15.52534497
_cell_length_c   15.52534497
_cell_angle_alpha   84.08958371
_cell_angle_beta   71.28296240
_cell_angle_gamma   71.28296240
_symmetry_Int_Tables_number   1
_chemical_formula_structural   P2PdC21N4O4F11
_chemical_formula_sum   'P8 Pd4 C84 N16 O16 F44'
_cell_volume   2154.37634855
_cell_formula_units_Z   4
loop_
 _symmetry_equiv_pos_site_id
 _symmetry_equiv_pos_as_xyz
  1  'x, y, z'
loop_
 _atom_site_type_symbol
 _atom_site_label
 _atom_site_symmetry_multiplicity
 _atom_site_fract_x
 _atom_site_fract_y
 _atom_site_fract_z
 _atom_site_occupancy
  C  C1  1  0.990000  0.257000  0.889000  1
  C  C2  1  0.879000  0.111000  0.257000  1
  C  C3  1  0.247000  0.889000  0.743000  1
  C  C4  1  0.136000  0.743000  0.111000  1
  C  C5  1  0.010000  0.743000  0.111000  1
  C  C6  1  0.121000  0.889000  0.743000  1
  C  C7  1  0.753000  0.111000  0.257000  1
  C  C8  1  0.864000  0.257000  0.889000  1
  C  C9  1  0.066800  0.240200  0.782200  1
  C  C10  1  0.849000  0.217800  0.240200  1
  C  C11  1  0.307000  0.782200  0.759800  1
  C  C12  1  0.089200  0.759800  0.217800  1
  C  C13  1  0.933200  0.759800  0.217800  1
  C  C14  1  0.151000  0.782200  0.759800  1
  C  C15  1  0.693000  0.217800  0.240200  1
  C  C16  1  0.910800  0.240200  0.782200  1
  C  C17  1  0.688000  0.453900  0.356100  1
  C  C18  1  0.044100  0.643900  0.453900  1
  C  C19  1  0.141900  0.356100  0.546100  1
  C  C20  1  0.498000  0.546100  0.643900  1
  C  C21  1  0.312000  0.546100  0.643900  1
  C  C22  1  0.955900  0.356100  0.546100  1
  C  C23  1  0.858100  0.643900  0.453900  1
  C  C24  1  0.502000  0.453900  0.356100  1
  C  C25  1  0.604300  0.585800  0.205600  1.0
  C  C26  1  0.809900  0.794400  0.585800  1.0
  C  C27  1  0.190100  0.205600  0.414200  1.0
  C  C28  1  0.395700  0.414200  0.794400  1.0
  C  C29  1  0.911800  0.315200  0.007200  1.0
  C  C30  1  0.919000  0.992800  0.315200  1.0
  C  C31  1  0.227000  0.007200  0.684800  1.0
  C  C32  1  0.234200  0.684800  0.992800  1.0
  C  C33  1  0.088200  0.684800  0.992800  1.0
  C  C34  1  0.081000  0.007200  0.684800  1.0
  C  C35  1  0.773000  0.992800  0.315200  1.0
  C  C36  1  0.765800  0.315200  0.007200  1.0
  C  C37  1  0.960600  0.282700  0.912100  1.0
  C  C38  1  0.872700  0.087900  0.282700  1.0
  C  C39  1  0.243300  0.912100  0.717300  1.0
  C  C40  1  0.155400  0.717300  0.087900  1.0
  C  C41  1  0.039400  0.717300  0.087900  1.0
  C  C42  1  0.127300  0.912100  0.717300  1.0
  C  C43  1  0.756700  0.087900  0.282700  1.0
  C  C44  1  0.844600  0.282700  0.912100  1.0
  C  C45  1  0.102800  0.256000  0.864400  1.0
  C  C46  1  0.967200  0.135600  0.256000  1.0
  C  C47  1  0.358800  0.864400  0.744000  1.0
  C  C48  1  0.223200  0.744000  0.135600  1.0
  C  C49  1  0.897200  0.744000  0.135600  1.0
  C  C50  1  0.032800  0.864400  0.744000  1.0
  C  C51  1  0.641200  0.135600  0.256000  1.0
  C  C52  1  0.776800  0.256000  0.864400  1.0
  C  C53  1  0.919000  0.230900  0.225100  1.0
  C  C54  1  0.144100  0.774900  0.230900  1.0
  C  C55  1  0.149900  0.225100  0.769100  1.0
  C  C56  1  0.375000  0.769100  0.774900  1.0
  C  C57  1  0.081000  0.769100  0.774900  1.0
  C  C58  1  0.855900  0.225100  0.769100  1.0
  C  C59  1  0.850100  0.774900  0.230900  1.0
  C  C60  1  0.625000  0.230900  0.225100  1.0
  C  C61  1  0.810600  0.545200  0.070600  1.0
  C  C62  1  0.881200  0.929400  0.545200  1.0
  C  C63  1  0.355800  0.070600  0.454800  1.0
  C  C64  1  0.426400  0.454800  0.929400  1.0
  C  C65  1  0.189400  0.454800  0.929400  1.0
  C  C66  1  0.118800  0.070600  0.454800  1.0
  C  C67  1  0.644200  0.929400  0.545200  1.0
  C  C68  1  0.573600  0.545200  0.070600  1.0
  C  C69  1  0.664800  0.549600  0.276800  1.0
  C  C70  1  0.941600  0.723200  0.549600  1.0
  C  C71  1  0.214400  0.276800  0.450400  1.0
  C  C72  1  0.491200  0.450400  0.723200  1.0
  C  C73  1  0.335200  0.450400  0.723200  1.0
  C  C74  1  0.058400  0.276800  0.450400  1.0
  C  C75  1  0.785600  0.723200  0.549600  1.0
  C  C76  1  0.508800  0.549600  0.276800  1.0
  C  C77  1  0.756200  0.409700  0.357900  1.0
  C  C78  1  0.114100  0.642100  0.409700  1.0
  C  C79  1  0.165900  0.357900  0.590300  1.0
  C  C80  1  0.523800  0.590300  0.642100  1.0
  C  C81  1  0.243800  0.590300  0.642100  1.0
  C  C82  1  0.885900  0.357900  0.590300  1.0
  C  C83  1  0.834100  0.642100  0.409700  1.0
  C  C84  1  0.476200  0.409700  0.357900  1.0
  F  F85  1  0.107800  0.465400  0.319000  1
  F  F86  1  0.426800  0.681000  0.465400  1
  F  F87  1  0.573200  0.319000  0.534600  1
  F  F88  1  0.892200  0.534600  0.681000  1
  F  F89  1  0.001700  0.514400  0.226400  1.0
  F  F90  1  0.228100  0.773600  0.514400  1.0
  F  F91  1  0.516100  0.226400  0.485600  1.0
  F  F92  1  0.742500  0.485600  0.773600  1.0
  F  F93  1  0.998300  0.485600  0.773600  1.0
  F  F94  1  0.771900  0.226400  0.485600  1.0
  F  F95  1  0.483900  0.773600  0.514400  1.0
  F  F96  1  0.257500  0.514400  0.226400  1.0
  F  F97  1  0.168300  0.385100  0.130300  1.0
  F  F98  1  0.298600  0.869700  0.385100  1.0
  F  F99  1  0.553400  0.130300  0.614900  1.0
  F  F100  1  0.683700  0.614900  0.869700  1.0
  F  F101  1  0.831700  0.614900  0.869700  1.0
  F  F102  1  0.701400  0.130300  0.614900  1.0
  F  F103  1  0.446600  0.869700  0.385100  1.0
  F  F104  1  0.316300  0.385100  0.130300  1.0
  F  F105  1  0.061400  0.366600  0.272600  1.0
  F  F106  1  0.334000  0.727400  0.366600  1.0
  F  F107  1  0.428000  0.272600  0.633400  1.0
  F  F108  1  0.700600  0.633400  0.727400  1.0
  F  F109  1  0.938600  0.633400  0.727400  1.0
  F  F110  1  0.666000  0.272600  0.633400  1.0
  F  F111  1  0.572000  0.727400  0.366600  1.0
  F  F112  1  0.299400  0.366600  0.272600  1.0
  F  F113  1  0.092000  0.479000  0.167000  1.0
  F  F114  1  0.259000  0.833000  0.479000  1.0
  F  F115  1  0.571000  0.167000  0.521000  1.0
  F  F116  1  0.738000  0.521000  0.833000  1.0
  F  F117  1  0.908000  0.521000  0.833000  1.0
  F  F118  1  0.741000  0.167000  0.521000  1.0
  F  F119  1  0.429000  0.833000  0.479000  1.0
  F  F120  1  0.262000  0.479000  0.167000  1.0
  F  F121  1  0.136600  0.357400  0.225400  1.0
  F  F122  1  0.362000  0.774600  0.357400  1.0
  F  F123  1  0.494000  0.225400  0.642600  1.0
  F  F124  1  0.719400  0.642600  0.774600  1.0
  F  F125  1  0.863400  0.642600  0.774600  1.0
  F  F126  1  0.638000  0.225400  0.642600  1.0
  F  F127  1  0.506000  0.774600  0.357400  1.0
  F  F128  1  0.280600  0.357400  0.225400  1.0
  N  N129  1  0.756300  0.265400  0.222000  1.0
  N  N130  1  0.978300  0.778000  0.265400  1.0
  N  N131  1  0.021700  0.222000  0.734600  1.0
  N  N132  1  0.243700  0.734600  0.778000  1.0
  N  N133  1  0.672600  0.526200  0.128600  1.0
  N  N134  1  0.801200  0.871400  0.526200  1.0
  N  N135  1  0.198800  0.128600  0.473800  1.0
  N  N136  1  0.327400  0.473800  0.871400  1.0
  N  N137  1  0.656700  0.453500  0.305700  1.0
  N  N138  1  0.962400  0.694300  0.453500  1.0
  N  N139  1  0.110200  0.305700  0.546500  1.0
  N  N140  1  0.415900  0.546500  0.694300  1.0
  N  N141  1  0.343300  0.546500  0.694300  1.0
  N  N142  1  0.037600  0.305700  0.546500  1.0
  N  N143  1  0.889800  0.694300  0.453500  1.0
  N  N144  1  0.584100  0.453500  0.305700  1.0
  O  O145  1  0.830100  0.345400  0.049800  1.0
  O  O146  1  0.879900  0.950200  0.345400  1.0
  O  O147  1  0.175500  0.049800  0.654600  1.0
  O  O148  1  0.225300  0.654600  0.950200  1.0
  O  O149  1  0.169900  0.654600  0.950200  1.0
  O  O150  1  0.120100  0.049800  0.654600  1.0
  O  O151  1  0.824500  0.950200  0.345400  1.0
  O  O152  1  0.774700  0.345400  0.049800  1.0
  O  O153  1  0.017100  0.306600  0.043200  1.0
  O  O154  1  0.060300  0.956800  0.306600  1.0
  O  O155  1  0.323700  0.043200  0.693400  1.0
  O  O156  1  0.366900  0.693400  0.956800  1.0
  O  O157  1  0.982900  0.693400  0.956800  1.0
  O  O158  1  0.939700  0.043200  0.693400  1.0
  O  O159  1  0.676300  0.956800  0.306600  1.0
  O  O160  1  0.633100  0.306600  0.043200  1.0
  P  P161  1  0.138800  0.434900  0.223900  1.0
  P  P162  1  0.362700  0.776100  0.434900  1.0
  P  P163  1  0.573700  0.223900  0.565100  1.0
  P  P164  1  0.797600  0.565100  0.776100  1.0
  P  P165  1  0.861200  0.565100  0.776100  1.0
  P  P166  1  0.637300  0.223900  0.565100  1.0
  P  P167  1  0.426300  0.776100  0.434900  1.0
  P  P168  1  0.202400  0.434900  0.223900  1.0
  Pd  Pd169  1  0.714580  0.395420  0.175420  1.0
  Pd  Pd170  1  0.890000  0.824580  0.395420  1.0
  Pd  Pd171  1  0.110000  0.175420  0.604580  1.0
  Pd  Pd172  1  0.285420  0.604580  0.824580  1.0
