# generated using pymatgen
data_Fe2B2H50C58N16F9
_symmetry_space_group_name_H-M   'P 1'
_cell_length_a   14.81700000
_cell_length_b   15.32000000
_cell_length_c   24.96000000
_cell_angle_alpha   86.95500000
_cell_angle_beta   89.28700000
_cell_angle_gamma   81.20400000
_symmetry_Int_Tables_number   1
_chemical_formula_structural   Fe2B2H50C58N16F9
_chemical_formula_sum   'Fe8 B8 H200 C232 N64 F36'
_cell_volume   5591.23666293
_cell_formula_units_Z   4
loop_
 _symmetry_equiv_pos_site_id
 _symmetry_equiv_pos_as_xyz
  1  'x, y, z'
loop_
 _atom_site_type_symbol
 _atom_site_label
 _atom_site_symmetry_multiplicity
 _atom_site_fract_x
 _atom_site_fract_y
 _atom_site_fract_z
 _atom_site_occupancy
  Fe  Fe1  1  0.340980  0.828970  0.876600  1
  Fe  Fe2  1  0.659020  0.171030  0.123400  1
  Fe  Fe3  1  0.134330  0.759040  0.661290  1
  Fe  Fe4  1  0.865670  0.240960  0.338710  1
  Fe  Fe5  1  0.154360  0.177680  0.629840  1
  Fe  Fe6  1  0.845640  0.822320  0.370160  1
  Fe  Fe7  1  0.359920  0.249810  0.842980  1
  Fe  Fe8  1  0.640080  0.750190  0.157020  1
  B  B9  1  0.826900  0.098200  0.905650  1
  B  B10  1  0.173100  0.901800  0.094350  1
  B  B11  1  0.726000  0.199800  0.591600  1
  B  B12  1  0.274000  0.800200  0.408400  1
  B  B13  1  0.686200  0.664500  0.615600  1
  B  B14  1  0.313800  0.335500  0.384400  1
  B  B15  1  0.838200  0.562200  0.910720  1
  B  B16  1  0.161800  0.437800  0.089280  1
  H  H17  1  0.346700  0.922600  0.993800  1
  H  H18  1  0.653300  0.077400  0.006200  1
  H  H19  1  0.421000  0.934900  0.037700  1
  H  H20  1  0.579000  0.065100  0.962300  1
  H  H21  1  0.387400  0.841000  0.033500  1
  H  H22  1  0.612600  0.159000  0.966500  1
  H  H23  1  0.734800  0.877700  0.929300  1
  H  H24  1  0.265200  0.122300  0.070700  1
  H  H25  1  0.704200  0.848500  0.872500  1
  H  H26  1  0.295800  0.151500  0.127500  1
  H  H27  1  0.737000  0.775200  0.919100  1
  H  H28  1  0.263000  0.224800  0.080900  1
  H  H29  1  0.290300  0.626300  0.455800  1
  H  H30  1  0.709700  0.373700  0.544200  1
  H  H31  1  0.240600  0.540500  0.459900  1
  H  H32  1  0.759400  0.459500  0.540100  1
  H  H33  1  0.313100  0.554400  0.504500  1
  H  H34  1  0.686900  0.445600  0.495500  1
  H  H35  1  0.942600  0.660300  0.589600  1
  H  H36  1  0.057400  0.339700  0.410400  1
  H  H37  1  0.922300  0.710400  0.532100  1
  H  H38  1  0.077700  0.289600  0.467900  1
  H  H39  1  0.947300  0.763900  0.581800  1
  H  H40  1  0.052700  0.236100  0.418200  1
  H  H41  1  0.596400  0.904900  0.002500  1
  H  H42  1  0.403600  0.095100  0.997500  1
  H  H43  1  0.674900  0.702900  0.854900  1
  H  H44  1  0.325100  0.297100  0.145100  1
  H  H45  1  0.656100  0.630600  0.776100  1
  H  H46  1  0.343900  0.369400  0.223900  1
  H  H47  1  0.515100  0.653500  0.732200  1
  H  H48  1  0.484900  0.346500  0.267800  1
  H  H49  1  0.478000  0.728500  0.663700  1
  H  H50  1  0.522000  0.271500  0.336300  1
  H  H51  1  0.499200  0.696800  0.573100  1
  H  H52  1  0.500800  0.303200  0.426900  1
  H  H53  1  0.375300  0.674000  0.521300  1
  H  H54  1  0.624700  0.326000  0.478700  1
  H  H55  1  0.066300  0.613200  0.481400  1
  H  H56  1  0.933700  0.386800  0.518600  1
  H  H57  1  0.120100  0.948500  0.799500  1
  H  H58  1  0.879900  0.051500  0.200500  1
  H  H59  1  0.971000  0.988100  0.828400  1
  H  H60  1  0.029000  0.011900  0.171600  1
  H  H61  1  0.877700  0.879700  0.847000  1
  H  H62  1  0.122300  0.120300  0.153000  1
  H  H63  1  0.937300  0.730900  0.839000  1
  H  H64  1  0.062700  0.269100  0.161000  1
  H  H65  1  0.084800  0.691900  0.806800  1
  H  H66  1  0.915200  0.308100  0.193200  1
  H  H67  1  0.199700  0.531500  0.653900  1
  H  H68  1  0.800300  0.468500  0.346100  1
  H  H69  1  0.185100  0.451300  0.695200  1
  H  H70  1  0.814900  0.548700  0.304800  1
  H  H71  1  0.229300  0.532800  0.715200  1
  H  H72  1  0.770700  0.467200  0.284800  1
  H  H73  1  0.809700  0.601500  0.727900  1
  H  H74  1  0.190300  0.398500  0.272100  1
  H  H75  1  0.840400  0.650600  0.778000  1
  H  H76  1  0.159600  0.349400  0.222000  1
  H  H77  1  0.852900  0.544900  0.779600  1
  H  H78  1  0.147100  0.455100  0.220400  1
  H  H79  1  0.866900  0.466900  0.677900  1
  H  H80  1  0.133100  0.533100  0.322100  1
  H  H81  1  0.828700  0.414600  0.631500  1
  H  H82  1  0.171300  0.585400  0.368500  1
  H  H83  1  0.851000  0.512600  0.619000  1
  H  H84  1  0.149000  0.487400  0.381000  1
  H  H85  1  0.239700  0.361000  0.578100  1
  H  H86  1  0.760300  0.639000  0.421900  1
  H  H87  1  0.197500  0.455700  0.551800  1
  H  H88  1  0.802500  0.544300  0.448200  1
  H  H89  1  0.184400  0.367700  0.523000  1
  H  H90  1  0.815600  0.632300  0.477000  1
  H  H91  1  0.018600  0.470700  0.745900  1
  H  H92  1  0.981400  0.529300  0.254100  1
  H  H93  1  0.801500  0.741100  0.702800  1
  H  H94  1  0.198500  0.258900  0.297200  1
  H  H95  1  0.748900  0.891300  0.682600  1
  H  H96  1  0.251100  0.108700  0.317400  1
  H  H97  1  0.852600  0.991100  0.668200  1
  H  H98  1  0.147400  0.008900  0.331800  1
  H  H99  1  0.900400  0.067900  0.736100  1
  H  H100  1  0.099600  0.932100  0.263900  1
  H  H101  1  0.829200  0.210000  0.757500  1
  H  H102  1  0.170800  0.790000  0.242500  1
  H  H103  1  0.874700  0.335400  0.715900  1
  H  H104  1  0.125300  0.664600  0.284100  1
  H  H105  1  0.019600  0.513400  0.576700  1
  H  H106  1  0.980400  0.486600  0.423300  1
  H  H107  1  0.331100  0.003400  0.674600  1
  H  H108  1  0.668900  0.996600  0.325400  1
  H  H109  1  0.474700  0.991900  0.634500  1
  H  H110  1  0.525300  0.008100  0.365500  1
  H  H111  1  0.498200  0.932800  0.550100  1
  H  H112  1  0.501800  0.067200  0.449900  1
  H  H113  1  0.379500  0.880200  0.507800  1
  H  H114  1  0.620500  0.119800  0.492200  1
  H  H115  1  0.236800  0.887800  0.548900  1
  H  H116  1  0.763200  0.112200  0.451100  1
  H  H117  1  0.981900  0.076300  0.564300  1
  H  H118  1  0.018100  0.923700  0.435700  1
  H  H119  1  0.949900  0.101100  0.503700  1
  H  H120  1  0.050100  0.898900  0.496300  1
  H  H121  1  0.961000  0.177800  0.543100  1
  H  H122  1  0.039000  0.822200  0.456900  1
  H  H123  1  0.278100  0.016100  0.414400  1
  H  H124  1  0.721900  0.983900  0.585600  1
  H  H125  1  0.347100  0.038100  0.458800  1
  H  H126  1  0.652900  0.961900  0.541200  1
  H  H127  1  0.307300  0.112500  0.414100  1
  H  H128  1  0.692700  0.887500  0.585900  1
  H  H129  1  0.710700  0.405700  0.892300  1
  H  H130  1  0.289300  0.594300  0.107700  1
  H  H131  1  0.687000  0.379400  0.833500  1
  H  H132  1  0.313000  0.620600  0.166500  1
  H  H133  1  0.740400  0.306500  0.874700  1
  H  H134  1  0.259600  0.693500  0.125300  1
  H  H135  1  0.362900  0.394200  0.969600  1
  H  H136  1  0.637100  0.605800  0.030400  1
  H  H137  1  0.426200  0.333200  0.012700  1
  H  H138  1  0.573800  0.666800  0.987300  1
  H  H139  1  0.363700  0.289500  0.973200  1
  H  H140  1  0.636300  0.710500  0.026800  1
  H  H141  1  0.102000  0.043900  0.445600  1
  H  H142  1  0.898000  0.956100  0.554400  1
  H  H143  1  0.376400  0.183100  0.475000  1
  H  H144  1  0.623600  0.816900  0.525000  1
  H  H145  1  0.492700  0.231000  0.523100  1
  H  H146  1  0.507300  0.769000  0.476900  1
  H  H147  1  0.479100  0.241200  0.616800  1
  H  H148  1  0.520900  0.758800  0.383200  1
  H  H149  1  0.547000  0.173500  0.678000  1
  H  H150  1  0.453000  0.826500  0.322000  1
  H  H151  1  0.688200  0.180500  0.716500  1
  H  H152  1  0.311800  0.819500  0.283500  1
  H  H153  1  0.695200  0.233700  0.802900  1
  H  H154  1  0.304800  0.766300  0.197100  1
  H  H155  1  0.579100  0.392900  0.964800  1
  H  H156  1  0.420900  0.607100  0.035200  1
  H  H157  1  0.132700  0.107000  0.781700  1
  H  H158  1  0.867300  0.893000  0.218300  1
  H  H159  1  0.005300  0.124400  0.837900  1
  H  H160  1  0.994700  0.875600  0.162100  1
  H  H161  1  0.944300  0.263700  0.865800  1
  H  H162  1  0.055700  0.736300  0.134200  1
  H  H163  1  0.008000  0.387800  0.835300  1
  H  H164  1  0.992000  0.612200  0.164700  1
  H  H165  1  0.137700  0.370200  0.780500  1
  H  H166  1  0.862300  0.629800  0.219500  1
  H  H167  1  0.443700  0.464000  0.801700  1
  H  H168  1  0.556300  0.536000  0.198300  1
  H  H169  1  0.377900  0.534600  0.764900  1
  H  H170  1  0.622100  0.465400  0.235100  1
  H  H171  1  0.386400  0.431400  0.754800  1
  H  H172  1  0.613600  0.568600  0.245200  1
  H  H173  1  0.076700  0.590900  0.883400  1
  H  H174  1  0.923300  0.409100  0.116600  1
  H  H175  1  0.109800  0.535200  0.937600  1
  H  H176  1  0.890200  0.464800  0.062400  1
  H  H177  1  0.052000  0.493400  0.894600  1
  H  H178  1  0.948000  0.506600  0.105400  1
  H  H179  1  0.068100  0.659300  0.002000  1
  H  H180  1  0.931900  0.340700  0.998000  1
  H  H181  1  0.112100  0.726000  0.037300  1
  H  H182  1  0.887900  0.274000  0.962700  1
  H  H183  1  0.136800  0.621600  0.049600  1
  H  H184  1  0.863200  0.378400  0.950400  1
  H  H185  1  0.423300  0.608800  0.875900  1
  H  H186  1  0.576700  0.391200  0.124100  1
  H  H187  1  0.413700  0.521900  0.912700  1
  H  H188  1  0.586300  0.478100  0.087300  1
  H  H189  1  0.467200  0.595900  0.934600  1
  H  H190  1  0.532800  0.404100  0.065400  1
  H  H191  1  0.226800  0.592800  0.822200  1
  H  H192  1  0.773200  0.407200  0.177800  1
  H  H193  1  0.117700  0.399800  0.965900  1
  H  H194  1  0.882300  0.600200  0.034100  1
  H  H195  1  0.095600  0.269400  0.014800  1
  H  H196  1  0.904400  0.730600  0.985200  1
  H  H197  1  0.158400  0.131700  0.984000  1
  H  H198  1  0.841600  0.868300  0.016000  1
  H  H199  1  0.081100  0.059100  0.927200  1
  H  H200  1  0.918900  0.940900  0.072800  1
  H  H201  1  0.984900  0.957800  0.957800  1
  H  H202  1  0.015100  0.042200  0.042200  1
  H  H203  1  0.044000  0.806700  0.969400  1
  H  H204  1  0.956000  0.193300  0.030600  1
  H  H205  1  0.278400  0.540800  0.991400  1
  H  H206  1  0.721600  0.459200  0.008600  1
  H  H207  1  0.427000  0.938100  0.764900  1
  H  H208  1  0.573000  0.061900  0.235100  1
  H  H209  1  0.570700  0.897300  0.725700  1
  H  H210  1  0.429300  0.102700  0.274300  1
  H  H211  1  0.698800  0.945100  0.760900  1
  H  H212  1  0.301200  0.054900  0.239100  1
  H  H213  1  0.684800  0.037200  0.832600  1
  H  H214  1  0.315200  0.962800  0.167400  1
  H  H215  1  0.541900  0.080300  0.870300  1
  H  H216  1  0.458100  0.919700  0.129700  1
  C  C217  1  0.401400  0.893700  0.013060  1
  C  C218  1  0.598600  0.106300  0.986940  1
  C  C219  1  0.704300  0.835000  0.911300  1
  C  C220  1  0.295700  0.165000  0.088700  1
  C  C221  1  0.264900  0.584400  0.480490  1
  C  C222  1  0.735100  0.415600  0.519510  1
  C  C223  1  0.959000  0.707100  0.564700  1
  C  C224  1  0.041000  0.292900  0.435300  1
  C  C225  1  0.476000  0.867460  0.973860  1
  C  C226  1  0.524000  0.132540  0.026140  1
  C  C227  1  0.567700  0.877490  0.975520  1
  C  C228  1  0.432300  0.122510  0.024480  1
  C  C229  1  0.608900  0.840500  0.930980  1
  C  C230  1  0.391100  0.159500  0.069020  1
  C  C231  1  0.541900  0.764500  0.856280  1
  C  C232  1  0.458100  0.235500  0.143720  1
  C  C233  1  0.617800  0.710600  0.837020  1
  C  C234  1  0.382200  0.289400  0.162980  1
  C  C235  1  0.606100  0.668800  0.790470  1
  C  C236  1  0.393900  0.331200  0.209530  1
  C  C237  1  0.522600  0.681800  0.764440  1
  C  C238  1  0.477400  0.318200  0.235560  1
  C  C239  1  0.450000  0.737100  0.786600  1
  C  C240  1  0.550000  0.262900  0.213400  1
  C  C241  1  0.356400  0.755540  0.766630  1
  C  C242  1  0.643600  0.244460  0.233370  1
  C  C243  1  0.210400  0.789630  0.778290  1
  C  C244  1  0.789600  0.210370  0.221710  1
  C  C245  1  0.313500  0.741990  0.720010  1
  C  C246  1  0.686500  0.258010  0.279990  1
  C  C247  1  0.341500  0.720800  0.664670  1
  C  C248  1  0.658500  0.279200  0.335330  1
  C  C249  1  0.428100  0.718100  0.642620  1
  C  C250  1  0.571900  0.281900  0.357380  1
  C  C251  1  0.440100  0.699800  0.588870  1
  C  C252  1  0.559900  0.300200  0.411130  1
  C  C253  1  0.367700  0.686000  0.558220  1
  C  C254  1  0.632300  0.314000  0.441780  1
  C  C255  1  0.284000  0.690200  0.583060  1
  C  C256  1  0.716000  0.309800  0.416940  1
  C  C257  1  0.189900  0.633100  0.512870  1
  C  C258  1  0.810100  0.366900  0.487130  1
  C  C259  1  0.097600  0.638200  0.508300  1
  C  C260  1  0.902400  0.361800  0.491700  1
  C  C261  1  0.057500  0.686900  0.550520  1
  C  C262  1  0.942500  0.313100  0.449480  1
  C  C263  1  0.118600  0.816180  0.800900  1
  C  C264  1  0.881400  0.183820  0.199100  1
  C  C265  1  0.082900  0.904010  0.807150  1
  C  C266  1  0.917100  0.095990  0.192850  1
  C  C267  1  0.994500  0.927600  0.824260  1
  C  C268  1  0.005500  0.072400  0.175740  1
  C  C269  1  0.939100  0.863200  0.835580  1
  C  C270  1  0.060900  0.136800  0.164420  1
  C  C271  1  0.973900  0.775300  0.830180  1
  C  C272  1  0.026100  0.224700  0.169820  1
  C  C273  1  0.062000  0.752290  0.811950  1
  C  C274  1  0.938000  0.247710  0.188050  1
  C  C275  1  0.184400  0.515400  0.691060  1
  C  C276  1  0.815600  0.484600  0.308940  1
  C  C277  1  0.854700  0.598500  0.756610  1
  C  C278  1  0.145300  0.401500  0.243390  1
  C  C279  1  0.869700  0.456600  0.639500  1
  C  C280  1  0.130300  0.543400  0.360500  1
  C  C281  1  0.188300  0.394000  0.557700  1
  C  C282  1  0.811700  0.606000  0.442300  1
  C  C283  1  0.091600  0.561800  0.704450  1
  C  C284  1  0.908400  0.438200  0.295550  1
  C  C285  1  0.018400  0.529300  0.731300  1
  C  C286  1  0.981600  0.470700  0.268700  1
  C  C287  1  0.948300  0.596000  0.732520  1
  C  C288  1  0.051700  0.404000  0.267480  1
  C  C289  1  0.936100  0.754800  0.696360  1
  C  C290  1  0.063900  0.245200  0.303640  1
  C  C291  1  0.843000  0.781800  0.695690  1
  C  C292  1  0.157000  0.218200  0.304310  1
  C  C293  1  0.812600  0.870600  0.684170  1
  C  C294  1  0.187400  0.129400  0.315830  1
  C  C295  1  0.873600  0.929800  0.674950  1
  C  C296  1  0.126400  0.070200  0.325050  1
  C  C297  1  0.966300  0.896900  0.675830  1
  C  C298  1  0.033700  0.103100  0.324170  1
  C  C299  1  0.041000  0.946600  0.664470  1
  C  C300  1  0.959000  0.053400  0.335530  1
  C  C301  1  0.176800  0.962600  0.638320  1
  C  C302  1  0.823200  0.037400  0.361680  1
  C  C303  1  0.051400  0.033500  0.668270  1
  C  C304  1  0.948600  0.966500  0.331730  1
  C  C305  1  0.992000  0.114300  0.683540  1
  C  C306  1  0.008000  0.885700  0.316460  1
  C  C307  1  0.919800  0.119500  0.719990  1
  C  C308  1  0.080200  0.880500  0.280010  1
  C  C309  1  0.877400  0.203900  0.731850  1
  C  C310  1  0.122600  0.796100  0.268150  1
  C  C311  1  0.903500  0.278000  0.707490  1
  C  C312  1  0.096500  0.722000  0.292510  1
  C  C313  1  0.972800  0.266700  0.670450  1
  C  C314  1  0.027200  0.733300  0.329550  1
  C  C315  1  0.965200  0.419600  0.624450  1
  C  C316  1  0.034800  0.580400  0.375550  1
  C  C317  1  0.026800  0.455100  0.592750  1
  C  C318  1  0.973200  0.544900  0.407250  1
  C  C319  1  0.102300  0.390200  0.588270  1
  C  C320  1  0.897700  0.609800  0.411730  1
  C  C321  1  0.269600  0.947520  0.615530  1
  C  C322  1  0.730400  0.052480  0.384470  1
  C  C323  1  0.341000  0.978000  0.640730  1
  C  C324  1  0.659000  0.022000  0.359270  1
  C  C325  1  0.426000  0.971800  0.616870  1
  C  C326  1  0.574000  0.028200  0.383130  1
  C  C327  1  0.440000  0.936000  0.567010  1
  C  C328  1  0.560000  0.064000  0.432990  1
  C  C329  1  0.369600  0.905000  0.541820  1
  C  C330  1  0.630400  0.095000  0.458180  1
  C  C331  1  0.284900  0.910000  0.566060  1
  C  C332  1  0.715100  0.090000  0.433940  1
  C  C333  1  0.985600  0.117600  0.533320  1
  C  C334  1  0.014400  0.882400  0.466680  1
  C  C335  1  0.293600  0.062100  0.436950  1
  C  C336  1  0.706400  0.937900  0.563050  1
  C  C337  1  0.693300  0.358800  0.871280  1
  C  C338  1  0.306700  0.641200  0.128720  1
  C  C339  1  0.400900  0.336600  0.976420  1
  C  C340  1  0.599100  0.663400  0.023580  1
  C  C341  1  0.082100  0.114300  0.516350  1
  C  C342  1  0.917900  0.885700  0.483650  1
  C  C343  1  0.127800  0.075500  0.471700  1
  C  C344  1  0.872200  0.924500  0.528300  1
  C  C345  1  0.215300  0.091500  0.472630  1
  C  C346  1  0.784700  0.908500  0.527370  1
  C  C347  1  0.296600  0.167200  0.540960  1
  C  C348  1  0.703400  0.832800  0.459040  1
  C  C349  1  0.371900  0.188000  0.512710  1
  C  C350  1  0.628100  0.812000  0.487290  1
  C  C351  1  0.440000  0.216100  0.541260  1
  C  C352  1  0.560000  0.783900  0.458740  1
  C  C353  1  0.432000  0.222600  0.596710  1
  C  C354  1  0.568000  0.777400  0.403290  1
  C  C355  1  0.353800  0.201400  0.621770  1
  C  C356  1  0.646200  0.798600  0.378230  1
  C  C357  1  0.330100  0.209530  0.678840  1
  C  C358  1  0.669900  0.790470  0.321160  1
  C  C359  1  0.232300  0.227220  0.743480  1
  C  C360  1  0.767700  0.772780  0.256520  1
  C  C361  1  0.376200  0.223320  0.724730  1
  C  C362  1  0.623800  0.776680  0.275270  1
  C  C363  1  0.470600  0.223500  0.741230  1
  C  C364  1  0.529400  0.776500  0.258770  1
  C  C365  1  0.550100  0.195300  0.712810  1
  C  C366  1  0.449900  0.804700  0.287190  1
  C  C367  1  0.633600  0.199300  0.735750  1
  C  C368  1  0.366400  0.800700  0.264250  1
  C  C369  1  0.638300  0.230400  0.786650  1
  C  C370  1  0.361700  0.769600  0.213350  1
  C  C371  1  0.556900  0.256400  0.812660  1
  C  C372  1  0.443100  0.743600  0.187340  1
  C  C373  1  0.604700  0.335500  0.891530  1
  C  C374  1  0.395300  0.664500  0.108470  1
  C  C375  1  0.558900  0.359620  0.937560  1
  C  C376  1  0.441100  0.640380  0.062440  1
  C  C377  1  0.476400  0.325790  0.936760  1
  C  C378  1  0.523600  0.674210  0.063240  1
  C  C379  1  0.147600  0.237280  0.775220  1
  C  C380  1  0.852400  0.762720  0.224780  1
  C  C381  1  0.107800  0.164190  0.792730  1
  C  C382  1  0.892200  0.835810  0.207270  1
  C  C383  1  0.032300  0.174500  0.826150  1
  C  C384  1  0.967700  0.825500  0.173850  1
  C  C385  1  0.995700  0.257200  0.842480  1
  C  C386  1  0.004300  0.742800  0.157520  1
  C  C387  1  0.033900  0.330600  0.824870  1
  C  C388  1  0.966100  0.669400  0.175130  1
  C  C389  1  0.110400  0.320100  0.791840  1
  C  C390  1  0.889600  0.679900  0.208160  1
  C  C391  1  0.385800  0.475000  0.782170  1
  C  C392  1  0.614200  0.525000  0.217830  1
  C  C393  1  0.098400  0.531600  0.899270  1
  C  C394  1  0.901600  0.468400  0.100730  1
  C  C395  1  0.122900  0.668310  0.021290  1
  C  C396  1  0.877100  0.331690  0.978710  1
  C  C397  1  0.415700  0.585530  0.912710  1
  C  C398  1  0.584300  0.414470  0.087290  1
  C  C399  1  0.308500  0.467380  0.820500  1
  C  C400  1  0.691500  0.532620  0.179500  1
  C  C401  1  0.237100  0.532700  0.835270  1
  C  C402  1  0.762900  0.467300  0.164730  1
  C  C403  1  0.184900  0.493670  0.872050  1
  C  C404  1  0.815100  0.506330  0.127950  1
  C  C405  1  0.202500  0.334850  0.911010  1
  C  C406  1  0.797500  0.665150  0.088990  1
  C  C407  1  0.145800  0.343420  0.955180  1
  C  C408  1  0.854200  0.656580  0.044820  1
  C  C409  1  0.131800  0.266340  0.983130  1
  C  C410  1  0.868200  0.733660  0.016870  1
  C  C411  1  0.169900  0.184700  0.965500  1
  C  C412  1  0.830100  0.815300  0.034500  1
  C  C413  1  0.225200  0.181840  0.920320  1
  C  C414  1  0.774800  0.818160  0.079680  1
  C  C415  1  0.274800  0.103590  0.896530  1
  C  C416  1  0.725200  0.896410  0.103470  1
  C  C417  1  0.383800  0.032950  0.850910  1
  C  C418  1  0.616200  0.967050  0.149090  1
  C  C419  1  0.260800  0.016990  0.894850  1
  C  C420  1  0.739200  0.983010  0.105150  1
  C  C421  1  0.192500  0.965660  0.917570  1
  C  C422  1  0.807500  0.034340  0.082430  1
  C  C423  1  0.103500  0.997560  0.930790  1
  C  C424  1  0.896500  0.002440  0.069210  1
  C  C425  1  0.047100  0.937480  0.949560  1
  C  C426  1  0.952900  0.062520  0.050440  1
  C  C427  1  0.081300  0.848400  0.956240  1
  C  C428  1  0.918700  0.151600  0.043760  1
  C  C429  1  0.171200  0.822630  0.943160  1
  C  C430  1  0.828800  0.177370  0.056840  1
  C  C431  1  0.201500  0.665310  0.983110  1
  C  C432  1  0.798500  0.334690  0.016890  1
  C  C433  1  0.270500  0.598500  0.974540  1
  C  C434  1  0.729500  0.401500  0.025460  1
  C  C435  1  0.328400  0.631490  0.935710  1
  C  C436  1  0.671600  0.368510  0.064290  1
  C  C437  1  0.471100  0.011890  0.822210  1
  C  C438  1  0.528900  0.988110  0.177790  1
  C  C439  1  0.479300  0.958000  0.778660  1
  C  C440  1  0.520700  0.042000  0.221340  1
  C  C441  1  0.564400  0.933800  0.755590  1
  C  C442  1  0.435600  0.066200  0.244410  1
  C  C443  1  0.640400  0.962900  0.776300  1
  C  C444  1  0.359600  0.037100  0.223700  1
  C  C445  1  0.632500  0.017200  0.818920  1
  C  C446  1  0.367500  0.982800  0.181080  1
  C  C447  1  0.548000  0.042000  0.841320  1
  C  C448  1  0.452000  0.958000  0.158680  1
  N  N449  1  0.458790  0.827040  0.930110  1
  N  N450  1  0.541210  0.172960  0.069890  1
  N  N451  1  0.541060  0.808840  0.904320  1
  N  N452  1  0.458940  0.191160  0.095680  1
  N  N453  1  0.460630  0.775970  0.832880  1
  N  N454  1  0.539370  0.224030  0.167120  1
  N  N455  1  0.290270  0.788580  0.803310  1
  N  N456  1  0.709730  0.211420  0.196690  1
  N  N457  1  0.220310  0.762560  0.727890  1
  N  N458  1  0.779690  0.237440  0.272110  1
  N  N459  1  0.270400  0.707740  0.634620  1
  N  N460  1  0.729600  0.292260  0.365380  1
  N  N461  1  0.203200  0.679240  0.556680  1
  N  N462  1  0.796800  0.320760  0.443320  1
  N  N463  1  0.121250  0.712360  0.580350  1
  N  N464  1  0.878750  0.287640  0.419650  1
  N  N465  1  0.067820  0.645300  0.689980  1
  N  N466  1  0.932180  0.354700  0.310020  1
  N  N467  1  0.977790  0.668040  0.705940  1
  N  N468  1  0.022210  0.331960  0.294060  1
  N  N469  1  0.996370  0.809870  0.684800  1
  N  N470  1  0.003630  0.190130  0.315200  1
  N  N471  1  0.122130  0.900610  0.645800  1
  N  N472  1  0.877870  0.099390  0.354200  1
  N  N473  1  0.137570  0.043540  0.651100  1
  N  N474  1  0.862430  0.956460  0.348900  1
  N  N475  1  0.017920  0.187240  0.660010  1
  N  N476  1  0.982080  0.812760  0.339990  1
  N  N477  1  0.005600  0.336110  0.640300  1
  N  N478  1  0.994400  0.663890  0.359700  1
  N  N479  1  0.090300  0.317190  0.617380  1
  N  N480  1  0.909700  0.682810  0.382620  1
  N  N481  1  0.139950  0.151520  0.544780  1
  N  N482  1  0.860050  0.848480  0.455220  1
  N  N483  1  0.221360  0.138680  0.517680  1
  N  N484  1  0.778640  0.861320  0.482320  1
  N  N485  1  0.287170  0.174540  0.593910  1
  N  N486  1  0.712830  0.825460  0.406090  1
  N  N487  1  0.239170  0.209940  0.691350  1
  N  N488  1  0.760830  0.790060  0.308650  1
  N  N489  1  0.311910  0.236120  0.765440  1
  N  N490  1  0.688090  0.763880  0.234560  1
  N  N491  1  0.476020  0.252520  0.791090  1
  N  N492  1  0.523980  0.747480  0.208910  1
  N  N493  1  0.550290  0.287740  0.864720  1
  N  N494  1  0.449710  0.712260  0.135280  1
  N  N495  1  0.470690  0.282310  0.892530  1
  N  N496  1  0.529310  0.717690  0.107470  1
  N  N497  1  0.301760  0.390830  0.846800  1
  N  N498  1  0.698240  0.609170  0.153200  1
  N  N499  1  0.225810  0.407730  0.878890  1
  N  N500  1  0.774190  0.592270  0.121110  1
  N  N501  1  0.243060  0.257520  0.894500  1
  N  N502  1  0.756940  0.742480  0.105500  1
  N  N503  1  0.352620  0.113750  0.867930  1
  N  N504  1  0.647380  0.886250  0.132070  1
  N  N505  1  0.331230  0.971890  0.865930  1
  N  N506  1  0.668770  0.028110  0.134070  1
  N  N507  1  0.225020  0.878830  0.922850  1
  N  N508  1  0.774980  0.121170  0.077150  1
  N  N509  1  0.216970  0.735120  0.949000  1
  N  N510  1  0.783030  0.264880  0.051000  1
  N  N511  1  0.296850  0.713710  0.920820  1
  N  N512  1  0.703150  0.286290  0.079180  1
  F  F513  1  0.812660  0.017030  0.928130  1
  F  F514  1  0.187340  0.982970  0.071870  1
  F  F515  1  0.912130  0.115900  0.921320  1
  F  F516  1  0.087870  0.884100  0.078680  1
  F  F517  1  0.826310  0.096830  0.849800  1
  F  F518  1  0.173690  0.903170  0.150200  1
  F  F519  1  0.761390  0.165500  0.922150  1
  F  F520  1  0.238610  0.834500  0.077850  1
  F  F521  1  0.724510  0.126110  0.626590  1
  F  F522  1  0.275490  0.873890  0.373410  1
  F  F523  1  0.773410  0.258110  0.614990  1
  F  F524  1  0.226590  0.741890  0.385010  1
  F  F525  1  0.636890  0.242000  0.582360  1
  F  F526  1  0.363110  0.758000  0.417640  1
  F  F527  1  0.764250  0.175080  0.543410  1
  F  F528  1  0.235750  0.824920  0.456590  1
  F  F529  1  0.637620  0.747960  0.616610  1
  F  F530  1  0.362380  0.252040  0.383390  1
  F  F531  1  0.651010  0.614680  0.579110  1
  F  F532  1  0.348990  0.385320  0.420890  1
  F  F533  1  0.665300  0.625100  0.668700  1
  F  F534  1  0.334700  0.374900  0.331300  1
  F  F535  1  0.777400  0.662000  0.614500  1
  F  F536  1  0.222600  0.338000  0.385500  1
  F  F537  1  0.755050  0.558540  0.935840  1
  F  F538  1  0.244950  0.441460  0.064160  1
  F  F539  1  0.857570  0.495300  0.875000  1
  F  F540  1  0.142430  0.504700  0.125000  1
  F  F541  1  0.834260  0.643860  0.883530  1
  F  F542  1  0.165740  0.356140  0.116470  1
  F  F543  1  0.905220  0.549820  0.948850  1
  F  F544  1  0.094780  0.450180  0.051150  1
  F  F545  1  0.769500  0.678700  0.586700  1
  F  F546  1  0.230500  0.321300  0.413300  1
  F  F547  1  0.704900  0.623300  0.661200  1
  F  F548  1  0.295100  0.376700  0.338800  1
