# generated using pymatgen
data_Fe4B4H100C116N32F17
_symmetry_space_group_name_H-M   'P 1'
_cell_length_a   14.78000000
_cell_length_b   15.35100000
_cell_length_c   24.99400000
_cell_angle_alpha   87.07800000
_cell_angle_beta   89.44400000
_cell_angle_gamma   81.87200000
_symmetry_Int_Tables_number   1
_chemical_formula_structural   Fe4B4H100C116N32F17
_chemical_formula_sum   'Fe8 B8 H200 C232 N64 F34'
_cell_volume   5606.55114679
_cell_formula_units_Z   2
loop_
 _symmetry_equiv_pos_site_id
 _symmetry_equiv_pos_as_xyz
  1  'x, y, z'
loop_
 _atom_site_type_symbol
 _atom_site_label
 _atom_site_symmetry_multiplicity
 _atom_site_fract_x
 _atom_site_fract_y
 _atom_site_fract_z
 _atom_site_occupancy
  Fe  Fe1  1  0.341110  0.828680  0.876290  1
  Fe  Fe2  1  0.658890  0.171320  0.123710  1
  Fe  Fe3  1  0.133520  0.757860  0.660810  1
  Fe  Fe4  1  0.866480  0.242140  0.339190  1
  Fe  Fe5  1  0.153050  0.176350  0.629830  1
  Fe  Fe6  1  0.846950  0.823650  0.370170  1
  Fe  Fe7  1  0.360570  0.248950  0.842670  1
  Fe  Fe8  1  0.639430  0.751050  0.157330  1
  B  B9  1  0.828400  0.096700  0.906900  1
  B  B10  1  0.171600  0.903300  0.093100  1
  B  B11  1  0.722400  0.203300  0.591700  1
  B  B12  1  0.277600  0.796700  0.408300  1
  B  B13  1  0.684700  0.661000  0.614600  1
  B  B14  1  0.315300  0.339000  0.385400  1
  B  B15  1  0.840000  0.565100  0.911500  1
  B  B16  1  0.160000  0.434900  0.088500  1
  H  H17  1  0.347000  0.922300  0.994500  1
  H  H18  1  0.653000  0.077700  0.005500  1
  H  H19  1  0.422900  0.933600  0.037800  1
  H  H20  1  0.577100  0.066400  0.962200  1
  H  H21  1  0.387400  0.840500  0.033500  1
  H  H22  1  0.612600  0.159500  0.966500  1
  H  H23  1  0.735100  0.880500  0.929000  1
  H  H24  1  0.264900  0.119500  0.071000  1
  H  H25  1  0.704300  0.852100  0.872000  1
  H  H26  1  0.295700  0.147900  0.128000  1
  H  H27  1  0.737600  0.778400  0.917900  1
  H  H28  1  0.262400  0.221600  0.082100  1
  H  H29  1  0.288300  0.623300  0.455200  1
  H  H30  1  0.711700  0.376700  0.544800  1
  H  H31  1  0.235500  0.539100  0.458900  1
  H  H32  1  0.764500  0.460900  0.541100  1
  H  H33  1  0.309500  0.550700  0.503300  1
  H  H34  1  0.690500  0.449300  0.496700  1
  H  H35  1  0.942800  0.660100  0.592200  1
  H  H36  1  0.057200  0.339900  0.407800  1
  H  H37  1  0.919400  0.702800  0.533300  1
  H  H38  1  0.080600  0.297200  0.466700  1
  H  H39  1  0.945100  0.763000  0.579800  1
  H  H40  1  0.054900  0.237000  0.420200  1
  H  H41  1  0.596600  0.904900  0.002800  1
  H  H42  1  0.403400  0.095100  0.997200  1
  H  H43  1  0.675200  0.705400  0.853700  1
  H  H44  1  0.324800  0.294600  0.146300  1
  H  H45  1  0.654600  0.631800  0.775600  1
  H  H46  1  0.345400  0.368200  0.224400  1
  H  H47  1  0.513800  0.655900  0.730900  1
  H  H48  1  0.486200  0.344100  0.269100  1
  H  H49  1  0.477000  0.729300  0.662400  1
  H  H50  1  0.523000  0.270700  0.337600  1
  H  H51  1  0.498500  0.697500  0.573000  1
  H  H52  1  0.501500  0.302500  0.427000  1
  H  H53  1  0.373400  0.674100  0.519700  1
  H  H54  1  0.626600  0.325900  0.480300  1
  H  H55  1  0.063800  0.609200  0.481800  1
  H  H56  1  0.936200  0.390800  0.518200  1
  H  H57  1  0.119800  0.947400  0.799700  1
  H  H58  1  0.880200  0.052600  0.200300  1
  H  H59  1  0.968700  0.986100  0.825400  1
  H  H60  1  0.031300  0.013900  0.174600  1
  H  H61  1  0.878500  0.876200  0.847100  1
  H  H62  1  0.121500  0.123800  0.152900  1
  H  H63  1  0.937600  0.729200  0.840800  1
  H  H64  1  0.062400  0.270800  0.159200  1
  H  H65  1  0.084800  0.690500  0.807100  1
  H  H66  1  0.915200  0.309500  0.192900  1
  H  H67  1  0.205900  0.541000  0.657300  1
  H  H68  1  0.794100  0.459000  0.342700  1
  H  H69  1  0.181900  0.452600  0.687600  1
  H  H70  1  0.818100  0.547400  0.312400  1
  H  H71  1  0.228400  0.522100  0.719700  1
  H  H72  1  0.771600  0.477900  0.280300  1
  H  H73  1  0.809400  0.595000  0.729800  1
  H  H74  1  0.190600  0.405000  0.270200  1
  H  H75  1  0.839900  0.648900  0.778100  1
  H  H76  1  0.160100  0.351100  0.221900  1
  H  H77  1  0.855300  0.543500  0.782200  1
  H  H78  1  0.144700  0.456500  0.217800  1
  H  H79  1  0.867100  0.462700  0.680700  1
  H  H80  1  0.132900  0.537300  0.319300  1
  H  H81  1  0.827000  0.412200  0.633800  1
  H  H82  1  0.173000  0.587800  0.366200  1
  H  H83  1  0.850500  0.510100  0.622400  1
  H  H84  1  0.149500  0.489900  0.377600  1
  H  H85  1  0.238600  0.357100  0.578500  1
  H  H86  1  0.761400  0.642900  0.421500  1
  H  H87  1  0.199200  0.454400  0.556000  1
  H  H88  1  0.800800  0.545600  0.444000  1
  H  H89  1  0.181700  0.370800  0.523800  1
  H  H90  1  0.818300  0.629200  0.476200  1
  H  H91  1  0.019800  0.469600  0.747400  1
  H  H92  1  0.980200  0.530400  0.252600  1
  H  H93  1  0.800200  0.739200  0.704400  1
  H  H94  1  0.199800  0.260800  0.295600  1
  H  H95  1  0.748300  0.884800  0.684600  1
  H  H96  1  0.251700  0.115200  0.315400  1
  H  H97  1  0.851600  0.986900  0.668600  1
  H  H98  1  0.148400  0.013100  0.331400  1
  H  H99  1  0.900600  0.065200  0.736800  1
  H  H100  1  0.099400  0.934800  0.263200  1
  H  H101  1  0.829900  0.205000  0.758000  1
  H  H102  1  0.170100  0.795000  0.242000  1
  H  H103  1  0.873300  0.330300  0.716200  1
  H  H104  1  0.126700  0.669700  0.283800  1
  H  H105  1  0.019100  0.512500  0.580300  1
  H  H106  1  0.980900  0.487500  0.419700  1
  H  H107  1  0.330000  0.002900  0.674500  1
  H  H108  1  0.670000  0.997100  0.325500  1
  H  H109  1  0.473100  0.994900  0.634300  1
  H  H110  1  0.526900  0.005100  0.365700  1
  H  H111  1  0.497700  0.934100  0.550600  1
  H  H112  1  0.502300  0.065900  0.449400  1
  H  H113  1  0.380600  0.880200  0.507900  1
  H  H114  1  0.619400  0.119800  0.492100  1
  H  H115  1  0.236300  0.886200  0.548800  1
  H  H116  1  0.763700  0.113800  0.451200  1
  H  H117  1  0.979100  0.080000  0.565000  1
  H  H118  1  0.020900  0.920000  0.435000  1
  H  H119  1  0.944900  0.105300  0.504900  1
  H  H120  1  0.055100  0.894700  0.495100  1
  H  H121  1  0.960100  0.181200  0.544000  1
  H  H122  1  0.039900  0.818800  0.456000  1
  H  H123  1  0.275000  0.014900  0.415500  1
  H  H124  1  0.725000  0.985100  0.584500  1
  H  H125  1  0.344700  0.040800  0.458600  1
  H  H126  1  0.655300  0.959200  0.541400  1
  H  H127  1  0.302700  0.112100  0.413200  1
  H  H128  1  0.697300  0.887900  0.586800  1
  H  H129  1  0.716200  0.401700  0.893800  1
  H  H130  1  0.283800  0.598300  0.106200  1
  H  H131  1  0.689900  0.379800  0.834500  1
  H  H132  1  0.310100  0.620200  0.165500  1
  H  H133  1  0.742100  0.303900  0.873800  1
  H  H134  1  0.257900  0.696100  0.126200  1
  H  H135  1  0.364800  0.393100  0.969000  1
  H  H136  1  0.635200  0.606900  0.031000  1
  H  H137  1  0.428300  0.333400  0.012200  1
  H  H138  1  0.571700  0.666600  0.987800  1
  H  H139  1  0.365300  0.288700  0.973000  1
  H  H140  1  0.634700  0.711300  0.027000  1
  H  H141  1  0.097400  0.046700  0.444800  1
  H  H142  1  0.902600  0.953300  0.555200  1
  H  H143  1  0.376000  0.183500  0.475300  1
  H  H144  1  0.624000  0.816500  0.524700  1
  H  H145  1  0.492500  0.229200  0.523300  1
  H  H146  1  0.507500  0.770800  0.476700  1
  H  H147  1  0.478900  0.240800  0.616600  1
  H  H148  1  0.521100  0.759200  0.383400  1
  H  H149  1  0.546900  0.173200  0.678500  1
  H  H150  1  0.453100  0.826800  0.321500  1
  H  H151  1  0.688800  0.183700  0.715900  1
  H  H152  1  0.311200  0.816300  0.284100  1
  H  H153  1  0.695800  0.233600  0.802100  1
  H  H154  1  0.304200  0.766400  0.197900  1
  H  H155  1  0.579800  0.391400  0.965200  1
  H  H156  1  0.420200  0.608600  0.034800  1
  H  H157  1  0.133200  0.106200  0.783200  1
  H  H158  1  0.866800  0.893800  0.216800  1
  H  H159  1  0.006500  0.121100  0.839000  1
  H  H160  1  0.993500  0.878900  0.161000  1
  H  H161  1  0.944800  0.260400  0.865300  1
  H  H162  1  0.055200  0.739600  0.134700  1
  H  H163  1  0.006900  0.384400  0.833900  1
  H  H164  1  0.993100  0.615600  0.166100  1
  H  H165  1  0.136500  0.367500  0.778900  1
  H  H166  1  0.863500  0.632500  0.221100  1
  H  H167  1  0.444000  0.457400  0.800000  1
  H  H168  1  0.556000  0.542600  0.200000  1
  H  H169  1  0.381100  0.534500  0.766600  1
  H  H170  1  0.618900  0.465500  0.233400  1
  H  H171  1  0.382500  0.434200  0.751800  1
  H  H172  1  0.617500  0.565800  0.248200  1
  H  H173  1  0.075900  0.586100  0.881100  1
  H  H174  1  0.924100  0.413900  0.118900  1
  H  H175  1  0.108800  0.531900  0.935500  1
  H  H176  1  0.891200  0.468100  0.064500  1
  H  H177  1  0.051400  0.488500  0.892600  1
  H  H178  1  0.948600  0.511500  0.107400  1
  H  H179  1  0.064200  0.666100  0.999400  1
  H  H180  1  0.935800  0.333900  0.000600  1
  H  H181  1  0.116300  0.718500  0.040300  1
  H  H182  1  0.883700  0.281500  0.959700  1
  H  H183  1  0.129700  0.613000  0.044200  1
  H  H184  1  0.870300  0.387000  0.955800  1
  H  H185  1  0.424400  0.611700  0.876200  1
  H  H186  1  0.575600  0.388300  0.123800  1
  H  H187  1  0.412300  0.523400  0.910800  1
  H  H188  1  0.587700  0.476600  0.089200  1
  H  H189  1  0.466600  0.595300  0.935200  1
  H  H190  1  0.533400  0.404700  0.064800  1
  H  H191  1  0.228400  0.589400  0.821000  1
  H  H192  1  0.771600  0.410600  0.179000  1
  H  H193  1  0.116700  0.396500  0.964800  1
  H  H194  1  0.883300  0.603500  0.035200  1
  H  H195  1  0.097600  0.266300  0.015100  1
  H  H196  1  0.902400  0.733700  0.984900  1
  H  H197  1  0.159000  0.130300  0.983600  1
  H  H198  1  0.841000  0.869700  0.016400  1
  H  H199  1  0.081800  0.056800  0.927300  1
  H  H200  1  0.918200  0.943200  0.072700  1
  H  H201  1  0.985800  0.955700  0.958200  1
  H  H202  1  0.014200  0.044300  0.041800  1
  H  H203  1  0.043200  0.806100  0.969000  1
  H  H204  1  0.956800  0.193900  0.031000  1
  H  H205  1  0.275800  0.540400  0.988800  1
  H  H206  1  0.724200  0.459600  0.011200  1
  H  H207  1  0.424700  0.941000  0.764500  1
  H  H208  1  0.575300  0.059000  0.235500  1
  H  H209  1  0.568200  0.898200  0.725000  1
  H  H210  1  0.431800  0.101800  0.275000  1
  H  H211  1  0.695800  0.950400  0.757700  1
  H  H212  1  0.304200  0.049600  0.242300  1
  H  H213  1  0.686800  0.036600  0.831000  1
  H  H214  1  0.313200  0.963400  0.169000  1
  H  H215  1  0.542600  0.080600  0.869200  1
  H  H216  1  0.457400  0.919400  0.130800  1
  C  C217  1  0.401800  0.893100  0.013200  1
  C  C218  1  0.598200  0.106900  0.986800  1
  C  C219  1  0.704600  0.837800  0.910600  1
  C  C220  1  0.295400  0.162200  0.089400  1
  C  C221  1  0.261800  0.581800  0.479700  1
  C  C222  1  0.738200  0.418200  0.520300  1
  C  C223  1  0.957300  0.704500  0.565100  1
  C  C224  1  0.042700  0.295500  0.434900  1
  C  C225  1  0.475600  0.866800  0.973100  1
  C  C226  1  0.524400  0.133200  0.026900  1
  C  C227  1  0.567900  0.877800  0.975500  1
  C  C228  1  0.432100  0.122200  0.024500  1
  C  C229  1  0.608900  0.841400  0.930500  1
  C  C230  1  0.391100  0.158600  0.069500  1
  C  C231  1  0.541100  0.765800  0.856400  1
  C  C232  1  0.458900  0.234200  0.143600  1
  C  C233  1  0.617700  0.712300  0.836200  1
  C  C234  1  0.382300  0.287700  0.163800  1
  C  C235  1  0.605200  0.670400  0.789700  1
  C  C236  1  0.394800  0.329600  0.210300  1
  C  C237  1  0.521800  0.683500  0.763400  1
  C  C238  1  0.478200  0.316500  0.236600  1
  C  C239  1  0.450000  0.738600  0.786200  1
  C  C240  1  0.550000  0.261400  0.213800  1
  C  C241  1  0.356100  0.756200  0.766300  1
  C  C242  1  0.643900  0.243800  0.233700  1
  C  C243  1  0.211000  0.789000  0.777500  1
  C  C244  1  0.789000  0.211000  0.222500  1
  C  C245  1  0.311600  0.742800  0.719200  1
  C  C246  1  0.688400  0.257200  0.280800  1
  C  C247  1  0.340200  0.721200  0.664000  1
  C  C248  1  0.659800  0.278800  0.336000  1
  C  C249  1  0.426900  0.718600  0.641400  1
  C  C250  1  0.573100  0.281400  0.358600  1
  C  C251  1  0.439200  0.700300  0.588400  1
  C  C252  1  0.560800  0.299700  0.411600  1
  C  C253  1  0.365900  0.685700  0.556600  1
  C  C254  1  0.634100  0.314300  0.443400  1
  C  C255  1  0.283000  0.689100  0.581700  1
  C  C256  1  0.717000  0.310900  0.418300  1
  C  C257  1  0.187000  0.632100  0.513400  1
  C  C258  1  0.813000  0.367900  0.486600  1
  C  C259  1  0.095100  0.635500  0.508300  1
  C  C260  1  0.904900  0.364500  0.491700  1
  C  C261  1  0.055800  0.685600  0.550000  1
  C  C262  1  0.944200  0.314400  0.450000  1
  C  C263  1  0.117300  0.815900  0.800700  1
  C  C264  1  0.882700  0.184100  0.199300  1
  C  C265  1  0.082100  0.902900  0.806700  1
  C  C266  1  0.917900  0.097100  0.193300  1
  C  C267  1  0.993200  0.925900  0.822900  1
  C  C268  1  0.006800  0.074100  0.177100  1
  C  C269  1  0.939700  0.860500  0.835400  1
  C  C270  1  0.060300  0.139500  0.164600  1
  C  C271  1  0.974100  0.773700  0.830900  1
  C  C272  1  0.025900  0.226300  0.169100  1
  C  C273  1  0.062000  0.750600  0.812200  1
  C  C274  1  0.938000  0.249400  0.187800  1
  C  C275  1  0.185200  0.515400  0.691200  1
  C  C276  1  0.814800  0.484600  0.308800  1
  C  C277  1  0.855100  0.595700  0.757900  1
  C  C278  1  0.144900  0.404300  0.242100  1
  C  C279  1  0.868900  0.453600  0.642100  1
  C  C280  1  0.131100  0.546400  0.357900  1
  C  C281  1  0.187600  0.393100  0.559500  1
  C  C282  1  0.812400  0.606900  0.440500  1
  C  C283  1  0.092800  0.561700  0.705100  1
  C  C284  1  0.907200  0.438300  0.294900  1
  C  C285  1  0.019400  0.527700  0.732400  1
  C  C286  1  0.980600  0.472300  0.267600  1
  C  C287  1  0.947800  0.595100  0.732800  1
  C  C288  1  0.052200  0.404900  0.267200  1
  C  C289  1  0.935600  0.751900  0.696200  1
  C  C290  1  0.064400  0.248100  0.303800  1
  C  C291  1  0.842100  0.779700  0.696500  1
  C  C292  1  0.157900  0.220300  0.303500  1
  C  C293  1  0.812200  0.865100  0.685500  1
  C  C294  1  0.187800  0.134900  0.314500  1
  C  C295  1  0.872700  0.926000  0.675300  1
  C  C296  1  0.127300  0.074000  0.324700  1
  C  C297  1  0.966400  0.893200  0.675300  1
  C  C298  1  0.033600  0.106800  0.324700  1
  C  C299  1  0.039000  0.946000  0.664100  1
  C  C300  1  0.961000  0.054000  0.335900  1
  C  C301  1  0.175900  0.962200  0.637900  1
  C  C302  1  0.824100  0.037800  0.362100  1
  C  C303  1  0.050400  0.031800  0.667600  1
  C  C304  1  0.949600  0.968200  0.332400  1
  C  C305  1  0.990900  0.111000  0.683400  1
  C  C306  1  0.009100  0.889000  0.316600  1
  C  C307  1  0.919700  0.116700  0.720300  1
  C  C308  1  0.080300  0.883300  0.279700  1
  C  C309  1  0.877500  0.199500  0.732200  1
  C  C310  1  0.122500  0.800500  0.267800  1
  C  C311  1  0.902600  0.273500  0.707700  1
  C  C312  1  0.097400  0.726500  0.292300  1
  C  C313  1  0.971900  0.263700  0.670200  1
  C  C314  1  0.028100  0.736300  0.329800  1
  C  C315  1  0.965700  0.416400  0.625900  1
  C  C316  1  0.034300  0.583600  0.374100  1
  C  C317  1  0.026600  0.453700  0.595200  1
  C  C318  1  0.973400  0.546300  0.404800  1
  C  C319  1  0.104100  0.388500  0.589300  1
  C  C320  1  0.895900  0.611500  0.410700  1
  C  C321  1  0.269500  0.947300  0.614800  1
  C  C322  1  0.730500  0.052700  0.385200  1
  C  C323  1  0.340100  0.978200  0.640500  1
  C  C324  1  0.659900  0.021800  0.359500  1
  C  C325  1  0.424600  0.973400  0.616800  1
  C  C326  1  0.575400  0.026600  0.383200  1
  C  C327  1  0.439200  0.936900  0.567100  1
  C  C328  1  0.560800  0.063100  0.432900  1
  C  C329  1  0.370100  0.905100  0.541900  1
  C  C330  1  0.629900  0.094900  0.458100  1
  C  C331  1  0.284200  0.909300  0.565900  1
  C  C332  1  0.715800  0.090700  0.434100  1
  C  C333  1  0.982600  0.121100  0.533900  1
  C  C334  1  0.017400  0.878900  0.466100  1
  C  C335  1  0.290300  0.062300  0.437000  1
  C  C336  1  0.709700  0.937700  0.563000  1
  C  C337  1  0.696500  0.356900  0.871800  1
  C  C338  1  0.303500  0.643100  0.128200  1
  C  C339  1  0.402800  0.336100  0.976000  1
  C  C340  1  0.597200  0.663900  0.024000  1
  C  C341  1  0.077900  0.116400  0.515900  1
  C  C342  1  0.922100  0.883600  0.484100  1
  C  C343  1  0.123800  0.077400  0.471200  1
  C  C344  1  0.876200  0.922600  0.528800  1
  C  C345  1  0.212500  0.091500  0.472900  1
  C  C346  1  0.787500  0.908500  0.527100  1
  C  C347  1  0.295400  0.167100  0.540400  1
  C  C348  1  0.704600  0.832900  0.459600  1
  C  C349  1  0.371200  0.187900  0.513000  1
  C  C350  1  0.628800  0.812100  0.487000  1
  C  C351  1  0.439200  0.215000  0.541400  1
  C  C352  1  0.560800  0.785000  0.458600  1
  C  C353  1  0.431400  0.222100  0.596600  1
  C  C354  1  0.568600  0.777900  0.403400  1
  C  C355  1  0.352300  0.201200  0.621900  1
  C  C356  1  0.647700  0.798800  0.378100  1
  C  C357  1  0.329400  0.209100  0.678700  1
  C  C358  1  0.670600  0.790900  0.321300  1
  C  C359  1  0.233000  0.225400  0.743700  1
  C  C360  1  0.767000  0.774600  0.256300  1
  C  C361  1  0.377000  0.222100  0.725300  1
  C  C362  1  0.623000  0.777900  0.274700  1
  C  C363  1  0.470500  0.223300  0.740900  1
  C  C364  1  0.529500  0.776700  0.259100  1
  C  C365  1  0.550100  0.195700  0.713100  1
  C  C366  1  0.449900  0.804300  0.286900  1
  C  C367  1  0.634300  0.200900  0.735400  1
  C  C368  1  0.365700  0.799100  0.264600  1
  C  C369  1  0.638600  0.230900  0.785700  1
  C  C370  1  0.361400  0.769100  0.214300  1
  C  C371  1  0.557100  0.257400  0.812400  1
  C  C372  1  0.442900  0.742600  0.187600  1
  C  C373  1  0.606500  0.334400  0.892000  1
  C  C374  1  0.393500  0.665600  0.108000  1
  C  C375  1  0.559600  0.358300  0.937700  1
  C  C376  1  0.440400  0.641700  0.062300  1
  C  C377  1  0.478200  0.325400  0.936300  1
  C  C378  1  0.521800  0.674600  0.063700  1
  C  C379  1  0.147200  0.235100  0.775400  1
  C  C380  1  0.852800  0.764900  0.224600  1
  C  C381  1  0.107800  0.163100  0.793700  1
  C  C382  1  0.892200  0.836900  0.206300  1
  C  C383  1  0.032800  0.171500  0.826800  1
  C  C384  1  0.967200  0.828500  0.173200  1
  C  C385  1  0.996300  0.254100  0.842000  1
  C  C386  1  0.003700  0.745900  0.158000  1
  C  C387  1  0.033300  0.327400  0.823900  1
  C  C388  1  0.966700  0.672600  0.176100  1
  C  C389  1  0.109700  0.317300  0.790900  1
  C  C390  1  0.890300  0.682700  0.209100  1
  C  C391  1  0.385700  0.473500  0.781100  1
  C  C392  1  0.614300  0.526500  0.218900  1
  C  C393  1  0.097700  0.527400  0.897200  1
  C  C394  1  0.902300  0.472600  0.102800  1
  C  C395  1  0.120700  0.665400  0.019700  1
  C  C396  1  0.879300  0.334600  0.980300  1
  C  C397  1  0.415400  0.586600  0.912400  1
  C  C398  1  0.584600  0.413400  0.087600  1
  C  C399  1  0.308900  0.465200  0.819200  1
  C  C400  1  0.691100  0.534800  0.180800  1
  C  C401  1  0.237900  0.529500  0.833900  1
  C  C402  1  0.762100  0.470500  0.166100  1
  C  C403  1  0.183800  0.490700  0.870600  1
  C  C404  1  0.816200  0.509300  0.129400  1
  C  C405  1  0.203100  0.333700  0.911100  1
  C  C406  1  0.796900  0.666300  0.088900  1
  C  C407  1  0.146100  0.340800  0.954500  1
  C  C408  1  0.853900  0.659200  0.045500  1
  C  C409  1  0.132900  0.263600  0.983100  1
  C  C410  1  0.867100  0.736400  0.016900  1
  C  C411  1  0.170800  0.183200  0.965200  1
  C  C412  1  0.829200  0.816800  0.034800  1
  C  C413  1  0.225400  0.179900  0.920800  1
  C  C414  1  0.774600  0.820100  0.079200  1
  C  C415  1  0.275500  0.102700  0.896900  1
  C  C416  1  0.724500  0.897300  0.103100  1
  C  C417  1  0.384700  0.032500  0.850700  1
  C  C418  1  0.615300  0.967500  0.149300  1
  C  C419  1  0.261200  0.015500  0.894400  1
  C  C420  1  0.738800  0.984500  0.105600  1
  C  C421  1  0.192500  0.963900  0.917200  1
  C  C422  1  0.807500  0.036100  0.082800  1
  C  C423  1  0.103800  0.995600  0.930800  1
  C  C424  1  0.896200  0.004400  0.069200  1
  C  C425  1  0.047800  0.935700  0.949500  1
  C  C426  1  0.952200  0.064300  0.050500  1
  C  C427  1  0.081100  0.847400  0.955800  1
  C  C428  1  0.918900  0.152600  0.044200  1
  C  C429  1  0.171300  0.820400  0.942300  1
  C  C430  1  0.828700  0.179600  0.057700  1
  C  C431  1  0.200000  0.663300  0.981700  1
  C  C432  1  0.800000  0.336700  0.018300  1
  C  C433  1  0.268800  0.598300  0.972600  1
  C  C434  1  0.731200  0.401700  0.027400  1
  C  C435  1  0.328500  0.631100  0.935100  1
  C  C436  1  0.671500  0.368900  0.064900  1
  C  C437  1  0.471800  0.011500  0.821200  1
  C  C438  1  0.528200  0.988500  0.178800  1
  C  C439  1  0.477900  0.960000  0.778200  1
  C  C440  1  0.522100  0.040000  0.221800  1
  C  C441  1  0.562600  0.935400  0.754500  1
  C  C442  1  0.437400  0.064600  0.245500  1
  C  C443  1  0.638200  0.966100  0.774500  1
  C  C444  1  0.361800  0.033900  0.225500  1
  C  C445  1  0.633500  0.017800  0.817200  1
  C  C446  1  0.366500  0.982200  0.182800  1
  C  C447  1  0.548300  0.042400  0.840300  1
  C  C448  1  0.451700  0.957600  0.159700  1
  N  N449  1  0.459000  0.826200  0.929700  1
  N  N450  1  0.541000  0.173800  0.070300  1
  N  N451  1  0.541300  0.809900  0.903400  1
  N  N452  1  0.458700  0.190100  0.096600  1
  N  N453  1  0.461200  0.777000  0.832800  1
  N  N454  1  0.538800  0.223000  0.167200  1
  N  N455  1  0.290500  0.787800  0.802600  1
  N  N456  1  0.709500  0.212200  0.197400  1
  N  N457  1  0.219300  0.763200  0.727100  1
  N  N458  1  0.780700  0.236800  0.272900  1
  N  N459  1  0.268600  0.707700  0.633600  1
  N  N460  1  0.731400  0.292300  0.366400  1
  N  N461  1  0.202000  0.678200  0.556400  1
  N  N462  1  0.798000  0.321800  0.443600  1
  N  N463  1  0.119500  0.711100  0.579900  1
  N  N464  1  0.880500  0.288900  0.420100  1
  N  N465  1  0.067700  0.644000  0.690000  1
  N  N466  1  0.932300  0.356000  0.310000  1
  N  N467  1  0.977600  0.666100  0.706300  1
  N  N468  1  0.022400  0.333900  0.293700  1
  N  N469  1  0.996400  0.807300  0.685100  1
  N  N470  1  0.003600  0.192700  0.314900  1
  N  N471  1  0.120700  0.898700  0.645100  1
  N  N472  1  0.879300  0.101300  0.354900  1
  N  N473  1  0.136900  0.041800  0.650300  1
  N  N474  1  0.863100  0.958200  0.349700  1
  N  N475  1  0.016700  0.184900  0.660800  1
  N  N476  1  0.983300  0.815100  0.339200  1
  N  N477  1  0.005600  0.332400  0.641600  1
  N  N478  1  0.994400  0.667600  0.358400  1
  N  N479  1  0.089400  0.315500  0.618300  1
  N  N480  1  0.910600  0.684500  0.381700  1
  N  N481  1  0.137500  0.152200  0.544300  1
  N  N482  1  0.862500  0.847800  0.455700  1
  N  N483  1  0.219500  0.139000  0.517300  1
  N  N484  1  0.780500  0.861000  0.482700  1
  N  N485  1  0.285500  0.173600  0.593400  1
  N  N486  1  0.714500  0.826400  0.406600  1
  N  N487  1  0.238900  0.208000  0.691200  1
  N  N488  1  0.761100  0.792000  0.308800  1
  N  N489  1  0.312200  0.233700  0.764700  1
  N  N490  1  0.687800  0.766300  0.235300  1
  N  N491  1  0.476600  0.252500  0.790600  1
  N  N492  1  0.523400  0.747500  0.209400  1
  N  N493  1  0.551400  0.288000  0.864500  1
  N  N494  1  0.448600  0.712000  0.135500  1
  N  N495  1  0.471400  0.281700  0.892300  1
  N  N496  1  0.528600  0.718300  0.107700  1
  N  N497  1  0.301600  0.388500  0.846100  1
  N  N498  1  0.698400  0.611500  0.153900  1
  N  N499  1  0.227300  0.404800  0.878300  1
  N  N500  1  0.772700  0.595200  0.121700  1
  N  N501  1  0.243500  0.256000  0.894000  1
  N  N502  1  0.756500  0.744000  0.106000  1
  N  N503  1  0.353700  0.113400  0.867900  1
  N  N504  1  0.646300  0.886600  0.132100  1
  N  N505  1  0.332500  0.970300  0.865800  1
  N  N506  1  0.667500  0.029700  0.134200  1
  N  N507  1  0.225300  0.877000  0.922100  1
  N  N508  1  0.774700  0.123000  0.077900  1
  N  N509  1  0.217000  0.733800  0.948200  1
  N  N510  1  0.783000  0.266200  0.051800  1
  N  N511  1  0.296200  0.712400  0.920200  1
  N  N512  1  0.703800  0.287600  0.079800  1
  F  F513  1  0.812100  0.017300  0.930600  1
  F  F514  1  0.187900  0.982700  0.069400  1
  F  F515  1  0.912600  0.115700  0.922100  1
  F  F516  1  0.087400  0.884300  0.077900  1
  F  F517  1  0.827500  0.093400  0.851200  1
  F  F518  1  0.172500  0.906600  0.148800  1
  F  F519  1  0.763400  0.163900  0.922200  1
  F  F520  1  0.236600  0.836100  0.077800  1
  F  F521  1  0.719700  0.128200  0.625200  1
  F  F522  1  0.280300  0.871800  0.374800  1
  F  F523  1  0.771500  0.259100  0.616200  1
  F  F524  1  0.228500  0.740900  0.383800  1
  F  F525  1  0.634800  0.246500  0.582100  1
  F  F526  1  0.365200  0.753500  0.417900  1
  F  F527  1  0.760600  0.180000  0.543000  1
  F  F528  1  0.239400  0.820000  0.457000  1
  F  F529  1  0.639700  0.745600  0.615900  1
  F  F530  1  0.360300  0.254400  0.384100  1
  F  F531  1  0.647300  0.612900  0.579300  1
  F  F532  1  0.352700  0.387100  0.420700  1
  F  F533  1  0.769900  0.671700  0.589600  1
  F  F534  1  0.230100  0.328300  0.410400  1
  F  F535  1  0.679900  0.623200  0.666300  1
  F  F536  1  0.320100  0.376800  0.333700  1
  F  F537  1  0.759400  0.558300  0.938300  1
  F  F538  1  0.240600  0.441700  0.061700  1
  F  F539  1  0.861100  0.496600  0.877200  1
  F  F540  1  0.138900  0.503400  0.122800  1
  F  F541  1  0.829400  0.644600  0.882100  1
  F  F542  1  0.170600  0.355400  0.117900  1
  F  F543  1  0.910000  0.563200  0.946800  1
  F  F544  1  0.090000  0.436800  0.053200  1
  F  F545  1  0.778300  0.650000  0.619500  1
  F  F546  1  0.221700  0.350000  0.380500  1
