# generated using pymatgen
data_FeB2H25C29(NF)8
_symmetry_space_group_name_H-M   'P 1'
_cell_length_a   14.86110000
_cell_length_b   15.56940000
_cell_length_c   25.34330000
_cell_angle_alpha   88.91600000
_cell_angle_beta   89.26000000
_cell_angle_gamma   84.37800000
_symmetry_Int_Tables_number   1
_chemical_formula_structural   FeB2H25C29(NF)8
_chemical_formula_sum   'Fe8 B16 H200 C232 N64 F64'
_cell_volume   5834.28134974
_cell_formula_units_Z   8
loop_
 _symmetry_equiv_pos_site_id
 _symmetry_equiv_pos_as_xyz
  1  'x, y, z'
loop_
 _atom_site_type_symbol
 _atom_site_label
 _atom_site_symmetry_multiplicity
 _atom_site_fract_x
 _atom_site_fract_y
 _atom_site_fract_z
 _atom_site_occupancy
  Fe  Fe1  1  0.342190  0.825040  0.876260  1
  Fe  Fe2  1  0.657810  0.174960  0.123740  1
  Fe  Fe3  1  0.133930  0.759140  0.661470  1
  Fe  Fe4  1  0.866070  0.240860  0.338530  1
  Fe  Fe5  1  0.150380  0.170910  0.627760  1
  Fe  Fe6  1  0.849620  0.829090  0.372240  1
  Fe  Fe7  1  0.357780  0.238540  0.841480  1
  Fe  Fe8  1  0.642220  0.761460  0.158520  1
  B  B9  1  0.830400  0.086300  0.908300  1
  B  B10  1  0.169600  0.913700  0.091700  1
  B  B11  1  0.713700  0.207400  0.592600  1
  B  B12  1  0.286300  0.792600  0.407400  1
  B  B13  1  0.683700  0.647100  0.613400  1
  B  B14  1  0.316300  0.352900  0.386600  1
  B  B15  1  0.835100  0.571300  0.916100  1
  B  B16  1  0.164900  0.428700  0.083900  1
  B  B17  1  0.816600  0.079700  0.903000  1
  B  B18  1  0.183400  0.920300  0.097000  1
  B  B19  1  0.724200  0.190500  0.593200  1
  B  B20  1  0.275800  0.809500  0.406800  1
  B  B21  1  0.692300  0.659300  0.613200  1
  B  B22  1  0.307700  0.340700  0.386800  1
  B  B23  1  0.837500  0.562500  0.912800  1
  B  B24  1  0.162500  0.437500  0.087200  1
  H  H25  1  0.360100  0.927900  0.994000  1
  H  H26  1  0.639900  0.072100  0.006000  1
  H  H27  1  0.431700  0.920000  0.039100  1
  H  H28  1  0.568300  0.080000  0.960900  1
  H  H29  1  0.381800  0.839800  0.024400  1
  H  H30  1  0.618200  0.160200  0.975600  1
  H  H31  1  0.736800  0.880200  0.925800  1
  H  H32  1  0.263200  0.119800  0.074200  1
  H  H33  1  0.706300  0.847500  0.871400  1
  H  H34  1  0.293700  0.152500  0.128600  1
  H  H35  1  0.737000  0.781000  0.916300  1
  H  H36  1  0.263000  0.219000  0.083700  1
  H  H37  1  0.283100  0.625300  0.459200  1
  H  H38  1  0.716900  0.374700  0.540800  1
  H  H39  1  0.231600  0.542100  0.460200  1
  H  H40  1  0.768400  0.457900  0.539800  1
  H  H41  1  0.302800  0.554900  0.503700  1
  H  H42  1  0.697200  0.445100  0.496300  1
  H  H43  1  0.941600  0.654100  0.593500  1
  H  H44  1  0.058400  0.345900  0.406500  1
  H  H45  1  0.921400  0.691700  0.536600  1
  H  H46  1  0.078600  0.308300  0.463400  1
  H  H47  1  0.946800  0.752700  0.581500  1
  H  H48  1  0.053200  0.247300  0.418500  1
  H  H49  1  0.600200  0.901600  0.999800  1
  H  H50  1  0.399800  0.098400  0.000200  1
  H  H51  1  0.668900  0.711900  0.848300  1
  H  H52  1  0.331100  0.288100  0.151700  1
  H  H53  1  0.647400  0.643800  0.769700  1
  H  H54  1  0.352600  0.356200  0.230300  1
  H  H55  1  0.508600  0.663100  0.728300  1
  H  H56  1  0.491400  0.336900  0.271700  1
  H  H57  1  0.472200  0.738800  0.661100  1
  H  H58  1  0.527800  0.261200  0.338900  1
  H  H59  1  0.492200  0.706300  0.573400  1
  H  H60  1  0.507800  0.293700  0.426600  1
  H  H61  1  0.370100  0.678100  0.522800  1
  H  H62  1  0.629900  0.321900  0.477200  1
  H  H63  1  0.062000  0.603300  0.486000  1
  H  H64  1  0.938000  0.396700  0.514000  1
  H  H65  1  0.111900  0.937600  0.787500  1
  H  H66  1  0.888100  0.062400  0.212500  1
  H  H67  1  0.965900  0.967800  0.818700  1
  H  H68  1  0.034100  0.032200  0.181300  1
  H  H69  1  0.887900  0.860000  0.852600  1
  H  H70  1  0.112100  0.140000  0.147400  1
  H  H71  1  0.953500  0.720100  0.853900  1
  H  H72  1  0.046500  0.279900  0.146100  1
  H  H73  1  0.099200  0.690600  0.822700  1
  H  H74  1  0.900800  0.309400  0.177300  1
  H  H75  1  0.195800  0.523700  0.656100  1
  H  H76  1  0.804200  0.476300  0.343900  1
  H  H77  1  0.198400  0.468200  0.708400  1
  H  H78  1  0.801600  0.531800  0.291600  1
  H  H79  1  0.234600  0.559500  0.707600  1
  H  H80  1  0.765400  0.440500  0.292400  1
  H  H81  1  0.820900  0.582800  0.736800  1
  H  H82  1  0.179100  0.417200  0.263200  1
  H  H83  1  0.849600  0.640000  0.782700  1
  H  H84  1  0.150400  0.360000  0.217300  1
  H  H85  1  0.867700  0.539200  0.787000  1
  H  H86  1  0.132300  0.460800  0.213000  1
  H  H87  1  0.872100  0.444700  0.686900  1
  H  H88  1  0.127900  0.555300  0.313100  1
  H  H89  1  0.831600  0.394900  0.641000  1
  H  H90  1  0.168400  0.605100  0.359000  1
  H  H91  1  0.856000  0.489800  0.631500  1
  H  H92  1  0.144000  0.510200  0.368500  1
  H  H93  1  0.237500  0.359500  0.585300  1
  H  H94  1  0.762500  0.640500  0.414700  1
  H  H95  1  0.195200  0.446300  0.559500  1
  H  H96  1  0.804800  0.553700  0.440500  1
  H  H97  1  0.185000  0.358400  0.532100  1
  H  H98  1  0.815000  0.641600  0.467900  1
  H  H99  1  0.029800  0.476800  0.751700  1
  H  H100  1  0.970200  0.523200  0.248300  1
  H  H101  1  0.809100  0.724500  0.710000  1
  H  H102  1  0.190900  0.275500  0.290000  1
  H  H103  1  0.755300  0.864400  0.688500  1
  H  H104  1  0.244700  0.135600  0.311500  1
  H  H105  1  0.853700  0.967300  0.670800  1
  H  H106  1  0.146300  0.032700  0.329200  1
  H  H107  1  0.903000  0.052400  0.733900  1
  H  H108  1  0.097000  0.947600  0.266100  1
  H  H109  1  0.830200  0.184800  0.756400  1
  H  H110  1  0.169800  0.815200  0.243600  1
  H  H111  1  0.869900  0.309300  0.715600  1
  H  H112  1  0.130100  0.690700  0.284400  1
  H  H113  1  0.024400  0.495700  0.590000  1
  H  H114  1  0.975600  0.504300  0.410000  1
  H  H115  1  0.325100  0.003200  0.672700  1
  H  H116  1  0.674900  0.996800  0.327300  1
  H  H117  1  0.466300  0.001200  0.633800  1
  H  H118  1  0.533700  0.998800  0.366200  1
  H  H119  1  0.492600  0.942000  0.552200  1
  H  H120  1  0.507400  0.058000  0.447800  1
  H  H121  1  0.376700  0.889000  0.506900  1
  H  H122  1  0.623300  0.111000  0.493100  1
  H  H123  1  0.234600  0.891300  0.545600  1
  H  H124  1  0.765400  0.108700  0.454400  1
  H  H125  1  0.972100  0.088000  0.558400  1
  H  H126  1  0.027900  0.912000  0.441600  1
  H  H127  1  0.944800  0.105100  0.499300  1
  H  H128  1  0.055200  0.894900  0.500700  1
  H  H129  1  0.958800  0.182800  0.535800  1
  H  H130  1  0.041200  0.817200  0.464200  1
  H  H131  1  0.267500  0.022800  0.411300  1
  H  H132  1  0.732500  0.977200  0.588700  1
  H  H133  1  0.336300  0.045400  0.454000  1
  H  H134  1  0.663700  0.954600  0.546000  1
  H  H135  1  0.300000  0.115500  0.412300  1
  H  H136  1  0.700000  0.884500  0.587700  1
  H  H137  1  0.726600  0.378500  0.894100  1
  H  H138  1  0.273400  0.621500  0.105900  1
  H  H139  1  0.700100  0.360300  0.836000  1
  H  H140  1  0.299900  0.639700  0.164000  1
  H  H141  1  0.740900  0.284400  0.872600  1
  H  H142  1  0.259100  0.715600  0.127400  1
  H  H143  1  0.367500  0.387800  0.964100  1
  H  H144  1  0.632500  0.612200  0.035900  1
  H  H145  1  0.428000  0.338200  0.007300  1
  H  H146  1  0.572000  0.661800  0.992700  1
  H  H147  1  0.366200  0.287800  0.971800  1
  H  H148  1  0.633800  0.712200  0.028200  1
  H  H149  1  0.091800  0.057700  0.440200  1
  H  H150  1  0.908200  0.942300  0.559800  1
  H  H151  1  0.376000  0.181100  0.478100  1
  H  H152  1  0.624000  0.818900  0.521900  1
  H  H153  1  0.491200  0.224900  0.528200  1
  H  H154  1  0.508800  0.775100  0.471800  1
  H  H155  1  0.475600  0.236700  0.617900  1
  H  H156  1  0.524400  0.763300  0.382100  1
  H  H157  1  0.539800  0.161800  0.678300  1
  H  H158  1  0.460200  0.838200  0.321700  1
  H  H159  1  0.679200  0.171800  0.715600  1
  H  H160  1  0.320800  0.828200  0.284400  1
  H  H161  1  0.689200  0.224400  0.799900  1
  H  H162  1  0.310800  0.775600  0.200100  1
  H  H163  1  0.586900  0.380200  0.961200  1
  H  H164  1  0.413100  0.619800  0.038800  1
  H  H165  1  0.139500  0.098800  0.792100  1
  H  H166  1  0.860500  0.901200  0.207900  1
  H  H167  1  0.014600  0.115400  0.846700  1
  H  H168  1  0.985400  0.884600  0.153300  1
  H  H169  1  0.944800  0.250300  0.862500  1
  H  H170  1  0.055200  0.749700  0.137500  1
  H  H171  1  0.999400  0.368400  0.823900  1
  H  H172  1  0.000600  0.631600  0.176100  1
  H  H173  1  0.123100  0.352400  0.767700  1
  H  H174  1  0.876900  0.647600  0.232300  1
  H  H175  1  0.439600  0.444500  0.801900  1
  H  H176  1  0.560400  0.555500  0.198100  1
  H  H177  1  0.380600  0.516800  0.770500  1
  H  H178  1  0.619400  0.483200  0.229500  1
  H  H179  1  0.380400  0.420000  0.754700  1
  H  H180  1  0.619600  0.580000  0.245300  1
  H  H181  1  0.074900  0.558500  0.882200  1
  H  H182  1  0.925100  0.441500  0.117800  1
  H  H183  1  0.107800  0.512000  0.934900  1
  H  H184  1  0.892200  0.488000  0.065100  1
  H  H185  1  0.052600  0.463800  0.894400  1
  H  H186  1  0.947400  0.536200  0.105600  1
  H  H187  1  0.065500  0.656200  0.994300  1
  H  H188  1  0.934500  0.343800  0.005700  1
  H  H189  1  0.113300  0.709900  0.035500  1
  H  H190  1  0.886700  0.290100  0.964500  1
  H  H191  1  0.127200  0.608800  0.037700  1
  H  H192  1  0.872800  0.391200  0.962300  1
  H  H193  1  0.454200  0.634900  0.903600  1
  H  H194  1  0.545800  0.365100  0.096400  1
  H  H195  1  0.403100  0.561400  0.879700  1
  H  H196  1  0.596900  0.438600  0.120300  1
  H  H197  1  0.442500  0.550600  0.936800  1
  H  H198  1  0.557500  0.449400  0.063200  1
  H  H199  1  0.226800  0.566400  0.823700  1
  H  H200  1  0.773200  0.433600  0.176300  1
  H  H201  1  0.118200  0.377000  0.964000  1
  H  H202  1  0.881800  0.623000  0.036000  1
  H  H203  1  0.100400  0.252700  0.012400  1
  H  H204  1  0.899600  0.747300  0.987600  1
  H  H205  1  0.164500  0.120400  0.983300  1
  H  H206  1  0.835500  0.879600  0.016700  1
  H  H207  1  0.086300  0.040100  0.929200  1
  H  H208  1  0.913700  0.959900  0.070800  1
  H  H209  1  0.992500  0.939900  0.960400  1
  H  H210  1  0.007500  0.060100  0.039600  1
  H  H211  1  0.048000  0.797300  0.971500  1
  H  H212  1  0.952000  0.202700  0.028500  1
  H  H213  1  0.274000  0.542700  0.984600  1
  H  H214  1  0.726000  0.457300  0.015400  1
  H  H215  1  0.413900  0.941400  0.761900  1
  H  H216  1  0.586100  0.058600  0.238100  1
  H  H217  1  0.549800  0.902300  0.717800  1
  H  H218  1  0.450200  0.097700  0.282200  1
  H  H219  1  0.681500  0.945100  0.750400  1
  H  H220  1  0.318500  0.054900  0.249600  1
  H  H221  1  0.681900  0.025600  0.824000  1
  H  H222  1  0.318100  0.974400  0.176000  1
  H  H223  1  0.548400  0.064800  0.867800  1
  H  H224  1  0.451600  0.935200  0.132200  1
  C  C225  1  0.406800  0.890400  0.010730  1
  C  C226  1  0.593200  0.109600  0.989270  1
  C  C227  1  0.706300  0.836900  0.908800  1
  C  C228  1  0.293700  0.163100  0.091200  1
  C  C229  1  0.256900  0.583700  0.481570  1
  C  C230  1  0.743100  0.416300  0.518430  1
  C  C231  1  0.957540  0.695700  0.567420  1
  C  C232  1  0.042460  0.304300  0.432580  1
  C  C233  1  0.479100  0.864800  0.971640  1
  C  C234  1  0.520900  0.135200  0.028360  1
  C  C235  1  0.571100  0.875200  0.973140  1
  C  C236  1  0.428900  0.124800  0.026860  1
  C  C237  1  0.610600  0.840200  0.928920  1
  C  C238  1  0.389400  0.159800  0.071080  1
  C  C239  1  0.540800  0.767000  0.853050  1
  C  C240  1  0.459200  0.233000  0.146950  1
  C  C241  1  0.613080  0.718100  0.831770  1
  C  C242  1  0.386920  0.281900  0.168230  1
  C  C243  1  0.599900  0.678400  0.784970  1
  C  C244  1  0.400100  0.321600  0.215030  1
  C  C245  1  0.517160  0.689200  0.760310  1
  C  C246  1  0.482840  0.310800  0.239690  1
  C  C247  1  0.447450  0.739570  0.784330  1
  C  C248  1  0.552550  0.260430  0.215670  1
  C  C249  1  0.353910  0.756740  0.765440  1
  C  C250  1  0.646090  0.243260  0.234560  1
  C  C251  1  0.210780  0.788720  0.777710  1
  C  C252  1  0.789220  0.211280  0.222290  1
  C  C253  1  0.310940  0.748710  0.718130  1
  C  C254  1  0.689060  0.251290  0.281870  1
  C  C255  1  0.338010  0.728710  0.663530  1
  C  C256  1  0.661990  0.271290  0.336470  1
  C  C257  1  0.423170  0.727000  0.640990  1
  C  C258  1  0.576830  0.273000  0.359010  1
  C  C259  1  0.434800  0.707800  0.588630  1
  C  C260  1  0.565200  0.292200  0.411370  1
  C  C261  1  0.363000  0.690700  0.558400  1
  C  C262  1  0.637000  0.309300  0.441600  1
  C  C263  1  0.279920  0.692920  0.583210  1
  C  C264  1  0.720080  0.307080  0.416790  1
  C  C265  1  0.184500  0.628300  0.514990  1
  C  C266  1  0.815500  0.371700  0.485010  1
  C  C267  1  0.093200  0.629900  0.511640  1
  C  C268  1  0.906800  0.370100  0.488360  1
  C  C269  1  0.054300  0.678200  0.553090  1
  C  C270  1  0.945700  0.321800  0.446910  1
  C  C271  1  0.121090  0.810520  0.801840  1
  C  C272  1  0.878910  0.189480  0.198160  1
  C  C273  1  0.080500  0.893200  0.800900  1
  C  C274  1  0.919500  0.106800  0.199100  1
  C  C275  1  0.992900  0.911400  0.819740  1
  C  C276  1  0.007100  0.088600  0.180260  1
  C  C277  1  0.946400  0.847400  0.839640  1
  C  C278  1  0.053600  0.152600  0.160360  1
  C  C279  1  0.985400  0.764500  0.840650  1
  C  C280  1  0.014600  0.235500  0.159350  1
  C  C281  1  0.072700  0.747200  0.821780  1
  C  C282  1  0.927300  0.252800  0.178220  1
  C  C283  1  0.189900  0.525700  0.693830  1
  C  C284  1  0.810100  0.474300  0.306170  1
  C  C285  1  0.865400  0.588300  0.763290  1
  C  C286  1  0.134600  0.411700  0.236710  1
  C  C287  1  0.873200  0.435900  0.649490  1
  C  C288  1  0.126800  0.564100  0.350510  1
  C  C289  1  0.187500  0.386300  0.565410  1
  C  C290  1  0.812500  0.613700  0.434590  1
  C  C291  1  0.097500  0.566000  0.708420  1
  C  C292  1  0.902500  0.434000  0.291580  1
  C  C293  1  0.027600  0.531800  0.736440  1
  C  C294  1  0.972400  0.468200  0.263560  1
  C  C295  1  0.955900  0.592600  0.737560  1
  C  C296  1  0.044100  0.407400  0.262440  1
  C  C297  1  0.940560  0.744700  0.700450  1
  C  C298  1  0.059440  0.255300  0.299550  1
  C  C299  1  0.848580  0.765500  0.701400  1
  C  C300  1  0.151420  0.234500  0.298600  1
  C  C301  1  0.817300  0.848900  0.689170  1
  C  C302  1  0.182700  0.151100  0.310830  1
  C  C303  1  0.875310  0.910100  0.677860  1
  C  C304  1  0.124690  0.089900  0.322140  1
  C  C305  1  0.967570  0.884000  0.677280  1
  C  C306  1  0.032430  0.116000  0.322720  1
  C  C307  1  0.039350  0.937900  0.663360  1
  C  C308  1  0.960650  0.062100  0.336640  1
  C  C309  1  0.172640  0.960220  0.634820  1
  C  C310  1  0.827360  0.039780  0.365180  1
  C  C311  1  0.048320  0.024300  0.665300  1
  C  C312  1  0.951680  0.975700  0.334700  1
  C  C313  1  0.989910  0.101100  0.681610  1
  C  C314  1  0.010090  0.898900  0.318390  1
  C  C315  1  0.920010  0.103100  0.718330  1
  C  C316  1  0.079990  0.896900  0.281670  1
  C  C317  1  0.876400  0.181900  0.731200  1
  C  C318  1  0.123600  0.818100  0.268800  1
  C  C319  1  0.900200  0.256000  0.707390  1
  C  C320  1  0.099800  0.744000  0.292610  1
  C  C321  1  0.970200  0.249800  0.670910  1
  C  C322  1  0.029800  0.750200  0.329090  1
  C  C323  1  0.967100  0.402100  0.632300  1
  C  C324  1  0.032900  0.597900  0.367700  1
  C  C325  1  0.029600  0.439100  0.602870  1
  C  C326  1  0.970400  0.560900  0.397130  1
  C  C327  1  0.102600  0.378300  0.595180  1
  C  C328  1  0.897400  0.621700  0.404820  1
  C  C329  1  0.264710  0.949480  0.612580  1
  C  C330  1  0.735290  0.050520  0.387420  1
  C  C331  1  0.334980  0.980800  0.639150  1
  C  C332  1  0.665020  0.019200  0.360850  1
  C  C333  1  0.419600  0.978800  0.616140  1
  C  C334  1  0.580400  0.021200  0.383860  1
  C  C335  1  0.435000  0.944000  0.567300  1
  C  C336  1  0.565000  0.056000  0.432700  1
  C  C337  1  0.366100  0.911900  0.540320  1
  C  C338  1  0.633900  0.088100  0.459680  1
  C  C339  1  0.281100  0.913900  0.563340  1
  C  C340  1  0.718900  0.086100  0.436660  1
  C  C341  1  0.979500  0.124100  0.527800  1
  C  C342  1  0.020500  0.875900  0.472200  1
  C  C343  1  0.284800  0.067300  0.433620  1
  C  C344  1  0.715200  0.932700  0.566380  1
  C  C345  1  0.702600  0.337700  0.871540  1
  C  C346  1  0.297400  0.662300  0.128460  1
  C  C347  1  0.403400  0.334800  0.972650  1
  C  C348  1  0.596600  0.665200  0.027350  1
  C  C349  1  0.076800  0.118300  0.512130  1
  C  C350  1  0.923200  0.881700  0.487870  1
  C  C351  1  0.119500  0.084100  0.467380  1
  C  C352  1  0.880500  0.915900  0.532620  1
  C  C353  1  0.208300  0.095600  0.469780  1
  C  C354  1  0.791700  0.904400  0.530220  1
  C  C355  1  0.293800  0.164240  0.541110  1
  C  C356  1  0.706200  0.835760  0.458890  1
  C  C357  1  0.370500  0.184900  0.514610  1
  C  C358  1  0.629500  0.815100  0.485390  1
  C  C359  1  0.438000  0.211300  0.544580  1
  C  C360  1  0.562000  0.788700  0.455420  1
  C  C361  1  0.429170  0.218100  0.598080  1
  C  C362  1  0.570830  0.781900  0.401920  1
  C  C363  1  0.350310  0.197110  0.622350  1
  C  C364  1  0.649690  0.802890  0.377650  1
  C  C365  1  0.326240  0.202380  0.678240  1
  C  C366  1  0.673760  0.797620  0.321760  1
  C  C367  1  0.229460  0.214450  0.742570  1
  C  C368  1  0.770540  0.785550  0.257430  1
  C  C369  1  0.372030  0.210750  0.724790  1
  C  C370  1  0.627970  0.789250  0.275210  1
  C  C371  1  0.467020  0.210910  0.740320  1
  C  C372  1  0.532980  0.789090  0.259680  1
  C  C373  1  0.543860  0.183700  0.712020  1
  C  C374  1  0.456140  0.816300  0.287980  1
  C  C375  1  0.626800  0.189300  0.734550  1
  C  C376  1  0.373200  0.810700  0.265450  1
  C  C377  1  0.633300  0.220500  0.784560  1
  C  C378  1  0.366700  0.779500  0.215440  1
  C  C379  1  0.554950  0.245400  0.810850  1
  C  C380  1  0.445050  0.754600  0.189150  1
  C  C381  1  0.609500  0.322200  0.890030  1
  C  C382  1  0.390500  0.677800  0.109970  1
  C  C383  1  0.564400  0.348600  0.934500  1
  C  C384  1  0.435600  0.651400  0.065500  1
  C  C385  1  0.478800  0.320100  0.933230  1
  C  C386  1  0.521200  0.679900  0.066770  1
  C  C387  1  0.144890  0.223290  0.773930  1
  C  C388  1  0.855110  0.776710  0.226070  1
  C  C389  1  0.111350  0.153800  0.798030  1
  C  C390  1  0.888650  0.846200  0.201970  1
  C  C391  1  0.036700  0.163600  0.830910  1
  C  C392  1  0.963300  0.836400  0.169090  1
  C  C393  1  0.995200  0.243700  0.840250  1
  C  C394  1  0.004800  0.756300  0.159750  1
  C  C395  1  0.027400  0.313600  0.817190  1
  C  C396  1  0.972600  0.686400  0.182810  1
  C  C397  1  0.101880  0.303900  0.783720  1
  C  C398  1  0.898120  0.696100  0.216280  1
  C  C399  1  0.383600  0.458400  0.783680  1
  C  C400  1  0.616400  0.541600  0.216320  1
  C  C401  1  0.096900  0.504200  0.898100  1
  C  C402  1  0.903100  0.495800  0.101900  1
  C  C403  1  0.119100  0.658600  0.014740  1
  C  C404  1  0.880900  0.341400  0.985260  1
  C  C405  1  0.414600  0.591100  0.911410  1
  C  C406  1  0.585400  0.408900  0.088590  1
  C  C407  1  0.306200  0.448800  0.820950  1
  C  C408  1  0.693800  0.551200  0.179050  1
  C  C409  1  0.236000  0.509500  0.835820  1
  C  C410  1  0.764000  0.490500  0.164180  1
  C  C411  1  0.183100  0.470300  0.871290  1
  C  C412  1  0.816900  0.529700  0.128710  1
  C  C413  1  0.201480  0.317100  0.909290  1
  C  C414  1  0.798520  0.682900  0.090710  1
  C  C415  1  0.146440  0.324000  0.953580  1
  C  C416  1  0.853560  0.676000  0.046420  1
  C  C417  1  0.135000  0.249800  0.981560  1
  C  C418  1  0.865000  0.750200  0.018440  1
  C  C419  1  0.174000  0.170800  0.964760  1
  C  C420  1  0.826000  0.829200  0.035240  1
  C  C421  1  0.227460  0.168530  0.919800  1
  C  C422  1  0.772540  0.831470  0.080200  1
  C  C423  1  0.276220  0.092580  0.896450  1
  C  C424  1  0.723780  0.907420  0.103550  1
  C  C425  1  0.382940  0.026330  0.850660  1
  C  C426  1  0.617060  0.973670  0.149340  1
  C  C427  1  0.263220  0.006710  0.895770  1
  C  C428  1  0.736780  0.993290  0.104230  1
  C  C429  1  0.195560  0.954130  0.918880  1
  C  C430  1  0.804440  0.045870  0.081120  1
  C  C431  1  0.107720  0.982100  0.932660  1
  C  C432  1  0.892280  0.017900  0.067340  1
  C  C433  1  0.052420  0.922400  0.951720  1
  C  C434  1  0.947580  0.077600  0.048280  1
  C  C435  1  0.084690  0.837800  0.957930  1
  C  C436  1  0.915310  0.162200  0.042070  1
  C  C437  1  0.173730  0.813900  0.943490  1
  C  C438  1  0.826270  0.186100  0.056510  1
  C  C439  1  0.199000  0.660100  0.978650  1
  C  C440  1  0.801000  0.339900  0.021350  1
  C  C441  1  0.267700  0.597900  0.969610  1
  C  C442  1  0.732300  0.402100  0.030390  1
  C  C443  1  0.326970  0.632100  0.933640  1
  C  C444  1  0.673030  0.367900  0.066360  1
  C  C445  1  0.467130  0.006460  0.819570  1
  C  C446  1  0.532870  0.993540  0.180430  1
  C  C447  1  0.467700  0.958300  0.774620  1
  C  C448  1  0.532300  0.041700  0.225380  1
  C  C449  1  0.548700  0.934900  0.748170  1
  C  C450  1  0.451300  0.065100  0.251830  1
  C  C451  1  0.627100  0.960900  0.767900  1
  C  C452  1  0.372900  0.039100  0.232100  1
  C  C453  1  0.627800  0.008600  0.811600  1
  C  C454  1  0.372200  0.991400  0.188400  1
  C  C455  1  0.548300  0.031700  0.837610  1
  C  C456  1  0.451700  0.968300  0.162390  1
  N  N457  1  0.460300  0.825610  0.927810  1
  N  N458  1  0.539700  0.174390  0.072190  1
  N  N459  1  0.541670  0.809160  0.901530  1
  N  N460  1  0.458330  0.190840  0.098470  1
  N  N461  1  0.458990  0.776690  0.831040  1
  N  N462  1  0.541010  0.223310  0.168960  1
  N  N463  1  0.289820  0.783930  0.803090  1
  N  N464  1  0.710180  0.216070  0.196910  1
  N  N465  1  0.219540  0.768540  0.726910  1
  N  N466  1  0.780460  0.231460  0.273090  1
  N  N467  1  0.266850  0.712710  0.633710  1
  N  N468  1  0.733150  0.287290  0.366290  1
  N  N469  1  0.198820  0.677270  0.557890  1
  N  N470  1  0.801180  0.322730  0.442110  1
  N  N471  1  0.118420  0.707290  0.582130  1
  N  N472  1  0.881580  0.292710  0.417870  1
  N  N473  1  0.071300  0.645410  0.692880  1
  N  N474  1  0.928700  0.354590  0.307120  1
  N  N475  1  0.983610  0.661910  0.710470  1
  N  N476  1  0.016390  0.338090  0.289530  1
  N  N477  1  0.998630  0.801930  0.687110  1
  N  N478  1  0.001370  0.198070  0.312890  1
  N  N479  1  0.119790  0.896150  0.644340  1
  N  N480  1  0.880210  0.103850  0.355660  1
  N  N481  1  0.132980  0.038570  0.646670  1
  N  N482  1  0.867020  0.961430  0.353330  1
  N  N483  1  0.015350  0.174390  0.659700  1
  N  N484  1  0.984650  0.825610  0.340300  1
  N  N485  1  0.003670  0.319530  0.643640  1
  N  N486  1  0.996330  0.680470  0.356360  1
  N  N487  1  0.087630  0.304880  0.619810  1
  N  N488  1  0.912370  0.695120  0.380190  1
  N  N489  1  0.135810  0.150650  0.542910  1
  N  N490  1  0.864190  0.849350  0.457090  1
  N  N491  1  0.217340  0.137790  0.515980  1
  N  N492  1  0.782660  0.862210  0.484020  1
  N  N493  1  0.282450  0.171740  0.592810  1
  N  N494  1  0.717550  0.828260  0.407190  1
  N  N495  1  0.235010  0.202910  0.690780  1
  N  N496  1  0.764990  0.797090  0.309220  1
  N  N497  1  0.309180  0.219390  0.765110  1
  N  N498  1  0.690820  0.780610  0.234890  1
  N  N499  1  0.473680  0.240460  0.790260  1
  N  N500  1  0.526320  0.759540  0.209740  1
  N  N501  1  0.550220  0.278110  0.862590  1
  N  N502  1  0.449780  0.721890  0.137410  1
  N  N503  1  0.469020  0.277150  0.889340  1
  N  N504  1  0.530980  0.722850  0.110660  1
  N  N505  1  0.299340  0.374650  0.846190  1
  N  N506  1  0.700660  0.625350  0.153810  1
  N  N507  1  0.223540  0.387980  0.877860  1
  N  N508  1  0.776460  0.612020  0.122140  1
  N  N509  1  0.242240  0.242490  0.893490  1
  N  N510  1  0.757760  0.757510  0.106510  1
  N  N511  1  0.352650  0.105390  0.866910  1
  N  N512  1  0.647350  0.894610  0.133090  1
  N  N513  1  0.331850  0.963900  0.866950  1
  N  N514  1  0.668150  0.036100  0.133050  1
  N  N515  1  0.226550  0.870190  0.922870  1
  N  N516  1  0.773450  0.129810  0.077130  1
  N  N517  1  0.216970  0.729500  0.947450  1
  N  N518  1  0.783030  0.270500  0.052550  1
  N  N519  1  0.297560  0.711880  0.919930  1
  N  N520  1  0.702440  0.288120  0.080070  1
  F  F521  1  0.794900  0.021000  0.932600  1
  F  F522  1  0.205100  0.979000  0.067400  1
  F  F523  1  0.916400  0.089200  0.921110  1
  F  F524  1  0.083600  0.910800  0.078890  1
  F  F525  1  0.822300  0.090500  0.855300  1
  F  F526  1  0.177700  0.909500  0.144700  1
  F  F527  1  0.780900  0.155000  0.929000  1
  F  F528  1  0.219100  0.845000  0.071000  1
  F  F529  1  0.701700  0.132800  0.619100  1
  F  F530  1  0.298300  0.867200  0.380900  1
  F  F531  1  0.763000  0.254200  0.619500  1
  F  F532  1  0.237000  0.745800  0.380500  1
  F  F533  1  0.636800  0.249900  0.578900  1
  F  F534  1  0.363200  0.750100  0.421100  1
  F  F535  1  0.765800  0.183700  0.550900  1
  F  F536  1  0.234200  0.816300  0.449100  1
  F  F537  1  0.666200  0.733300  0.608000  1
  F  F538  1  0.333800  0.266700  0.392000  1
  F  F539  1  0.639800  0.620200  0.573700  1
  F  F540  1  0.360200  0.379800  0.426300  1
  F  F541  1  0.772900  0.625600  0.611100  1
  F  F542  1  0.227100  0.374400  0.388900  1
  F  F543  1  0.656800  0.629400  0.661400  1
  F  F544  1  0.343200  0.370600  0.338600  1
  F  F545  1  0.765400  0.564800  0.948600  1
  F  F546  1  0.234600  0.435200  0.051400  1
  F  F547  1  0.849900  0.502200  0.884700  1
  F  F548  1  0.150100  0.497800  0.115300  1
  F  F549  1  0.815800  0.644300  0.886190  1
  F  F550  1  0.184200  0.355700  0.113810  1
  F  F551  1  0.910200  0.579700  0.943800  1
  F  F552  1  0.089800  0.420300  0.056200  1
  F  F553  1  0.831900  0.005900  0.930600  1
  F  F554  1  0.168100  0.994100  0.069400  1
  F  F555  1  0.861200  0.141500  0.921900  1
  F  F556  1  0.138800  0.858500  0.078100  1
  F  F557  1  0.837800  0.056000  0.853500  1
  F  F558  1  0.162200  0.944000  0.146500  1
  F  F559  1  0.728100  0.105600  0.900200  1
  F  F560  1  0.271900  0.894400  0.099800  1
  F  F561  1  0.775200  0.126100  0.619700  1
  F  F562  1  0.224800  0.873900  0.380300  1
  F  F563  1  0.709800  0.259200  0.622100  1
  F  F564  1  0.290200  0.740800  0.377900  1
  F  F565  1  0.642100  0.156300  0.594600  1
  F  F566  1  0.357900  0.843700  0.405400  1
  F  F567  1  0.740800  0.196500  0.541800  1
  F  F568  1  0.259200  0.803500  0.458200  1
  F  F569  1  0.645400  0.726300  0.635400  1
  F  F570  1  0.354600  0.273700  0.364600  1
  F  F571  1  0.646100  0.604800  0.591300  1
  F  F572  1  0.353900  0.395200  0.408700  1
  F  F573  1  0.749600  0.697200  0.579700  1
  F  F574  1  0.250400  0.302800  0.420300  1
  F  F575  1  0.736300  0.617600  0.650600  1
  F  F576  1  0.263700  0.382400  0.349400  1
  F  F577  1  0.825300  0.543000  0.963400  1
  F  F578  1  0.174700  0.457000  0.036600  1
  F  F579  1  0.876600  0.502600  0.882000  1
  F  F580  1  0.123400  0.497400  0.118000  1
  F  F581  1  0.754000  0.582000  0.893400  1
  F  F582  1  0.246000  0.418000  0.106600  1
  F  F583  1  0.880900  0.632200  0.908800  1
  F  F584  1  0.119100  0.367800  0.091200  1
