# generated using pymatgen
data_Fe4B6H128C126N38O13F36
_symmetry_space_group_name_H-M   'P 1'
_cell_length_a   17.90928800
_cell_length_b   17.90928800
_cell_length_c   25.82741610
_cell_angle_alpha   101.50660874
_cell_angle_beta   102.64829646
_cell_angle_gamma   113.36254393
_symmetry_Int_Tables_number   1
_chemical_formula_structural   Fe4B6H128C126N38O13F36
_chemical_formula_sum   'Fe8 B12 H256 C252 N76 O26 F72'
_cell_volume   7030.96830356
_cell_formula_units_Z   2
loop_
 _symmetry_equiv_pos_site_id
 _symmetry_equiv_pos_as_xyz
  1  'x, y, z'
loop_
 _atom_site_type_symbol
 _atom_site_label
 _atom_site_symmetry_multiplicity
 _atom_site_fract_x
 _atom_site_fract_y
 _atom_site_fract_z
 _atom_site_occupancy
  B  B1  1  0.358720  0.416310  0.125430  1
  B  B2  1  0.790880  0.233290  0.374570  1
  B  B3  1  0.641280  0.583690  0.874570  1
  B  B4  1  0.209120  0.766710  0.625430  1
  B  B5  1  0.392090  0.782510  0.023000  1
  B  B6  1  0.259510  0.369090  0.477000  1
  B  B7  1  0.607910  0.217490  0.977000  1
  B  B8  1  0.740490  0.630910  0.523000  1
  B  B9  1  0.760180  0.913140  0.438920  1
  B  B10  1  0.974220  0.321260  0.061080  1
  B  B11  1  0.239820  0.086860  0.561080  1
  B  B12  1  0.025780  0.678740  0.938920  1
  C  C13  1  0.440400  0.625300  0.083100  1
  C  C14  1  0.042200  0.357300  0.416900  1
  C  C15  1  0.559600  0.374700  0.916900  1
  C  C16  1  0.957800  0.642700  0.583100  1
  C  C17  1  0.651100  0.989200  0.328100  1
  C  C18  1  0.161100  0.323000  0.171900  1
  C  C19  1  0.348900  0.010800  0.671900  1
  C  C20  1  0.838900  0.677000  0.828100  1
  C  C21  1  0.453500  0.564500  0.467600  1
  C  C22  1  0.596900  0.985900  0.032400  1
  C  C23  1  0.546500  0.435500  0.532400  1
  C  C24  1  0.403100  0.014100  0.967600  1
  C  C25  1  0.592800  0.357900  0.303900  1.0
  C  C26  1  0.554000  0.288900  0.196100  1.0
  C  C27  1  0.407200  0.642100  0.696100  1.0
  C  C28  1  0.446000  0.711100  0.803900  1.0
  C  C29  1  0.618800  0.434600  0.347400  1.0
  C  C30  1  0.587200  0.271400  0.152600  1.0
  C  C31  1  0.381200  0.565400  0.652600  1.0
  C  C32  1  0.412800  0.728600  0.847400  1.0
  C  C33  1  0.485480  0.111110  0.292950  1.0
  C  C34  1  0.318160  0.192530  0.207050  1.0
  C  C35  1  0.514520  0.888890  0.707050  1.0
  C  C36  1  0.681840  0.807470  0.792950  1.0
  C  C37  1  0.544570  0.106460  0.266870  1.0
  C  C38  1  0.339590  0.277700  0.233130  1.0
  C  C39  1  0.455430  0.893540  0.733130  1.0
  C  C40  1  0.660410  0.722300  0.766870  1.0
  C  C41  1  0.499730  0.054030  0.213300  1.0
  C  C42  1  0.340730  0.286430  0.286700  1.0
  C  C43  1  0.500270  0.945970  0.786700  1.0
  C  C44  1  0.659270  0.713570  0.713300  1.0
  C  C45  1  0.336830  0.976130  0.161400  1.0
  C  C46  1  0.314730  0.175430  0.338600  1.0
  C  C47  1  0.663170  0.023870  0.838600  1.0
  C  C48  1  0.685270  0.824570  0.661400  1.0
  C  C49  1  0.328910  0.928990  0.109320  1.0
  C  C50  1  0.319670  0.219590  0.390680  1.0
  C  C51  1  0.671090  0.071010  0.890680  1.0
  C  C52  1  0.680330  0.780410  0.609320  1.0
  C  C53  1  0.247160  0.882180  0.070920  1.0
  C  C54  1  0.311260  0.176240  0.429080  1.0
  C  C55  1  0.752840  0.117820  0.929080  1.0
  C  C56  1  0.688740  0.823760  0.570920  1.0
  C  C57  1  0.175840  0.883530  0.083490  1.0
  C  C58  1  0.300040  0.092350  0.416510  1.0
  C  C59  1  0.824160  0.116470  0.916510  1.0
  C  C60  1  0.699960  0.907650  0.583490  1.0
  C  C61  1  0.189030  0.934220  0.136030  1.0
  C  C62  1  0.298190  0.053000  0.363970  1.0
  C  C63  1  0.810970  0.065780  0.863970  1.0
  C  C64  1  0.701810  0.947000  0.636030  1.0
  C  C65  1  0.127450  0.947710  0.160480  1.0
  C  C66  1  0.287230  0.966970  0.339520  1.0
  C  C67  1  0.872550  0.052290  0.839520  1.0
  C  C68  1  0.712770  0.033030  0.660480  1.0
  C  C69  1  0.093870  0.995660  0.232710  1.0
  C  C70  1  0.262950  0.861160  0.267290  1.0
  C  C71  1  0.906130  0.004340  0.767290  1.0
  C  C72  1  0.737050  0.138840  0.732710  1.0
  C  C73  1  0.041830  0.928830  0.142360  1.0
  C  C74  1  0.286470  0.899470  0.357640  1.0
  C  C75  1  0.958170  0.071170  0.857640  1.0
  C  C76  1  0.713530  0.100530  0.642360  1.0
  C  C77  1  0.969960  0.887050  0.089290  1.0
  C  C78  1  0.297760  0.880670  0.410710  1.0
  C  C79  1  0.030040  0.112950  0.910710  1.0
  C  C80  1  0.702240  0.119330  0.589290  1.0
  C  C81  1  0.971160  0.862970  0.035130  1.0
  C  C82  1  0.327840  0.936030  0.464870  1.0
  C  C83  1  0.028840  0.137030  0.964870  1.0
  C  C84  1  0.672160  0.063970  0.535130  1.0
  C  C85  1  0.894550  0.825320  0.991070  1.0
  C  C86  1  0.334250  0.903480  0.508930  1.0
  C  C87  1  0.105450  0.174680  0.008930  1.0
  C  C88  1  0.665750  0.096520  0.491070  1.0
  C  C89  1  0.817860  0.813560  0.000640  1.0
  C  C90  1  0.312920  0.817220  0.499360  1.0
  C  C91  1  0.182140  0.186440  0.999360  1.0
  C  C92  1  0.687080  0.182780  0.500640  1.0
  C  C93  1  0.822070  0.842230  0.055260  1.0
  C  C94  1  0.286970  0.766810  0.444740  1.0
  C  C95  1  0.177930  0.157770  0.944740  1.0
  C  C96  1  0.713030  0.233190  0.555260  1.0
  C  C97  1  0.666530  0.811140  0.044650  1.0
  C  C98  1  0.266490  0.621880  0.455350  1.0
  C  C99  1  0.333470  0.188860  0.955350  1.0
  C  C100  1  0.733510  0.378120  0.544650  1.0
  C  C101  1  0.632160  0.829110  0.084830  1.0
  C  C102  1  0.244280  0.547330  0.415170  1.0
  C  C103  1  0.367840  0.170890  0.915170  1.0
  C  C104  1  0.755720  0.452670  0.584830  1.0
  C  C105  1  0.698690  0.869870  0.136840  1.0
  C  C106  1  0.233030  0.561850  0.363160  1.0
  C  C107  1  0.301310  0.130130  0.863160  1.0
  C  C108  1  0.766970  0.438150  0.636840  1.0
  C  C109  1  0.097920  0.033990  0.289910  1.0
  C  C110  1  0.244080  0.808010  0.210090  1.0
  C  C111  1  0.902080  0.966010  0.710090  1.0
  C  C112  1  0.755920  0.191990  0.789910  1.0
  C  C113  1  0.090240  0.983150  0.326390  1.0
  C  C114  1  0.156760  0.763850  0.173610  1.0
  C  C115  1  0.909760  0.016850  0.673610  1.0
  C  C116  1  0.843240  0.236150  0.826390  1.0
  C  C117  1  0.087330  0.010940  0.378670  1.0
  C  C118  1  0.132270  0.708660  0.121330  1.0
  C  C119  1  0.912670  0.989060  0.621330  1.0
  C  C120  1  0.867730  0.291340  0.878670  1.0
  C  C121  1  0.092540  0.089160  0.394700  1.0
  C  C122  1  0.194460  0.697840  0.105300  1.0
  C  C123  1  0.907460  0.910840  0.605300  1.0
  C  C124  1  0.805540  0.302160  0.894700  1.0
  C  C125  1  0.101280  0.143720  0.364400  1.0
  C  C126  1  0.279320  0.736880  0.135600  1.0
  C  C127  1  0.898720  0.856280  0.635600  1.0
  C  C128  1  0.720680  0.263120  0.864400  1.0
  C  C129  1  0.103110  0.113390  0.307300  1.0
  C  C130  1  0.306090  0.795810  0.192700  1.0
  C  C131  1  0.896890  0.886610  0.692700  1.0
  C  C132  1  0.693910  0.204190  0.807300  1.0
  C  C133  1  0.504380  0.159040  0.353420  1.0
  C  C134  1  0.305620  0.150960  0.146580  1.0
  C  C135  1  0.495620  0.840960  0.646580  1.0
  C  C136  1  0.694380  0.849040  0.853420  1.0
  C  C137  1  0.530920  0.026120  0.167840  1.0
  C  C138  1  0.358280  0.363080  0.332160  1.0
  C  C139  1  0.469080  0.973880  0.832160  1.0
  C  C140  1  0.641720  0.636920  0.667840  1.0
  C  C141  1  0.624010  0.767650  0.983420  1.0
  C  C142  1  0.284230  0.640590  0.516580  1.0
  C  C143  1  0.375990  0.232350  0.016580  1.0
  C  C144  1  0.715770  0.359410  0.483420  1.0
  C  C145  1  0.690250  0.901650  0.192500  1.0
  C  C146  1  0.209150  0.497750  0.307500  1.0
  C  C147  1  0.309750  0.098350  0.807500  1.0
  C  C148  1  0.790850  0.502250  0.692500  1.0
  C  C149  1  0.928340  0.086850  0.130950  1.0
  C  C150  1  0.455900  0.797390  0.369050  1.0
  C  C151  1  0.071660  0.913150  0.869050  1.0
  C  C152  1  0.544100  0.202610  0.630950  1.0
  C  C153  1  0.941180  0.170400  0.156980  1.0
  C  C154  1  0.513420  0.784200  0.343020  1.0
  C  C155  1  0.058820  0.829600  0.843020  1.0
  C  C156  1  0.486580  0.215800  0.656980  1.0
  C  C157  1  0.932520  0.173080  0.208580  1.0
  C  C158  1  0.464500  0.723940  0.291420  1.0
  C  C159  1  0.067480  0.826920  0.791420  1.0
  C  C160  1  0.535500  0.276060  0.708580  1.0
  C  C161  1  0.898660  0.056450  0.254730  1.0
  C  C162  1  0.301720  0.643930  0.245270  1.0
  C  C163  1  0.101340  0.943550  0.745270  1.0
  C  C164  1  0.698280  0.356070  0.754730  1.0
  C  C165  1  0.883140  0.091940  0.301700  1.0
  C  C166  1  0.290240  0.581440  0.198300  1.0
  C  C167  1  0.116860  0.908060  0.698300  1.0
  C  C168  1  0.709760  0.418560  0.801700  1.0
  C  C169  1  0.865770  0.044580  0.337490  1.0
  C  C170  1  0.207090  0.528280  0.162510  1.0
  C  C171  1  0.134230  0.955420  0.662510  1.0
  C  C172  1  0.792910  0.471720  0.837490  1.0
  C  C173  1  0.865670  0.965770  0.327160  1.0
  C  C174  1  0.138610  0.538510  0.172840  1.0
  C  C175  1  0.134330  0.034230  0.672840  1.0
  C  C176  1  0.861390  0.461490  0.827160  1.0
  C  C177  1  0.882090  0.933750  0.280020  1.0
  C  C178  1  0.153730  0.602070  0.219980  1.0
  C  C179  1  0.117910  0.066250  0.719980  1.0
  C  C180  1  0.846270  0.397930  0.780020  1.0
  C  C181  1  0.882410  0.851990  0.258900  1.0
  C  C182  1  0.093090  0.623510  0.241100  1.0
  C  C183  1  0.117590  0.148010  0.741100  1.0
  C  C184  1  0.906910  0.376490  0.758900  1.0
  C  C185  1  0.875650  0.753070  0.189720  1.0
  C  C186  1  0.063350  0.685930  0.310280  1.0
  C  C187  1  0.124350  0.246930  0.810280  1.0
  C  C188  1  0.936650  0.314070  0.689720  1.0
  C  C189  1  0.883690  0.785620  0.278250  1.0
  C  C190  1  0.007370  0.605440  0.221750  1.0
  C  C191  1  0.116310  0.214380  0.721750  1.0
  C  C192  1  0.992630  0.394560  0.778250  1.0
  C  C193  1  0.882380  0.762320  0.328960  1.0
  C  C194  1  0.933360  0.553420  0.171040  1.0
  C  C195  1  0.117620  0.237680  0.671040  1.0
  C  C196  1  0.066640  0.446580  0.828960  1.0
  C  C197  1  0.885810  0.807750  0.380360  1.0
  C  C198  1  0.927390  0.505450  0.119640  1.0
  C  C199  1  0.114190  0.192250  0.619640  1.0
  C  C200  1  0.072610  0.494550  0.880360  1.0
  C  C201  1  0.876350  0.768040  0.420990  1.0
  C  C202  1  0.847050  0.455360  0.079010  1.0
  C  C203  1  0.123650  0.231960  0.579010  1.0
  C  C204  1  0.152950  0.544640  0.920990  1.0
  C  C205  1  0.866560  0.685620  0.411780  1.0
  C  C206  1  0.773840  0.454780  0.088220  1.0
  C  C207  1  0.133440  0.314380  0.588220  1.0
  C  C208  1  0.226160  0.545220  0.911780  1.0
  C  C209  1  0.868320  0.645430  0.360670  1.0
  C  C210  1  0.784760  0.507650  0.139330  1.0
  C  C211  1  0.131680  0.354570  0.639330  1.0
  C  C212  1  0.215240  0.492350  0.860670  1.0
  C  C213  1  0.856720  0.502300  0.369420  1.0
  C  C214  1  0.632880  0.487300  0.130580  1.0
  C  C215  1  0.143280  0.497700  0.630580  1.0
  C  C216  1  0.367120  0.512700  0.869420  1.0
  C  C217  1  0.846460  0.432540  0.329400  1.0
  C  C218  1  0.603140  0.517060  0.170600  1.0
  C  C219  1  0.153540  0.567460  0.670600  1.0
  C  C220  1  0.396860  0.482940  0.829400  1.0
  C  C221  1  0.844300  0.451860  0.279160  1.0
  C  C222  1  0.672700  0.565140  0.220840  1.0
  C  C223  1  0.155700  0.548140  0.720840  1.0
  C  C224  1  0.327300  0.434860  0.779160  1.0
  C  C225  1  0.855650  0.704150  0.130980  1.0
  C  C226  1  0.073170  0.724670  0.369020  1.0
  C  C227  1  0.144350  0.295850  0.869020  1.0
  C  C228  1  0.926830  0.275330  0.630980  1.0
  C  C229  1  0.916350  0.694730  0.109480  1.0
  C  C230  1  0.085250  0.806870  0.390520  1.0
  C  C231  1  0.083650  0.305270  0.890520  1.0
  C  C232  1  0.914750  0.193130  0.609480  1.0
  C  C233  1  0.889120  0.650180  0.049900  1.0
  C  C234  1  0.100280  0.839220  0.450100  1.0
  C  C235  1  0.110880  0.349820  0.950100  1.0
  C  C236  1  0.899720  0.160780  0.549900  1.0
  C  C237  1  0.805200  0.617300  0.018500  1.0
  C  C238  1  0.098800  0.786700  0.481500  1.0
  C  C239  1  0.194800  0.382700  0.981500  1.0
  C  C240  1  0.901200  0.213300  0.518500  1.0
  C  C241  1  0.744450  0.625180  0.039230  1.0
  C  C242  1  0.085950  0.705220  0.460770  1.0
  C  C243  1  0.255550  0.374820  0.960770  1.0
  C  C244  1  0.914050  0.294780  0.539230  1.0
  C  C245  1  0.769460  0.668510  0.095170  1.0
  C  C246  1  0.073340  0.674290  0.404830  1.0
  C  C247  1  0.230540  0.331490  0.904830  1.0
  C  C248  1  0.926660  0.325710  0.595170  1.0
  C  C249  1  0.933880  0.055270  0.074250  1.0
  C  C250  1  0.481020  0.859630  0.425750  1.0
  C  C251  1  0.066120  0.944730  0.925750  1.0
  C  C252  1  0.518980  0.140370  0.574250  1.0
  C  C253  1  0.943900  0.246350  0.253450  1.0
  C  C254  1  0.492900  0.690450  0.246550  1.0
  C  C255  1  0.056100  0.753650  0.746550  1.0
  C  C256  1  0.507100  0.309550  0.753450  1.0
  C  C257  1  0.866880  0.515820  0.429300  1.0
  C  C258  1  0.586520  0.437580  0.070700  1.0
  C  C259  1  0.133120  0.484180  0.570700  1.0
  C  C260  1  0.413480  0.562420  0.929300  1.0
  C  C261  1  0.836730  0.397070  0.225600  1.0
  C  C262  1  0.671470  0.611130  0.274400  1.0
  C  C263  1  0.163270  0.602930  0.774400  1.0
  C  C264  1  0.328530  0.388870  0.725600  1.0
  F  F265  1  0.404310  0.434400  0.088330  1
  F  F266  1  0.846070  0.315980  0.411670  1
  F  F267  1  0.595690  0.565600  0.911670  1
  F  F268  1  0.153930  0.684020  0.588330  1
  F  F269  1  0.319200  0.330800  0.117600  1
  F  F270  1  0.713200  0.201600  0.382400  1
  F  F271  1  0.680800  0.669200  0.882400  1
  F  F272  1  0.286800  0.798400  0.617600  1
  F  F273  1  0.298800  0.444700  0.111700  1
  F  F274  1  0.833000  0.187100  0.388300  1
  F  F275  1  0.701200  0.555300  0.888300  1
  F  F276  1  0.167000  0.812900  0.611700  1
  F  F277  1  0.402000  0.455600  0.182000  1
  F  F278  1  0.773600  0.220000  0.318000  1
  F  F279  1  0.598000  0.544400  0.818000  1
  F  F280  1  0.226400  0.780000  0.682000  1
  F  F281  1  0.440710  0.813480  0.079870  1
  F  F282  1  0.233610  0.360840  0.420130  1
  F  F283  1  0.559290  0.186520  0.920130  1
  F  F284  1  0.766390  0.639160  0.579870  1
  F  F285  1  0.432870  0.756620  0.990930  1
  F  F286  1  0.265690  0.441940  0.509070  1
  F  F287  1  0.567130  0.243380  0.009070  1
  F  F288  1  0.734310  0.558060  0.490930  1
  F  F289  1  0.312870  0.719040  0.013650  1
  F  F290  1  0.205390  0.299220  0.486350  1
  F  F291  1  0.687130  0.280960  0.986350  1
  F  F292  1  0.794610  0.700780  0.513650  1
  F  F293  1  0.382440  0.851100  0.011700  1
  F  F294  1  0.339400  0.370740  0.488300  1
  F  F295  1  0.617560  0.148900  0.988300  1
  F  F296  1  0.660600  0.629260  0.511700  1
  F  F297  1  0.728480  0.855450  0.385490  1
  F  F298  1  0.969960  0.342990  0.114510  1
  F  F299  1  0.271520  0.144550  0.614510  1
  F  F300  1  0.030040  0.657010  0.885490  1
  F  F301  1  0.703800  0.937200  0.452600  1
  F  F302  1  0.984600  0.251200  0.047400  1
  F  F303  1  0.296200  0.062800  0.547400  1
  F  F304  1  0.015400  0.748800  0.952600  1
  F  F305  1  0.834700  0.978200  0.443500  1
  F  F306  1  0.034700  0.391200  0.056500  1
  F  F307  1  0.165300  0.021800  0.556500  1
  F  F308  1  0.965300  0.608800  0.943500  1
  F  F309  1  0.780300  0.869200  0.475700  1
  F  F310  1  0.893500  0.304600  0.024300  1
  F  F311  1  0.219700  0.130800  0.524300  1
  F  F312  1  0.106500  0.695400  0.975700  1
  F  F313  1  0.371900  0.345900  0.126400  1
  F  F314  1  0.719500  0.245500  0.373600  1
  F  F315  1  0.628100  0.654100  0.873600  1
  F  F316  1  0.280500  0.754500  0.626400  1
  F  F317  1  0.272100  0.392500  0.106400  1
  F  F318  1  0.786100  0.165700  0.393600  1
  F  F319  1  0.727900  0.607500  0.893600  1
  F  F320  1  0.213900  0.834300  0.606400  1
  F  F321  1  0.410900  0.480700  0.174000  1
  F  F322  1  0.806700  0.236900  0.326000  1
  F  F323  1  0.589100  0.519300  0.826000  1
  F  F324  1  0.193300  0.763100  0.674000  1
  F  F325  1  0.695600  0.895400  0.462600  1
  F  F326  1  0.932800  0.233000  0.037400  1
  F  F327  1  0.304400  0.104600  0.537400  1
  F  F328  1  0.067200  0.767000  0.962600  1
  F  F329  1  0.777500  0.995100  0.432600  1
  F  F330  1  0.062500  0.344900  0.067400  1
  F  F331  1  0.222500  0.004900  0.567400  1
  F  F332  1  0.937500  0.655100  0.932600  1
  F  F333  1  0.833000  0.924200  0.471800  1
  F  F334  1  0.952400  0.361200  0.028200  1
  F  F335  1  0.167000  0.075800  0.528200  1
  F  F336  1  0.047600  0.638800  0.971800  1
  Fe  Fe337  1  0.284970  0.034970  0.250000  1
  Fe  Fe338  1  0.715030  0.965030  0.750000  1
  Fe  Fe339  1  0.868620  0.618620  0.250000  1
  Fe  Fe340  1  0.131380  0.381380  0.750000  1
  Fe  Fe341  1  0.897110  0.926760  0.171750  1.0
  Fe  Fe342  1  0.255010  0.725360  0.328250  1.0
  Fe  Fe343  1  0.102890  0.073240  0.828250  1.0
  Fe  Fe344  1  0.744990  0.274640  0.671750  1.0
  H  H345  1  0.401200  0.566800  0.080400  1
  H  H346  1  0.986400  0.320800  0.419600  1
  H  H347  1  0.598800  0.433200  0.919600  1
  H  H348  1  0.013600  0.679200  0.580400  1
  H  H349  1  0.423500  0.634900  0.047200  1
  H  H350  1  0.087700  0.376300  0.452800  1
  H  H351  1  0.576500  0.365100  0.952800  1
  H  H352  1  0.912300  0.623700  0.547200  1
  H  H353  1  0.437000  0.666600  0.112600  1
  H  H354  1  0.054000  0.324400  0.387400  1
  H  H355  1  0.563000  0.333400  0.887400  1
  H  H356  1  0.946000  0.675600  0.612600  1
  H  H357  1  0.671900  0.038200  0.361700  1
  H  H358  1  0.176500  0.310200  0.138300  1
  H  H359  1  0.328100  0.961800  0.638300  1
  H  H360  1  0.823500  0.689800  0.861700  1
  H  H361  1  0.676600  0.008700  0.300300  1
  H  H362  1  0.208400  0.376300  0.199700  1
  H  H363  1  0.323400  0.991300  0.699700  1
  H  H364  1  0.791600  0.623700  0.800300  1
  H  H365  1  0.667700  0.946600  0.337900  1
  H  H366  1  0.108700  0.329800  0.162100  1
  H  H367  1  0.332300  0.053400  0.662100  1
  H  H368  1  0.891300  0.670200  0.837900  1
  H  H369  1  0.437600  0.567900  0.429700  1
  H  H370  1  0.638200  0.007900  0.070300  1
  H  H371  1  0.562400  0.432100  0.570300  1
  H  H372  1  0.361800  0.992100  0.929700  1
  H  H373  1  0.405300  0.517300  0.471400  1
  H  H374  1  0.545900  0.933900  0.028600  1
  H  H375  1  0.594700  0.482700  0.528600  1
  H  H376  1  0.454100  0.066100  0.971400  1
  H  H377  1  0.504100  0.554200  0.474500  1
  H  H378  1  0.579700  0.029600  0.025500  1
  H  H379  1  0.495900  0.445800  0.525500  1
  H  H380  1  0.420300  0.970400  0.974500  1
  H  H381  1  0.529900  0.323400  0.294900  1.0
  H  H382  1  0.528500  0.235000  0.205100  1.0
  H  H383  1  0.470100  0.676600  0.705100  1.0
  H  H384  1  0.471500  0.765000  0.794900  1.0
  H  H385  1  0.620300  0.325800  0.320100  1.0
  H  H386  1  0.505700  0.300200  0.179900  1.0
  H  H387  1  0.379700  0.674200  0.679900  1.0
  H  H388  1  0.494300  0.699800  0.820100  1.0
  H  H389  1  0.575200  0.454800  0.340200  1.0
  H  H390  1  0.614600  0.235000  0.159800  1.0
  H  H391  1  0.424800  0.545200  0.659800  1.0
  H  H392  1  0.385400  0.765000  0.840200  1.0
  H  H393  1  0.674100  0.478700  0.348600  1.0
  H  H394  1  0.630100  0.325500  0.151400  1.0
  H  H395  1  0.325900  0.521300  0.651400  1.0
  H  H396  1  0.369900  0.674500  0.848600  1.0
  H  H397  1  0.625200  0.423500  0.383300  1.0
  H  H398  1  0.540200  0.241900  0.116700  1.0
  H  H399  1  0.374800  0.576500  0.616700  1.0
  H  H400  1  0.459800  0.758100  0.883300  1.0
  H  H401  1  0.605500  0.135000  0.283700  1.0
  H  H402  1  0.351300  0.321800  0.216300  1.0
  H  H403  1  0.394500  0.865000  0.716300  1.0
  H  H404  1  0.648700  0.678200  0.783700  1.0
  H  H405  1  0.377700  0.929000  0.100500  1.0
  H  H406  1  0.328500  0.277200  0.399500  1.0
  H  H407  1  0.622300  0.071000  0.899500  1.0
  H  H408  1  0.671500  0.722800  0.600500  1.0
  H  H409  1  0.239000  0.848100  0.034900  1.0
  H  H410  1  0.313200  0.204100  0.465100  1.0
  H  H411  1  0.761000  0.151900  0.965100  1.0
  H  H412  1  0.686800  0.795900  0.534900  1.0
  H  H413  1  0.119600  0.850500  0.056700  1.0
  H  H414  1  0.293800  0.062900  0.443300  1.0
  H  H415  1  0.880400  0.149500  0.943300  1.0
  H  H416  1  0.706200  0.937100  0.556700  1.0
  H  H417  1  0.023600  0.872200  0.028400  1.0
  H  H418  1  0.343800  0.995200  0.471600  1.0
  H  H419  1  0.976400  0.127800  0.971600  1.0
  H  H420  1  0.656200  0.004800  0.528400  1.0
  H  H421  1  0.894300  0.807300  0.953800  1.0
  H  H422  1  0.353500  0.940500  0.546200  1.0
  H  H423  1  0.105700  0.192700  0.046200  1.0
  H  H424  1  0.646500  0.059500  0.453800  1.0
  H  H425  1  0.764700  0.786800  0.970700  1.0
  H  H426  1  0.316100  0.794000  0.529300  1.0
  H  H427  1  0.235300  0.213200  0.029300  1.0
  H  H428  1  0.683900  0.206000  0.470700  1.0
  H  H429  1  0.573600  0.816300  0.078700  1.0
  H  H430  1  0.237600  0.494900  0.421300  1.0
  H  H431  1  0.426400  0.183700  0.921300  1.0
  H  H432  1  0.762400  0.505100  0.578700  1.0
  H  H433  1  0.087100  0.928100  0.313800  1.0
  H  H434  1  0.114300  0.773300  0.186200  1.0
  H  H435  1  0.912900  0.071900  0.686200  1.0
  H  H436  1  0.885700  0.226700  0.813800  1.0
  H  H437  1  0.081900  0.976500  0.402600  1.0
  H  H438  1  0.073900  0.679300  0.097400  1.0
  H  H439  1  0.918100  0.023500  0.597400  1.0
  H  H440  1  0.926100  0.320700  0.902600  1.0
  H  H441  1  0.089900  0.108300  0.431000  1.0
  H  H442  1  0.177300  0.658900  0.069000  1.0
  H  H443  1  0.910100  0.891700  0.569000  1.0
  H  H444  1  0.822700  0.341100  0.931000  1.0
  H  H445  1  0.105900  0.199000  0.379100  1.0
  H  H446  1  0.319900  0.726800  0.120900  1.0
  H  H447  1  0.894100  0.801000  0.620900  1.0
  H  H448  1  0.680100  0.273200  0.879100  1.0
  H  H449  1  0.107700  0.148100  0.283600  1.0
  H  H450  1  0.364500  0.824100  0.216400  1.0
  H  H451  1  0.892300  0.851900  0.716400  1.0
  H  H452  1  0.635500  0.175900  0.783600  1.0
  H  H453  1  0.478400  0.118000  0.372200  1.0
  H  H454  1  0.245800  0.106200  0.127800  1.0
  H  H455  1  0.521600  0.882000  0.627800  1.0
  H  H456  1  0.754200  0.893800  0.872200  1.0
  H  H457  1  0.480000  0.199400  0.354800  1.0
  H  H458  1  0.344600  0.125200  0.145200  1.0
  H  H459  1  0.520000  0.800600  0.645200  1.0
  H  H460  1  0.655400  0.874800  0.854800  1.0
  H  H461  1  0.566800  0.190600  0.372400  1.0
  H  H462  1  0.318200  0.194400  0.127600  1.0
  H  H463  1  0.433200  0.809400  0.627600  1.0
  H  H464  1  0.681800  0.805600  0.872400  1.0
  H  H465  1  0.509700  0.041400  0.135300  1.0
  H  H466  1  0.406100  0.374400  0.364700  1.0
  H  H467  1  0.490300  0.958600  0.864700  1.0
  H  H468  1  0.593900  0.625600  0.635300  1.0
  H  H469  1  0.509600  0.963800  0.157200  1.0
  H  H470  1  0.306600  0.352400  0.342800  1.0
  H  H471  1  0.490400  0.036200  0.842800  1.0
  H  H472  1  0.693400  0.647600  0.657200  1.0
  H  H473  1  0.594100  0.054800  0.181100  1.0
  H  H474  1  0.373700  0.413000  0.318900  1.0
  H  H475  1  0.405900  0.945200  0.818900  1.0
  H  H476  1  0.626300  0.587000  0.681100  1.0
  H  H477  1  0.562500  0.751800  0.973500  1.0
  H  H478  1  0.278300  0.589000  0.526500  1.0
  H  H479  1  0.437500  0.248200  0.026500  1.0
  H  H480  1  0.721700  0.411000  0.473500  1.0
  H  H481  1  0.631100  0.715800  0.972700  1.0
  H  H482  1  0.243100  0.658400  0.527300  1.0
  H  H483  1  0.368900  0.284200  0.027300  1.0
  H  H484  1  0.756900  0.341600  0.472700  1.0
  H  H485  1  0.650300  0.806600  0.963500  1.0
  H  H486  1  0.343100  0.686800  0.536500  1.0
  H  H487  1  0.349700  0.193400  0.036500  1.0
  H  H488  1  0.656900  0.313200  0.463500  1.0
  H  H489  1  0.721100  0.964500  0.206400  1.0
  H  H490  1  0.258100  0.514700  0.293600  1.0
  H  H491  1  0.278900  0.035500  0.793600  1.0
  H  H492  1  0.741900  0.485300  0.706400  1.0
  H  H493  1  0.715000  0.878800  0.219200  1.0
  H  H494  1  0.159600  0.495800  0.280800  1.0
  H  H495  1  0.285000  0.121200  0.780800  1.0
  H  H496  1  0.840400  0.504200  0.719200  1.0
  H  H497  1  0.629200  0.882300  0.188300  1.0
  H  H498  1  0.194000  0.440900  0.311700  1.0
  H  H499  1  0.370800  0.117700  0.811700  1.0
  H  H500  1  0.806000  0.559100  0.688300  1.0
  H  H501  1  0.953400  0.216100  0.141500  1.0
  H  H502  1  0.574600  0.811900  0.358500  1.0
  H  H503  1  0.046600  0.783900  0.858500  1.0
  H  H504  1  0.425400  0.188100  0.641500  1.0
  H  H505  1  0.884400  0.146600  0.308800  1.0
  H  H506  1  0.337800  0.575600  0.191200  1.0
  H  H507  1  0.115600  0.853400  0.691200  1.0
  H  H508  1  0.662200  0.424400  0.808800  1.0
  H  H509  1  0.853700  0.066300  0.369600  1.0
  H  H510  1  0.196700  0.484100  0.130400  1.0
  H  H511  1  0.146300  0.933700  0.630400  1.0
  H  H512  1  0.803300  0.515900  0.869600  1.0
  H  H513  1  0.854400  0.933900  0.352300  1.0
  H  H514  1  0.081600  0.502100  0.147700  1.0
  H  H515  1  0.145600  0.066100  0.647700  1.0
  H  H516  1  0.918400  0.497900  0.852300  1.0
  H  H517  1  0.894600  0.865200  0.387600  1.0
  H  H518  1  0.977600  0.507000  0.112400  1.0
  H  H519  1  0.105400  0.134800  0.612400  1.0
  H  H520  1  0.022400  0.493000  0.887600  1.0
  H  H521  1  0.876500  0.798100  0.455800  1.0
  H  H522  1  0.842300  0.420700  0.044200  1.0
  H  H523  1  0.123500  0.201900  0.544200  1.0
  H  H524  1  0.157700  0.579300  0.955800  1.0
  H  H525  1  0.858800  0.657600  0.439200  1.0
  H  H526  1  0.718400  0.419600  0.060800  1.0
  H  H527  1  0.141200  0.342400  0.560800  1.0
  H  H528  1  0.281600  0.580400  0.939200  1.0
  H  H529  1  0.841500  0.380000  0.334700  1.0
  H  H530  1  0.545300  0.506800  0.165300  1.0
  H  H531  1  0.158500  0.620000  0.665300  1.0
  H  H532  1  0.454700  0.493200  0.834700  1.0
  H  H533  1  0.974200  0.716600  0.132800  1.0
  H  H534  1  0.083800  0.841400  0.367200  1.0
  H  H535  1  0.025800  0.283400  0.867200  1.0
  H  H536  1  0.916200  0.158600  0.632800  1.0
  H  H537  1  0.929700  0.644300  0.033200  1.0
  H  H538  1  0.111100  0.896500  0.466800  1.0
  H  H539  1  0.070300  0.355700  0.966800  1.0
  H  H540  1  0.888900  0.103500  0.533200  1.0
  H  H541  1  0.787900  0.586900  0.979800  1.0
  H  H542  1  0.107100  0.808100  0.520200  1.0
  H  H543  1  0.212100  0.413100  0.020200  1.0
  H  H544  1  0.892900  0.191900  0.479800  1.0
  H  H545  1  0.686300  0.601500  0.015800  1.0
  H  H546  1  0.085700  0.670500  0.484200  1.0
  H  H547  1  0.313700  0.398500  0.984200  1.0
  H  H548  1  0.914300  0.329500  0.515800  1.0
  H  H549  1  0.727700  0.674800  0.110300  1.0
  H  H550  1  0.064500  0.617400  0.389700  1.0
  H  H551  1  0.272300  0.325200  0.889700  1.0
  H  H552  1  0.935500  0.382600  0.610300  1.0
  H  H553  1  0.880400  0.003400  0.051200  1.0
  H  H554  1  0.452200  0.829200  0.448800  1.0
  H  H555  1  0.119600  0.996600  0.948800  1.0
  H  H556  1  0.547800  0.170800  0.551200  1.0
  H  H557  1  0.982500  0.042000  0.078300  1.0
  H  H558  1  0.463700  0.904200  0.421700  1.0
  H  H559  1  0.017500  0.958000  0.921700  1.0
  H  H560  1  0.536300  0.095800  0.578300  1.0
  H  H561  1  0.942400  0.099800  0.056200  1.0
  H  H562  1  0.543600  0.886200  0.443800  1.0
  H  H563  1  0.057600  0.900200  0.943800  1.0
  H  H564  1  0.456400  0.113800  0.556200  1.0
  H  H565  1  0.984300  0.253100  0.288600  1.0
  H  H566  1  0.464500  0.695700  0.211400  1.0
  H  H567  1  0.015700  0.746900  0.711400  1.0
  H  H568  1  0.535500  0.304300  0.788600  1.0
  H  H569  1  0.888100  0.235500  0.258200  1.0
  H  H570  1  0.477300  0.629900  0.241800  1.0
  H  H571  1  0.111900  0.764500  0.741800  1.0
  H  H572  1  0.522700  0.370100  0.758200  1.0
  H  H573  1  0.966700  0.298800  0.243300  1.0
  H  H574  1  0.555500  0.723400  0.256700  1.0
  H  H575  1  0.033300  0.701200  0.756700  1.0
  H  H576  1  0.444500  0.276600  0.743300  1.0
  H  H577  1  0.864700  0.464700  0.438400  1.0
  H  H578  1  0.526300  0.426300  0.061600  1.0
  H  H579  1  0.135300  0.535300  0.561600  1.0
  H  H580  1  0.473700  0.573700  0.938400  1.0
  H  H581  1  0.820100  0.526200  0.437100  1.0
  H  H582  1  0.589100  0.383000  0.062900  1.0
  H  H583  1  0.179900  0.473800  0.562900  1.0
  H  H584  1  0.410900  0.617000  0.937100  1.0
  H  H585  1  0.922300  0.565500  0.452000  1.0
  H  H586  1  0.613500  0.470300  0.048000  1.0
  H  H587  1  0.077700  0.434500  0.548000  1.0
  H  H588  1  0.386500  0.529700  0.952000  1.0
  H  H589  1  0.892300  0.419400  0.219300  1.0
  H  H590  1  0.700100  0.673000  0.280700  1.0
  H  H591  1  0.107700  0.580600  0.780700  1.0
  H  H592  1  0.299900  0.327000  0.719300  1.0
  H  H593  1  0.792900  0.396900  0.195000  1.0
  H  H594  1  0.701900  0.597900  0.305000  1.0
  H  H595  1  0.207100  0.603100  0.805000  1.0
  H  H596  1  0.298100  0.402100  0.695000  1.0
  H  H597  1  0.819600  0.338300  0.226700  1.0
  H  H598  1  0.611600  0.592900  0.273300  1.0
  H  H599  1  0.180400  0.661700  0.773300  1.0
  H  H600  1  0.388400  0.407100  0.726700  1.0
  N  N601  1  0.530350  0.636750  0.096900  1
  N  N602  1  0.039850  0.433450  0.403100  1
  N  N603  1  0.469650  0.363250  0.903100  1
  N  N604  1  0.960150  0.566550  0.596900  1
  N  N605  1  0.558730  0.951170  0.304900  1
  N  N606  1  0.146270  0.253830  0.195100  1
  N  N607  1  0.441270  0.048830  0.695100  1
  N  N608  1  0.853730  0.746170  0.804900  1
  N  N609  1  0.474100  0.645400  0.508500  1
  N  N610  1  0.636900  0.965600  0.991500  1
  N  N611  1  0.525900  0.354600  0.491500  1
  N  N612  1  0.363100  0.034400  0.008500  1
  N  N613  1  0.405690  0.063330  0.257340  1.0
  N  N614  1  0.305990  0.148350  0.242660  1.0
  N  N615  1  0.594310  0.936670  0.742660  1.0
  N  N616  1  0.694010  0.851650  0.757340  1.0
  N  N617  1  0.414180  0.027070  0.207650  1.0
  N  N618  1  0.319420  0.206530  0.292350  1.0
  N  N619  1  0.585820  0.972930  0.792350  1.0
  N  N620  1  0.680580  0.793470  0.707650  1.0
  N  N621  1  0.269540  0.977240  0.174620  1.0
  N  N622  1  0.302620  0.094920  0.325380  1.0
  N  N623  1  0.730460  0.022760  0.825380  1.0
  N  N624  1  0.697380  0.905080  0.674620  1.0
  N  N625  1  0.160100  0.990980  0.217780  1.0
  N  N626  1  0.273200  0.942320  0.282220  1.0
  N  N627  1  0.839900  0.009020  0.782220  1.0
  N  N628  1  0.726800  0.057680  0.717780  1.0
  N  N629  1  0.020900  0.958070  0.188370  1.0
  N  N630  1  0.269700  0.832530  0.311630  1.0
  N  N631  1  0.979100  0.041930  0.811630  1.0
  N  N632  1  0.730300  0.167470  0.688370  1.0
  N  N633  1  0.895200  0.877580  0.098280  1.0
  N  N634  1  0.279300  0.796920  0.401720  1.0
  N  N635  1  0.104800  0.122420  0.901720  1.0
  N  N636  1  0.720700  0.203080  0.598280  1.0
  N  N637  1  0.752790  0.840760  0.073090  1.0
  N  N638  1  0.267670  0.679700  0.426910  1.0
  N  N639  1  0.247210  0.159240  0.926910  1.0
  N  N640  1  0.732330  0.320300  0.573090  1.0
  N  N641  1  0.772660  0.877710  0.130450  1.0
  N  N642  1  0.247260  0.642210  0.369550  1.0
  N  N643  1  0.227340  0.122290  0.869550  1.0
  N  N644  1  0.752740  0.357790  0.630450  1.0
  N  N645  1  0.914760  0.040720  0.164800  1.0
  N  N646  1  0.375920  0.749960  0.335200  1.0
  N  N647  1  0.085240  0.959280  0.835200  1.0
  N  N648  1  0.624080  0.250040  0.664800  1.0
  N  N649  1  0.915020  0.092770  0.212390  1.0
  N  N650  1  0.380380  0.702630  0.287610  1.0
  N  N651  1  0.084980  0.907230  0.787610  1.0
  N  N652  1  0.619620  0.297370  0.712390  1.0
  N  N653  1  0.896280  0.978840  0.243580  1.0
  N  N654  1  0.235260  0.652700  0.256420  1.0
  N  N655  1  0.103720  0.021160  0.756420  1.0
  N  N656  1  0.764740  0.347300  0.743580  1.0
  N  N657  1  0.880170  0.831780  0.203350  1.0
  N  N658  1  0.128430  0.676820  0.296650  1.0
  N  N659  1  0.119830  0.168220  0.796650  1.0
  N  N660  1  0.871570  0.323180  0.703350  1.0
  N  N661  1  0.879530  0.723450  0.233640  1.0
  N  N662  1  0.989810  0.645890  0.266360  1.0
  N  N663  1  0.120470  0.276550  0.766360  1.0
  N  N664  1  0.010190  0.354110  0.733640  1.0
  N  N665  1  0.875110  0.682130  0.320840  1.0
  N  N666  1  0.861290  0.554270  0.179160  1.0
  N  N667  1  0.124890  0.317870  0.679160  1.0
  N  N668  1  0.138710  0.445730  0.820840  1.0
  N  N669  1  0.860100  0.562030  0.342750  1.0
  N  N670  1  0.719280  0.517350  0.157250  1.0
  N  N671  1  0.139900  0.437970  0.657250  1.0
  N  N672  1  0.280720  0.482650  0.842750  1.0
  N  N673  1  0.853200  0.531260  0.287560  1.0
  N  N674  1  0.743700  0.565640  0.212440  1.0
  N  N675  1  0.146800  0.468740  0.712440  1.0
  N  N676  1  0.256300  0.434360  0.787560  1.0
  O  O677  1  0.550720  0.606390  0.059110  1
  O  O678  1  0.047280  0.491610  0.440890  1
  O  O679  1  0.449280  0.393610  0.940890  1
  O  O680  1  0.952720  0.508390  0.559110  1
  O  O681  1  0.581600  0.677720  0.145440  1
  O  O682  1  0.032280  0.436160  0.354560  1
  O  O683  1  0.418400  0.322280  0.854560  1
  O  O684  1  0.967720  0.563840  0.645440  1
  O  O685  1  0.526860  0.904280  0.254760  1
  O  O686  1  0.149520  0.272100  0.245240  1
  O  O687  1  0.473140  0.095720  0.745240  1
  O  O688  1  0.850480  0.727900  0.754760  1
  O  O689  1  0.518740  0.966290  0.333830  1
  O  O690  1  0.132460  0.184910  0.166170  1
  O  O691  1  0.481260  0.033710  0.666170  1
  O  O692  1  0.867540  0.815090  0.833830  1
  O  O693  1  0.484800  0.640800  0.557200  1
  O  O694  1  0.583600  0.927600  0.942800  1
  O  O695  1  0.515200  0.359200  0.442800  1
  O  O696  1  0.416400  0.072400  0.057200  1
  O  O697  1  0.479300  0.709100  0.496200  1
  O  O698  1  0.712900  0.983100  0.003800  1
  O  O699  1  0.520700  0.290900  0.503800  1
  O  O700  1  0.287100  0.016900  0.996200  1
  O  O701  1  0.608400  0.358400  0.250000  1
  O  O702  1  0.391600  0.641600  0.750000  1
