# generated using pymatgen
data_Zn2H52C90I7N10
_symmetry_space_group_name_H-M   'P 1'
_cell_length_a   17.96780000
_cell_length_b   20.04930000
_cell_length_c   31.20290000
_cell_angle_alpha   90.00000000
_cell_angle_beta   105.75600000
_cell_angle_gamma   90.00000000
_symmetry_Int_Tables_number   1
_chemical_formula_structural   Zn2H52C90I7N10
_chemical_formula_sum   'Zn8 H208 C360 I28 N40'
_cell_volume   10818.24441183
_cell_formula_units_Z   4
loop_
 _symmetry_equiv_pos_site_id
 _symmetry_equiv_pos_as_xyz
  1  'x, y, z'
loop_
 _atom_site_type_symbol
 _atom_site_label
 _atom_site_symmetry_multiplicity
 _atom_site_fract_x
 _atom_site_fract_y
 _atom_site_fract_z
 _atom_site_occupancy
  Zn  Zn1  1  0.383807  0.017819  0.274724  1.0
  Zn  Zn2  1  0.116193  0.517819  0.225276  1.0
  Zn  Zn3  1  0.616193  0.982181  0.725276  1.0
  Zn  Zn4  1  0.883807  0.482181  0.774724  1.0
  Zn  Zn5  1  0.488786  0.640706  0.488356  1.0
  Zn  Zn6  1  0.011214  0.140706  0.011644  1.0
  Zn  Zn7  1  0.511214  0.359294  0.511644  1.0
  Zn  Zn8  1  0.988786  0.859294  0.988356  1.0
  H  H9  1  0.055700  0.010700  0.245900  1
  H  H10  1  0.444300  0.510700  0.254100  1
  H  H11  1  0.944300  0.989300  0.754100  1
  H  H12  1  0.555700  0.489300  0.745900  1
  H  H13  1  0.934500  0.046400  0.256400  1
  H  H14  1  0.565500  0.546400  0.243600  1
  H  H15  1  0.065500  0.953600  0.743600  1
  H  H16  1  0.434500  0.453600  0.756400  1
  H  H17  1  0.062400  0.138900  0.369100  1
  H  H18  1  0.437600  0.638900  0.130900  1
  H  H19  1  0.937600  0.861100  0.630900  1
  H  H20  1  0.562400  0.361100  0.869100  1
  H  H21  1  0.169900  0.078900  0.365600  1
  H  H22  1  0.330100  0.578900  0.134400  1
  H  H23  1  0.830100  0.921100  0.634400  1
  H  H24  1  0.669900  0.421100  0.865600  1
  H  H25  1  0.176600  0.942500  0.351300  1.0
  H  H26  1  0.323400  0.442500  0.148700  1.0
  H  H27  1  0.823400  0.057500  0.648700  1.0
  H  H28  1  0.676600  0.557500  0.851300  1.0
  H  H29  1  0.281000  0.867100  0.381100  1.0
  H  H30  1  0.219000  0.367100  0.118900  1.0
  H  H31  1  0.719000  0.132900  0.618900  1.0
  H  H32  1  0.781000  0.632900  0.881100  1.0
  H  H33  1  0.565100  0.834600  0.360800  1.0
  H  H34  1  0.934900  0.334600  0.139200  1.0
  H  H35  1  0.434900  0.165400  0.639200  1.0
  H  H36  1  0.065100  0.665400  0.860800  1.0
  H  H37  1  0.640000  0.884400  0.311700  1.0
  H  H38  1  0.860000  0.384400  0.188300  1.0
  H  H39  1  0.360000  0.115600  0.688300  1.0
  H  H40  1  0.140000  0.615600  0.811700  1.0
  H  H41  1  0.566300  0.047400  0.173900  1.0
  H  H42  1  0.933700  0.547400  0.326100  1.0
  H  H43  1  0.433700  0.952600  0.826100  1.0
  H  H44  1  0.066300  0.452600  0.673900  1.0
  H  H45  1  0.455100  0.122700  0.140900  1.0
  H  H46  1  0.044900  0.622700  0.359100  1.0
  H  H47  1  0.544900  0.877300  0.859100  1.0
  H  H48  1  0.955100  0.377300  0.640900  1.0
  H  H49  1  0.192800  0.183200  0.177800  1.0
  H  H50  1  0.307200  0.683200  0.322200  1.0
  H  H51  1  0.807200  0.816800  0.822200  1.0
  H  H52  1  0.692800  0.316800  0.677800  1.0
  H  H53  1  0.123900  0.142500  0.230100  1.0
  H  H54  1  0.376100  0.642500  0.269900  1.0
  H  H55  1  0.876100  0.857500  0.769900  1.0
  H  H56  1  0.623900  0.357500  0.730100  1.0
  H  H57  1  0.424600  0.879100  0.436700  1.0
  H  H58  1  0.075400  0.379100  0.063300  1.0
  H  H59  1  0.575400  0.120900  0.563300  1.0
  H  H60  1  0.924600  0.620900  0.936700  1.0
  H  H61  1  0.445100  0.786100  0.483400  1.0
  H  H62  1  0.054900  0.286100  0.016600  1.0
  H  H63  1  0.554900  0.213900  0.516600  1.0
  H  H64  1  0.945100  0.713900  0.983400  1.0
  H  H65  1  0.456900  0.668400  0.386000  1.0
  H  H66  1  0.043100  0.168400  0.114000  1.0
  H  H67  1  0.543100  0.331600  0.614000  1.0
  H  H68  1  0.956900  0.831600  0.886000  1.0
  H  H69  1  0.437900  0.755100  0.336100  1.0
  H  H70  1  0.062100  0.255100  0.163900  1.0
  H  H71  1  0.562100  0.244900  0.663900  1.0
  H  H72  1  0.937900  0.744900  0.836100  1.0
  H  H73  1  0.699600  0.022700  0.287300  1.0
  H  H74  1  0.800400  0.522700  0.212700  1.0
  H  H75  1  0.300400  0.977300  0.712700  1.0
  H  H76  1  0.199600  0.477300  0.787300  1.0
  H  H77  1  0.815900  0.994200  0.266200  1.0
  H  H78  1  0.684100  0.494200  0.233800  1.0
  H  H79  1  0.184100  0.005800  0.733800  1.0
  H  H80  1  0.315900  0.505800  0.766200  1.0
  H  H81  1  0.700100  0.878900  0.171600  1.0
  H  H82  1  0.799900  0.378900  0.328400  1.0
  H  H83  1  0.299900  0.121100  0.828400  1.0
  H  H84  1  0.200100  0.621100  0.671600  1.0
  H  H85  1  0.586900  0.901300  0.187300  1.0
  H  H86  1  0.913100  0.401300  0.312700  1.0
  H  H87  1  0.413100  0.098700  0.812700  1.0
  H  H88  1  0.086900  0.598700  0.687300  1.0
  H  H89  1  0.220500  0.123300  0.105600  1.0
  H  H90  1  0.279500  0.623300  0.394400  1.0
  H  H91  1  0.779500  0.876700  0.894400  1.0
  H  H92  1  0.720500  0.376700  0.605600  1.0
  H  H93  1  0.195800  0.195300  0.046200  1.0
  H  H94  1  0.304200  0.695300  0.453800  1.0
  H  H95  1  0.804200  0.804700  0.953800  1.0
  H  H96  1  0.695800  0.304700  0.546200  1.0
  H  H97  1  0.378100  0.309500  0.112100  1.0
  H  H98  1  0.121900  0.809500  0.387900  1.0
  H  H99  1  0.621900  0.690500  0.887900  1.0
  H  H100  1  0.878100  0.190500  0.612100  1.0
  H  H101  1  0.406200  0.232400  0.170600  1.0
  H  H102  1  0.093800  0.732400  0.329400  1.0
  H  H103  1  0.593800  0.767600  0.829400  1.0
  H  H104  1  0.906200  0.267600  0.670600  1.0
  H  H105  1  0.069800  0.970700  0.273500  1.0
  H  H106  1  0.430200  0.470700  0.226500  1.0
  H  H107  1  0.930200  0.029300  0.726500  1.0
  H  H108  1  0.569800  0.529300  0.773500  1.0
  H  H109  1  0.950300  0.008300  0.291300  1.0
  H  H110  1  0.549700  0.508300  0.208700  1.0
  H  H111  1  0.049700  0.991700  0.708700  1.0
  H  H112  1  0.450300  0.491700  0.791300  1.0
  H  H113  1  0.051800  0.181200  0.343400  1.0
  H  H114  1  0.448200  0.681200  0.156600  1.0
  H  H115  1  0.948200  0.818800  0.656600  1.0
  H  H116  1  0.551800  0.318800  0.843400  1.0
  H  H117  1  0.167300  0.137800  0.334200  1.0
  H  H118  1  0.332700  0.637800  0.165800  1.0
  H  H119  1  0.832700  0.862200  0.665800  1.0
  H  H120  1  0.667300  0.362200  0.834200  1.0
  H  H121  1  0.306500  0.688300  0.586700  1.0
  H  H122  1  0.193500  0.188300  0.913300  1.0
  H  H123  1  0.693500  0.311700  0.413300  1.0
  H  H124  1  0.806500  0.811700  0.086700  1.0
  H  H125  1  0.411500  0.766300  0.613400  1.0
  H  H126  1  0.088500  0.266300  0.886600  1.0
  H  H127  1  0.588500  0.233700  0.386600  1.0
  H  H128  1  0.911500  0.733700  0.113400  1.0
  H  H129  1  0.675500  0.818800  0.576200  1.0
  H  H130  1  0.824500  0.318800  0.923800  1.0
  H  H131  1  0.324500  0.181200  0.423800  1.0
  H  H132  1  0.175500  0.681200  0.076200  1.0
  H  H133  1  0.749700  0.765900  0.527900  1.0
  H  H134  1  0.750300  0.265900  0.972100  1.0
  H  H135  1  0.250300  0.234100  0.472100  1.0
  H  H136  1  0.249700  0.734100  0.027900  1.0
  H  H137  1  0.671100  0.599200  0.390100  1.0
  H  H138  1  0.828900  0.099200  0.109900  1.0
  H  H139  1  0.328900  0.400800  0.609900  1.0
  H  H140  1  0.171100  0.900800  0.890100  1.0
  H  H141  1  0.560200  0.521300  0.362400  1.0
  H  H142  1  0.939800  0.021300  0.137600  1.0
  H  H143  1  0.439800  0.478700  0.637600  1.0
  H  H144  1  0.060200  0.978700  0.862400  1.0
  H  H145  1  0.318400  0.440600  0.418600  1.0
  H  H146  1  0.181600  0.940600  0.081400  1.0
  H  H147  1  0.681600  0.559400  0.581400  1.0
  H  H148  1  0.818400  0.059400  0.918600  1.0
  H  H149  1  0.254100  0.486600  0.473500  1.0
  H  H150  1  0.245900  0.986600  0.026500  1.0
  H  H151  1  0.745900  0.513400  0.526500  1.0
  H  H152  1  0.754100  0.013400  0.973500  1.0
  H  H153  1  0.491400  0.886300  0.571200  1.0
  H  H154  1  0.008600  0.386300  0.928800  1.0
  H  H155  1  0.508600  0.113700  0.428800  1.0
  H  H156  1  0.991400  0.613700  0.071200  1.0
  H  H157  1  0.522300  0.965000  0.628600  1.0
  H  H158  1  0.977700  0.465000  0.871400  1.0
  H  H159  1  0.477700  0.035000  0.371400  1.0
  H  H160  1  0.022300  0.535000  0.128600  1.0
  H  H161  1  0.358900  0.166300  0.286100  1.0
  H  H162  1  0.141100  0.666300  0.213900  1.0
  H  H163  1  0.641100  0.833700  0.713900  1.0
  H  H164  1  0.858900  0.333700  0.786100  1.0
  H  H165  1  0.616100  0.751800  0.658800  1.0
  H  H166  1  0.883900  0.251800  0.841200  1.0
  H  H167  1  0.383900  0.248200  0.341200  1.0
  H  H168  1  0.116100  0.748200  0.158800  1.0
  H  H169  1  0.705600  0.768500  0.426300  1.0
  H  H170  1  0.794400  0.268500  0.073700  1.0
  H  H171  1  0.294400  0.231500  0.573700  1.0
  H  H172  1  0.205600  0.731500  0.926300  1.0
  H  H173  1  0.816700  0.789300  0.405300  1.0
  H  H174  1  0.683300  0.289300  0.094700  1.0
  H  H175  1  0.183300  0.210700  0.594700  1.0
  H  H176  1  0.316700  0.710700  0.905300  1.0
  H  H177  1  0.905800  0.615300  0.457700  1.0
  H  H178  1  0.594200  0.115300  0.042300  1.0
  H  H179  1  0.094200  0.384700  0.542300  1.0
  H  H180  1  0.405800  0.884700  0.957700  1.0
  H  H181  1  0.796000  0.596000  0.481400  1.0
  H  H182  1  0.704000  0.096000  0.018600  1.0
  H  H183  1  0.204000  0.404000  0.518600  1.0
  H  H184  1  0.296000  0.904000  0.981400  1.0
  H  H185  1  0.321300  0.503000  0.342200  1.0
  H  H186  1  0.178700  0.003000  0.157800  1.0
  H  H187  1  0.678700  0.497000  0.657800  1.0
  H  H188  1  0.821300  0.997000  0.842200  1.0
  H  H189  1  0.290700  0.435600  0.282300  1.0
  H  H190  1  0.209300  0.935600  0.217700  1.0
  H  H191  1  0.709300  0.564400  0.717700  1.0
  H  H192  1  0.790700  0.064400  0.782300  1.0
  H  H193  1  0.495200  0.336600  0.329800  1.0
  H  H194  1  0.004800  0.836600  0.170200  1.0
  H  H195  1  0.504800  0.663400  0.670200  1.0
  H  H196  1  0.995200  0.163400  0.829800  1.0
  H  H197  1  0.529100  0.406600  0.390300  1.0
  H  H198  1  0.970900  0.906600  0.109700  1.0
  H  H199  1  0.470900  0.593400  0.609700  1.0
  H  H200  1  0.029100  0.093400  0.890300  1.0
  H  H201  1  0.176900  0.635100  0.478800  1.0
  H  H202  1  0.323100  0.135100  0.021200  1.0
  H  H203  1  0.823100  0.364900  0.521200  1.0
  H  H204  1  0.676900  0.864900  0.978800  1.0
  H  H205  1  0.063800  0.605900  0.494700  1.0
  H  H206  1  0.436200  0.105900  0.005300  1.0
  H  H207  1  0.936200  0.394100  0.505300  1.0
  H  H208  1  0.563800  0.894100  0.994700  1.0
  H  H209  1  0.184100  0.510400  0.606000  1.0
  H  H210  1  0.315900  0.010400  0.894000  1.0
  H  H211  1  0.815900  0.489600  0.394000  1.0
  H  H212  1  0.684100  0.989600  0.106000  1.0
  H  H213  1  0.295800  0.542900  0.590100  1.0
  H  H214  1  0.204200  0.042900  0.909900  1.0
  H  H215  1  0.704200  0.457100  0.409900  1.0
  H  H216  1  0.795800  0.957100  0.090100  1.0
  C  C217  1  0.056240  0.038130  0.270820  1
  C  C218  1  0.443760  0.538130  0.229180  1
  C  C219  1  0.943760  0.961870  0.729180  1
  C  C220  1  0.556240  0.461870  0.770820  1
  C  C221  1  0.982930  0.056730  0.276750  1
  C  C222  1  0.517070  0.556730  0.223250  1
  C  C223  1  0.017070  0.943270  0.723250  1
  C  C224  1  0.482930  0.443270  0.776750  1
  C  C225  1  0.059920  0.108330  0.345530  1
  C  C226  1  0.440080  0.608330  0.154470  1
  C  C227  1  0.940080  0.891670  0.654470  1
  C  C228  1  0.559920  0.391670  0.845530  1
  C  C229  1  0.125190  0.081440  0.341050  1
  C  C230  1  0.374810  0.581440  0.158950  1
  C  C231  1  0.874810  0.918560  0.658950  1
  C  C232  1  0.625190  0.418560  0.841050  1
  C  C233  1  0.244800  0.987210  0.310590  1.0
  C  C234  1  0.255200  0.487210  0.189410  1.0
  C  C235  1  0.755200  0.012790  0.689410  1.0
  C  C236  1  0.744800  0.512790  0.810590  1.0
  C  C237  1  0.224090  0.941470  0.343470  1.0
  C  C238  1  0.275910  0.441470  0.156530  1.0
  C  C239  1  0.775910  0.058530  0.656530  1.0
  C  C240  1  0.724090  0.558530  0.843470  1.0
  C  C241  1  0.279630  0.900740  0.359460  1.0
  C  C242  1  0.220370  0.400740  0.140540  1.0
  C  C243  1  0.720370  0.099260  0.640540  1.0
  C  C244  1  0.779630  0.599260  0.859460  1.0
  C  C245  1  0.339890  0.915690  0.338220  1.0
  C  C246  1  0.160110  0.415690  0.161780  1.0
  C  C247  1  0.660110  0.084310  0.661780  1.0
  C  C248  1  0.839890  0.584310  0.838220  1.0
  C  C249  1  0.411340  0.883360  0.347990  1.0
  C  C250  1  0.088660  0.383360  0.152010  1.0
  C  C251  1  0.588660  0.116640  0.652010  1.0
  C  C252  1  0.911340  0.616640  0.847990  1.0
  C  C253  1  0.473080  0.901650  0.328960  1.0
  C  C254  1  0.026920  0.401650  0.171040  1.0
  C  C255  1  0.526920  0.098350  0.671040  1.0
  C  C256  1  0.973080  0.598350  0.828960  1.0
  C  C257  1  0.547870  0.868710  0.339270  1.0
  C  C258  1  0.952130  0.368710  0.160730  1.0
  C  C259  1  0.452130  0.131290  0.660730  1.0
  C  C260  1  0.047870  0.631290  0.839270  1.0
  C  C261  1  0.589070  0.895610  0.312490  1.0
  C  C262  1  0.910930  0.395610  0.187510  1.0
  C  C263  1  0.410930  0.104390  0.687510  1.0
  C  C264  1  0.089070  0.604390  0.812490  1.0
  C  C265  1  0.537920  0.945050  0.285600  1.0
  C  C266  1  0.962080  0.445050  0.214400  1.0
  C  C267  1  0.462080  0.054950  0.714400  1.0
  C  C268  1  0.037920  0.554950  0.785600  1.0
  C  C269  1  0.556860  0.980850  0.251470  1.0
  C  C270  1  0.943140  0.480850  0.248530  1.0
  C  C271  1  0.443140  0.019150  0.748530  1.0
  C  C272  1  0.056860  0.519150  0.751470  1.0
  C  C273  1  0.505720  0.024340  0.220550  1.0
  C  C274  1  0.994280  0.524340  0.279450  1.0
  C  C275  1  0.494280  0.975660  0.779450  1.0
  C  C276  1  0.005720  0.475660  0.720550  1.0
  C  C277  1  0.521780  0.054060  0.184300  1.0
  C  C278  1  0.978220  0.554060  0.315700  1.0
  C  C279  1  0.478220  0.945940  0.815700  1.0
  C  C280  1  0.021780  0.445940  0.684300  1.0
  C  C281  1  0.460580  0.095110  0.166300  1.0
  C  C282  1  0.039420  0.595110  0.333700  1.0
  C  C283  1  0.539420  0.904890  0.833700  1.0
  C  C284  1  0.960580  0.404890  0.666300  1.0
  C  C285  1  0.407010  0.089610  0.191750  1.0
  C  C286  1  0.092990  0.589610  0.308250  1.0
  C  C287  1  0.592990  0.910390  0.808250  1.0
  C  C288  1  0.907010  0.410390  0.691750  1.0
  C  C289  1  0.333520  0.122770  0.181870  1.0
  C  C290  1  0.166480  0.622770  0.318130  1.0
  C  C291  1  0.666480  0.877230  0.818130  1.0
  C  C292  1  0.833520  0.377230  0.681870  1.0
  C  C293  1  0.278000  0.111890  0.204070  1.0
  C  C294  1  0.222000  0.611890  0.295930  1.0
  C  C295  1  0.722000  0.888110  0.795930  1.0
  C  C296  1  0.778000  0.388110  0.704070  1.0
  C  C297  1  0.209740  0.148120  0.198680  1.0
  C  C298  1  0.290260  0.648120  0.301320  1.0
  C  C299  1  0.790260  0.851880  0.801320  1.0
  C  C300  1  0.709740  0.351880  0.698680  1.0
  C  C301  1  0.171890  0.126240  0.227200  1.0
  C  C302  1  0.328110  0.626240  0.272800  1.0
  C  C303  1  0.828110  0.873760  0.772800  1.0
  C  C304  1  0.671890  0.373760  0.727200  1.0
  C  C305  1  0.216510  0.074340  0.252280  1.0
  C  C306  1  0.283490  0.574340  0.247720  1.0
  C  C307  1  0.783490  0.925660  0.747720  1.0
  C  C308  1  0.716510  0.425660  0.752280  1.0
  C  C309  1  0.200640  0.038610  0.287140  1.0
  C  C310  1  0.299360  0.538610  0.212860  1.0
  C  C311  1  0.799360  0.961390  0.712860  1.0
  C  C312  1  0.700640  0.461390  0.787140  1.0
  C  C313  1  0.425760  0.829140  0.379970  1.0
  C  C314  1  0.074240  0.329140  0.120030  1.0
  C  C315  1  0.574240  0.170860  0.620030  1.0
  C  C316  1  0.925760  0.670860  0.879970  1.0
  C  C317  1  0.430170  0.836280  0.424930  1.0
  C  C318  1  0.069830  0.336280  0.075070  1.0
  C  C319  1  0.569830  0.163720  0.575070  1.0
  C  C320  1  0.930170  0.663720  0.924930  1.0
  C  C321  1  0.442840  0.779930  0.452850  1.0
  C  C322  1  0.057160  0.279930  0.047150  1.0
  C  C323  1  0.557160  0.220070  0.547150  1.0
  C  C324  1  0.942840  0.720070  0.952850  1.0
  C  C325  1  0.449730  0.711840  0.396390  1.0
  C  C326  1  0.050270  0.211840  0.103610  1.0
  C  C327  1  0.550270  0.288160  0.603610  1.0
  C  C328  1  0.949730  0.788160  0.896390  1.0
  C  C329  1  0.437920  0.763440  0.366110  1.0
  C  C330  1  0.062080  0.263440  0.133890  1.0
  C  C331  1  0.562080  0.236560  0.633890  1.0
  C  C332  1  0.937920  0.736560  0.866110  1.0
  C  C333  1  0.630690  0.964390  0.238730  1.0
  C  C334  1  0.869310  0.464390  0.261270  1.0
  C  C335  1  0.369310  0.035610  0.761270  1.0
  C  C336  1  0.130690  0.535610  0.738730  1.0
  C  C337  1  0.698190  0.993270  0.263240  1.0
  C  C338  1  0.801810  0.493270  0.236760  1.0
  C  C339  1  0.301810  0.006730  0.736760  1.0
  C  C340  1  0.198190  0.506730  0.763240  1.0
  C  C341  1  0.767740  0.975900  0.249890  1.0
  C  C342  1  0.732260  0.475900  0.250110  1.0
  C  C343  1  0.232260  0.024100  0.750110  1.0
  C  C344  1  0.267740  0.524100  0.749890  1.0
  C  C345  1  0.766480  0.937980  0.217880  1.0
  C  C346  1  0.733520  0.437980  0.282120  1.0
  C  C347  1  0.233520  0.062020  0.782120  1.0
  C  C348  1  0.266480  0.562020  0.717880  1.0
  C  C349  1  0.699590  0.909040  0.195000  1.0
  C  C350  1  0.800410  0.409040  0.305000  1.0
  C  C351  1  0.300410  0.090960  0.805000  1.0
  C  C352  1  0.199590  0.590960  0.695000  1.0
  C  C353  1  0.633200  0.921730  0.204370  1.0
  C  C354  1  0.866800  0.421730  0.295630  1.0
  C  C355  1  0.366800  0.078270  0.795630  1.0
  C  C356  1  0.133200  0.578270  0.704370  1.0
  C  C357  1  0.317880  0.169030  0.144710  1.0
  C  C358  1  0.182120  0.669030  0.355290  1.0
  C  C359  1  0.682120  0.830970  0.855290  1.0
  C  C360  1  0.817880  0.330970  0.644710  1.0
  C  C361  1  0.253550  0.160600  0.106660  1.0
  C  C362  1  0.246450  0.660600  0.393340  1.0
  C  C363  1  0.746450  0.839400  0.893340  1.0
  C  C364  1  0.753550  0.339400  0.606660  1.0
  C  C365  1  0.237510  0.203820  0.071790  1.0
  C  C366  1  0.262490  0.703820  0.428210  1.0
  C  C367  1  0.762490  0.796180  0.928210  1.0
  C  C368  1  0.737510  0.296180  0.571790  1.0
  C  C369  1  0.282870  0.260750  0.073970  1.0
  C  C370  1  0.217130  0.760750  0.426030  1.0
  C  C371  1  0.717130  0.739250  0.926030  1.0
  C  C372  1  0.782870  0.239250  0.573970  1.0
  C  C373  1  0.346390  0.271200  0.110810  1.0
  C  C374  1  0.153610  0.771200  0.389190  1.0
  C  C375  1  0.653610  0.728800  0.889190  1.0
  C  C376  1  0.846390  0.228800  0.610810  1.0
  C  C377  1  0.362980  0.225060  0.145680  1.0
  C  C378  1  0.137020  0.725060  0.354320  1.0
  C  C379  1  0.637020  0.774940  0.854320  1.0
  C  C380  1  0.862980  0.274940  0.645680  1.0
  C  C381  1  0.126160  0.055820  0.297240  1.0
  C  C382  1  0.373840  0.555820  0.202760  1.0
  C  C383  1  0.873840  0.944180  0.702760  1.0
  C  C384  1  0.626160  0.444180  0.797240  1.0
  C  C385  1  0.066700  0.012750  0.287010  1.0
  C  C386  1  0.433300  0.512750  0.212990  1.0
  C  C387  1  0.933300  0.987250  0.712990  1.0
  C  C388  1  0.566700  0.487250  0.787010  1.0
  C  C389  1  0.994910  0.035930  0.298480  1.0
  C  C390  1  0.505090  0.535930  0.201520  1.0
  C  C391  1  0.005090  0.964070  0.701520  1.0
  C  C392  1  0.494910  0.464070  0.798480  1.0
  C  C393  1  0.992340  0.093880  0.318380  1.0
  C  C394  1  0.507660  0.593880  0.181620  1.0
  C  C395  1  0.007660  0.906120  0.681620  1.0
  C  C396  1  0.492340  0.406120  0.818380  1.0
  C  C397  1  0.054820  0.138630  0.330670  1.0
  C  C398  1  0.445180  0.638630  0.169330  1.0
  C  C399  1  0.945180  0.861370  0.669330  1.0
  C  C400  1  0.554820  0.361370  0.830670  1.0
  C  C401  1  0.120780  0.113720  0.322160  1.0
  C  C402  1  0.379220  0.613720  0.177840  1.0
  C  C403  1  0.879220  0.886280  0.677840  1.0
  C  C404  1  0.620780  0.386280  0.822160  1.0
  C  C405  1  0.369140  0.653310  0.542410  1.0
  C  C406  1  0.130860  0.153310  0.957590  1.0
  C  C407  1  0.630860  0.346690  0.457590  1.0
  C  C408  1  0.869140  0.846690  0.042410  1.0
  C  C409  1  0.351450  0.692150  0.576370  1.0
  C  C410  1  0.148550  0.192150  0.923630  1.0
  C  C411  1  0.648550  0.307850  0.423630  1.0
  C  C412  1  0.851450  0.807850  0.076370  1.0
  C  C413  1  0.407820  0.733940  0.590710  1.0
  C  C414  1  0.092180  0.233940  0.909290  1.0
  C  C415  1  0.592180  0.266060  0.409290  1.0
  C  C416  1  0.907820  0.766060  0.090710  1.0
  C  C417  1  0.462800  0.722820  0.566490  1.0
  C  C418  1  0.037200  0.222820  0.933510  1.0
  C  C419  1  0.537200  0.277180  0.433510  1.0
  C  C420  1  0.962800  0.777180  0.066490  1.0
  C  C421  1  0.532250  0.755600  0.573410  1.0
  C  C422  1  0.967750  0.255600  0.926590  1.0
  C  C423  1  0.467750  0.244400  0.426590  1.0
  C  C424  1  0.032250  0.744400  0.073410  1.0
  C  C425  1  0.591110  0.744080  0.552080  1.0
  C  C426  1  0.908890  0.244080  0.947920  1.0
  C  C427  1  0.408890  0.255920  0.447920  1.0
  C  C428  1  0.091110  0.755920  0.052080  1.0
  C  C429  1  0.659780  0.781410  0.557240  1.0
  C  C430  1  0.840220  0.281410  0.942760  1.0
  C  C431  1  0.340220  0.218590  0.442760  1.0
  C  C432  1  0.159780  0.718590  0.057240  1.0
  C  C433  1  0.699570  0.753780  0.529810  1.0
  C  C434  1  0.800430  0.253780  0.970190  1.0
  C  C435  1  0.300430  0.246220  0.470190  1.0
  C  C436  1  0.199570  0.746220  0.029810  1.0
  C  C437  1  0.649990  0.702300  0.504230  1.0
  C  C438  1  0.850010  0.202300  0.995770  1.0
  C  C439  1  0.350010  0.297700  0.495770  1.0
  C  C440  1  0.149990  0.797700  0.004230  1.0
  C  C441  1  0.663930  0.667070  0.469200  1.0
  C  C442  1  0.836070  0.167070  0.030800  1.0
  C  C443  1  0.336070  0.332930  0.530800  1.0
  C  C444  1  0.163930  0.832930  0.969200  1.0
  C  C445  1  0.616630  0.614230  0.444500  1.0
  C  C446  1  0.883370  0.114230  0.055500  1.0
  C  C447  1  0.383370  0.385770  0.555500  1.0
  C  C448  1  0.116630  0.885770  0.944500  1.0
  C  C449  1  0.630430  0.589050  0.403120  1.0
  C  C450  1  0.869570  0.089050  0.096880  1.0
  C  C451  1  0.369570  0.410950  0.596880  1.0
  C  C452  1  0.130430  0.910950  0.903120  1.0
  C  C453  1  0.569660  0.547630  0.388610  1.0
  C  C454  1  0.930340  0.047630  0.111390  1.0
  C  C455  1  0.430340  0.452370  0.611390  1.0
  C  C456  1  0.069660  0.952370  0.888610  1.0
  C  C457  1  0.520910  0.549010  0.418740  1.0
  C  C458  1  0.979090  0.049010  0.081260  1.0
  C  C459  1  0.479090  0.450990  0.581260  1.0
  C  C460  1  0.020910  0.950990  0.918740  1.0
  C  C461  1  0.450950  0.515640  0.411830  1.0
  C  C462  1  0.049050  0.015640  0.088170  1.0
  C  C463  1  0.549050  0.484360  0.588170  1.0
  C  C464  1  0.950950  0.984360  0.911830  1.0
  C  C465  1  0.399150  0.520890  0.438760  1.0
  C  C466  1  0.100850  0.020890  0.061240  1.0
  C  C467  1  0.600850  0.479110  0.561240  1.0
  C  C468  1  0.899150  0.979110  0.938760  1.0
  C  C469  1  0.333950  0.478600  0.437060  1.0
  C  C470  1  0.166050  0.978600  0.062940  1.0
  C  C471  1  0.666050  0.521400  0.562940  1.0
  C  C472  1  0.833950  0.021400  0.937060  1.0
  C  C473  1  0.299100  0.503430  0.466820  1.0
  C  C474  1  0.200900  0.003430  0.033180  1.0
  C  C475  1  0.700900  0.496570  0.533180  1.0
  C  C476  1  0.799100  0.996570  0.966820  1.0
  C  C477  1  0.343870  0.560510  0.486300  1.0
  C  C478  1  0.156130  0.060510  0.013700  1.0
  C  C479  1  0.656130  0.439490  0.513700  1.0
  C  C480  1  0.843870  0.939490  0.986300  1.0
  C  C481  1  0.322870  0.601350  0.519190  1.0
  C  C482  1  0.177130  0.101350  0.980810  1.0
  C  C483  1  0.677130  0.398650  0.480810  1.0
  C  C484  1  0.822870  0.898650  0.019190  1.0
  C  C485  1  0.553160  0.810090  0.608280  1.0
  C  C486  1  0.946840  0.310090  0.891720  1.0
  C  C487  1  0.446840  0.189910  0.391720  1.0
  C  C488  1  0.053160  0.689910  0.108280  1.0
  C  C489  1  0.523280  0.874390  0.599770  1.0
  C  C490  1  0.976720  0.374390  0.900230  1.0
  C  C491  1  0.476720  0.125610  0.400230  1.0
  C  C492  1  0.023280  0.625610  0.099770  1.0
  C  C493  1  0.541540  0.920830  0.634520  1.0
  C  C494  1  0.958460  0.420830  0.865480  1.0
  C  C495  1  0.458460  0.079170  0.365480  1.0
  C  C496  1  0.041540  0.579170  0.134520  1.0
  C  C497  1  0.388530  0.155480  0.315360  1.0
  C  C498  1  0.111470  0.655480  0.184640  1.0
  C  C499  1  0.611470  0.844520  0.684640  1.0
  C  C500  1  0.888530  0.344520  0.815360  1.0
  C  C501  1  0.596520  0.795610  0.651670  1.0
  C  C502  1  0.903480  0.295610  0.848330  1.0
  C  C503  1  0.403480  0.204390  0.348330  1.0
  C  C504  1  0.096520  0.704390  0.151670  1.0
  C  C505  1  0.739720  0.679420  0.457680  1.0
  C  C506  1  0.760280  0.179420  0.042320  1.0
  C  C507  1  0.260280  0.320580  0.542320  1.0
  C  C508  1  0.239720  0.820580  0.957680  1.0
  C  C509  1  0.746990  0.737370  0.433820  1.0
  C  C510  1  0.753010  0.237370  0.066180  1.0
  C  C511  1  0.253010  0.262630  0.566180  1.0
  C  C512  1  0.246990  0.762630  0.933820  1.0
  C  C513  1  0.813480  0.749440  0.421180  1.0
  C  C514  1  0.686520  0.249440  0.078820  1.0
  C  C515  1  0.186520  0.250560  0.578820  1.0
  C  C516  1  0.313480  0.750560  0.921180  1.0
  C  C517  1  0.873490  0.707790  0.430280  1.0
  C  C518  1  0.626510  0.207790  0.069720  1.0
  C  C519  1  0.126510  0.292210  0.569720  1.0
  C  C520  1  0.373490  0.792210  0.930280  1.0
  C  C521  1  0.865720  0.647690  0.452240  1.0
  C  C522  1  0.634280  0.147690  0.047760  1.0
  C  C523  1  0.134280  0.352310  0.547760  1.0
  C  C524  1  0.365720  0.852310  0.952240  1.0
  C  C525  1  0.799520  0.636070  0.465780  1.0
  C  C526  1  0.700480  0.136070  0.034220  1.0
  C  C527  1  0.200480  0.363930  0.534220  1.0
  C  C528  1  0.299520  0.863930  0.965780  1.0
  C  C529  1  0.429590  0.465900  0.373440  1.0
  C  C530  1  0.070410  0.965900  0.126560  1.0
  C  C531  1  0.570410  0.534100  0.626560  1.0
  C  C532  1  0.929590  0.034100  0.873440  1.0
  C  C533  1  0.357470  0.469930  0.339300  1.0
  C  C534  1  0.142530  0.969930  0.160700  1.0
  C  C535  1  0.642530  0.530070  0.660700  1.0
  C  C536  1  0.857470  0.030070  0.839300  1.0
  C  C537  1  0.338600  0.430770  0.304390  1.0
  C  C538  1  0.161400  0.930770  0.195610  1.0
  C  C539  1  0.661400  0.569230  0.695610  1.0
  C  C540  1  0.838600  0.069230  0.804390  1.0
  C  C541  1  0.391420  0.381830  0.300890  1.0
  C  C542  1  0.108580  0.881830  0.199110  1.0
  C  C543  1  0.608580  0.618170  0.699110  1.0
  C  C544  1  0.891420  0.118170  0.800890  1.0
  C  C545  1  0.461660  0.371800  0.332960  1.0
  C  C546  1  0.038340  0.871800  0.167040  1.0
  C  C547  1  0.538340  0.628200  0.667040  1.0
  C  C548  1  0.961660  0.128200  0.832960  1.0
  C  C549  1  0.481240  0.412670  0.368420  1.0
  C  C550  1  0.018760  0.912670  0.131580  1.0
  C  C551  1  0.518760  0.587330  0.631580  1.0
  C  C552  1  0.981240  0.087330  0.868420  1.0
  C  C553  1  0.250510  0.584920  0.531370  1.0
  C  C554  1  0.249490  0.084920  0.968630  1.0
  C  C555  1  0.749490  0.415080  0.468630  1.0
  C  C556  1  0.750510  0.915080  0.031370  1.0
  C  C557  1  0.178380  0.608440  0.504210  1.0
  C  C558  1  0.321620  0.108440  0.995790  1.0
  C  C559  1  0.821620  0.391560  0.495790  1.0
  C  C560  1  0.678380  0.891560  0.004210  1.0
  C  C561  1  0.111850  0.592950  0.514370  1.0
  C  C562  1  0.388150  0.092950  0.985630  1.0
  C  C563  1  0.888150  0.407050  0.485630  1.0
  C  C564  1  0.611850  0.907050  0.014370  1.0
  C  C565  1  0.112650  0.559100  0.552350  1.0
  C  C566  1  0.387350  0.059100  0.947650  1.0
  C  C567  1  0.887350  0.440900  0.447650  1.0
  C  C568  1  0.612650  0.940900  0.052350  1.0
  C  C569  1  0.182510  0.536600  0.580340  1.0
  C  C570  1  0.317490  0.036600  0.919660  1.0
  C  C571  1  0.817490  0.463400  0.419660  1.0
  C  C572  1  0.682510  0.963400  0.080340  1.0
  C  C573  1  0.247900  0.553710  0.569400  1.0
  C  C574  1  0.252100  0.053710  0.930600  1.0
  C  C575  1  0.752100  0.446290  0.430600  1.0
  C  C576  1  0.747900  0.946290  0.069400  1.0
  I  I577  1  0.963566  0.725096  0.403871  1
  I  I578  1  0.536434  0.225096  0.096129  1
  I  I579  1  0.036434  0.274904  0.596129  1
  I  I580  1  0.463566  0.774904  0.903871  1
  I  I581  1  0.871053  0.919981  0.199885  1.0
  I  I582  1  0.628947  0.419981  0.300115  1.0
  I  I583  1  0.128947  0.080019  0.800115  1.0
  I  I584  1  0.371053  0.580019  0.699885  1.0
  I  I585  1  0.257591  0.329169  0.020324  1.0
  I  I586  1  0.242409  0.829169  0.479676  1.0
  I  I587  1  0.742409  0.670831  0.979676  1.0
  I  I588  1  0.757591  0.170831  0.520324  1.0
  I  I589  1  0.887159  0.121222  0.332168  1.0
  I  I590  1  0.612841  0.621222  0.167832  1.0
  I  I591  1  0.112841  0.878778  0.667832  1.0
  I  I592  1  0.387159  0.378778  0.832168  1.0
  I  I593  1  0.987346  0.728230  0.423197  1.0
  I  I594  1  0.512654  0.228230  0.076803  1.0
  I  I595  1  0.012654  0.271770  0.576803  1.0
  I  I596  1  0.487346  0.771770  0.923197  1.0
  I  I597  1  0.364545  0.318408  0.243294  1.0
  I  I598  1  0.135455  0.818408  0.256706  1.0
  I  I599  1  0.635455  0.681592  0.756706  1.0
  I  I600  1  0.864545  0.181592  0.743294  1.0
  I  I601  1  0.007473  0.536189  0.567705  1.0
  I  I602  1  0.492527  0.036189  0.932295  1.0
  I  I603  1  0.992527  0.463811  0.432295  1.0
  I  I604  1  0.507473  0.963811  0.067705  1.0
  N  N605  1  0.317350  0.967700  0.308590  1.0
  N  N606  1  0.182650  0.467700  0.191410  1.0
  N  N607  1  0.682650  0.032300  0.691410  1.0
  N  N608  1  0.817350  0.532300  0.808590  1.0
  N  N609  1  0.468590  0.946940  0.296770  1.0
  N  N610  1  0.031410  0.446940  0.203230  1.0
  N  N611  1  0.531410  0.053060  0.703230  1.0
  N  N612  1  0.968590  0.553060  0.796770  1.0
  N  N613  1  0.434320  0.045630  0.225300  1.0
  N  N614  1  0.065680  0.545630  0.274700  1.0
  N  N615  1  0.565680  0.954370  0.774700  1.0
  N  N616  1  0.934320  0.454370  0.725300  1.0
  N  N617  1  0.283970  0.066280  0.238360  1.0
  N  N618  1  0.216030  0.566280  0.261640  1.0
  N  N619  1  0.716030  0.933720  0.761640  1.0
  N  N620  1  0.783970  0.433720  0.738360  1.0
  N  N621  1  0.451840  0.718460  0.438950  1.0
  N  N622  1  0.048160  0.218460  0.061050  1.0
  N  N623  1  0.548160  0.281540  0.561050  1.0
  N  N624  1  0.951840  0.781540  0.938950  1.0
  N  N625  1  0.437730  0.672190  0.536800  1.0
  N  N626  1  0.062270  0.172190  0.963200  1.0
  N  N627  1  0.562270  0.327810  0.463200  1.0
  N  N628  1  0.937730  0.827810  0.036800  1.0
  N  N629  1  0.585120  0.696150  0.518340  1.0
  N  N630  1  0.914880  0.196150  0.981660  1.0
  N  N631  1  0.414880  0.303850  0.481660  1.0
  N  N632  1  0.085120  0.803850  0.018340  1.0
  N  N633  1  0.550310  0.592410  0.452160  1.0
  N  N634  1  0.949690  0.092410  0.047840  1.0
  N  N635  1  0.449690  0.407590  0.547840  1.0
  N  N636  1  0.050310  0.907590  0.952160  1.0
  N  N637  1  0.404760  0.568580  0.470000  1.0
  N  N638  1  0.095240  0.068580  0.030000  1.0
  N  N639  1  0.595240  0.431420  0.530000  1.0
  N  N640  1  0.904760  0.931420  0.970000  1.0
  N  N641  1  0.415370  0.093660  0.324460  1.0
  N  N642  1  0.084630  0.593660  0.175540  1.0
  N  N643  1  0.584630  0.906340  0.675540  1.0
  N  N644  1  0.915370  0.406340  0.824460  1.0
