# generated using pymatgen
data_Co2H48C86I7N10
_symmetry_space_group_name_H-M   'P 1'
_cell_length_a   15.63320000
_cell_length_b   19.72260000
_cell_length_c   29.58310000
_cell_angle_alpha   90.00000000
_cell_angle_beta   101.89750000
_cell_angle_gamma   90.00000000
_symmetry_Int_Tables_number   1
_chemical_formula_structural   Co2H48C86I7N10
_chemical_formula_sum   'Co8 H192 C344 I28 N40'
_cell_volume   8925.33535676
_cell_formula_units_Z   4
loop_
 _symmetry_equiv_pos_site_id
 _symmetry_equiv_pos_as_xyz
  1  'x, y, z'
loop_
 _atom_site_type_symbol
 _atom_site_label
 _atom_site_symmetry_multiplicity
 _atom_site_fract_x
 _atom_site_fract_y
 _atom_site_fract_z
 _atom_site_occupancy
  Co  Co1  1  0.005140  0.129090  0.508140  1.0
  Co  Co2  1  0.494860  0.629090  0.991860  1.0
  Co  Co3  1  0.994860  0.870910  0.491860  1.0
  Co  Co4  1  0.505140  0.370910  0.008140  1.0
  Co  Co5  1  0.697960  0.491000  0.317690  1.0
  Co  Co6  1  0.802040  0.991000  0.182310  1.0
  Co  Co7  1  0.302040  0.509000  0.682310  1.0
  Co  Co8  1  0.197960  0.009000  0.817690  1.0
  H  H9  1  0.122800  0.251300  0.381500  1.0
  H  H10  1  0.377200  0.751300  0.118500  1.0
  H  H11  1  0.877200  0.748700  0.618500  1.0
  H  H12  1  0.622800  0.248700  0.881500  1.0
  H  H13  1  0.967100  0.287300  0.369500  1.0
  H  H14  1  0.532900  0.787300  0.130500  1.0
  H  H15  1  0.032900  0.712700  0.630500  1.0
  H  H16  1  0.467100  0.212700  0.869500  1.0
  H  H17  1  0.713700  0.250600  0.462700  1.0
  H  H18  1  0.786300  0.750600  0.037300  1.0
  H  H19  1  0.286300  0.749400  0.537300  1.0
  H  H20  1  0.213700  0.249400  0.962700  1.0
  H  H21  1  0.684800  0.160900  0.514200  1.0
  H  H22  1  0.815200  0.660900  0.985800  1.0
  H  H23  1  0.315200  0.839100  0.485800  1.0
  H  H24  1  0.184800  0.339100  0.014200  1.0
  H  H25  1  0.870200  0.954500  0.598900  1.0
  H  H26  1  0.629800  0.454500  0.901100  1.0
  H  H27  1  0.129800  0.045500  0.401100  1.0
  H  H28  1  0.370200  0.545500  0.098900  1.0
  H  H29  1  0.029300  0.929000  0.617000  1.0
  H  H30  1  0.470700  0.429000  0.883000  1.0
  H  H31  1  0.970700  0.071000  0.383000  1.0
  H  H32  1  0.529300  0.571000  0.117000  1.0
  H  H33  1  0.311400  0.053000  0.584300  1.0
  H  H34  1  0.188600  0.553000  0.915700  1.0
  H  H35  1  0.688600  0.947000  0.415700  1.0
  H  H36  1  0.811400  0.447000  0.084300  1.0
  H  H37  1  0.337500  0.128900  0.525500  1.0
  H  H38  1  0.162500  0.628900  0.974500  1.0
  H  H39  1  0.662500  0.871100  0.474500  1.0
  H  H40  1  0.837500  0.371100  0.025500  1.0
  H  H41  1  0.916500  0.373300  0.443500  1.0
  H  H42  1  0.583500  0.873300  0.056500  1.0
  H  H43  1  0.083500  0.626700  0.556500  1.0
  H  H44  1  0.416500  0.126700  0.943500  1.0
  H  H45  1  0.847400  0.465900  0.401800  1.0
  H  H46  1  0.652600  0.965900  0.098200  1.0
  H  H47  1  0.152600  0.534100  0.598200  1.0
  H  H48  1  0.347400  0.034100  0.901800  1.0
  H  H49  1  0.661600  0.340600  0.331000  1.0
  H  H50  1  0.838400  0.840600  0.169000  1.0
  H  H51  1  0.338400  0.659400  0.669000  1.0
  H  H52  1  0.161600  0.159400  0.831000  1.0
  H  H53  1  0.730700  0.248000  0.372700  1.0
  H  H54  1  0.769300  0.748000  0.127300  1.0
  H  H55  1  0.269300  0.752000  0.627300  1.0
  H  H56  1  0.230700  0.252000  0.872700  1.0
  H  H57  1  0.678600  0.022000  0.496500  1.0
  H  H58  1  0.821400  0.522000  0.003500  1.0
  H  H59  1  0.321400  0.978000  0.503500  1.0
  H  H60  1  0.178600  0.478000  0.996500  1.0
  H  H61  1  0.556200  0.977200  0.519900  1.0
  H  H62  1  0.943800  0.477200  0.980100  1.0
  H  H63  1  0.443800  0.022800  0.480100  1.0
  H  H64  1  0.056200  0.522800  0.019900  1.0
  H  H65  1  0.667300  0.018800  0.653300  1.0
  H  H66  1  0.832700  0.518800  0.846700  1.0
  H  H67  1  0.332700  0.981200  0.346700  1.0
  H  H68  1  0.167300  0.481200  0.153300  1.0
  H  H69  1  0.789700  0.063600  0.629800  1.0
  H  H70  1  0.710300  0.563600  0.870200  1.0
  H  H71  1  0.210300  0.936400  0.370200  1.0
  H  H72  1  0.289700  0.436400  0.129800  1.0
  H  H73  1  0.155600  0.008400  0.671500  1.0
  H  H74  1  0.344400  0.508400  0.828500  1.0
  H  H75  1  0.844400  0.991600  0.328500  1.0
  H  H76  1  0.655600  0.491600  0.171500  1.0
  H  H77  1  0.246600  0.937300  0.723700  1.0
  H  H78  1  0.253400  0.437300  0.776300  1.0
  H  H79  1  0.753400  0.062700  0.276300  1.0
  H  H80  1  0.746600  0.562700  0.223700  1.0
  H  H81  1  0.336100  0.851400  0.617900  1.0
  H  H82  1  0.163900  0.351400  0.882100  1.0
  H  H83  1  0.663900  0.148600  0.382100  1.0
  H  H84  1  0.836100  0.648600  0.117900  1.0
  H  H85  1  0.245100  0.922500  0.565700  1.0
  H  H86  1  0.254900  0.422500  0.934300  1.0
  H  H87  1  0.754900  0.077500  0.434300  1.0
  H  H88  1  0.745100  0.577500  0.065700  1.0
  H  H89  1  0.299900  0.267600  0.498900  1.0
  H  H90  1  0.200100  0.767600  0.001100  1.0
  H  H91  1  0.700100  0.732400  0.501100  1.0
  H  H92  1  0.799900  0.232400  0.998900  1.0
  H  H93  1  0.424000  0.306200  0.474000  1.0
  H  H94  1  0.076000  0.806200  0.026000  1.0
  H  H95  1  0.576000  0.693800  0.526000  1.0
  H  H96  1  0.924000  0.193800  0.974000  1.0
  H  H97  1  0.368900  0.179800  0.363800  1.0
  H  H98  1  0.131100  0.679800  0.136200  1.0
  H  H99  1  0.631100  0.820200  0.636200  1.0
  H  H100  1  0.868900  0.320200  0.863800  1.0
  H  H101  1  0.244800  0.141100  0.388700  1.0
  H  H102  1  0.255200  0.641100  0.111300  1.0
  H  H103  1  0.755200  0.858900  0.611300  1.0
  H  H104  1  0.744800  0.358900  0.888700  1.0
  H  H105  1  0.618800  0.619200  0.452400  1.0
  H  H106  1  0.881200  0.119200  0.047600  1.0
  H  H107  1  0.381200  0.380800  0.547600  1.0
  H  H108  1  0.118800  0.880800  0.952400  1.0
  H  H109  1  0.756500  0.670500  0.442700  1.0
  H  H110  1  0.743500  0.170500  0.057300  1.0
  H  H111  1  0.243500  0.329500  0.557300  1.0
  H  H112  1  0.256500  0.829500  0.942700  1.0
  H  H113  1  0.990500  0.619900  0.344300  1.0
  H  H114  1  0.509500  0.119900  0.155700  1.0
  H  H115  1  0.009500  0.380100  0.655700  1.0
  H  H116  1  0.490500  0.880100  0.844300  1.0
  H  H117  1  0.008700  0.522800  0.293200  1.0
  H  H118  1  0.491300  0.022800  0.206800  1.0
  H  H119  1  0.991300  0.477200  0.706800  1.0
  H  H120  1  0.508700  0.977200  0.793200  1.0
  H  H121  1  0.802300  0.332100  0.204200  1.0
  H  H122  1  0.697700  0.832100  0.295800  1.0
  H  H123  1  0.197700  0.667900  0.795800  1.0
  H  H124  1  0.302300  0.167900  0.704200  1.0
  H  H125  1  0.643000  0.314200  0.190500  1.0
  H  H126  1  0.857000  0.814200  0.309500  1.0
  H  H127  1  0.357000  0.685800  0.809500  1.0
  H  H128  1  0.143000  0.185800  0.690500  1.0
  H  H129  1  0.387200  0.402300  0.266800  1.0
  H  H130  1  0.112800  0.902300  0.233200  1.0
  H  H131  1  0.612800  0.597700  0.733200  1.0
  H  H132  1  0.887200  0.097700  0.766800  1.0
  H  H133  1  0.384300  0.467300  0.339400  1.0
  H  H134  1  0.115700  0.967300  0.160600  1.0
  H  H135  1  0.615700  0.532700  0.660600  1.0
  H  H136  1  0.884300  0.032700  0.839400  1.0
  H  H137  1  0.791600  0.747000  0.361000  1.0
  H  H138  1  0.708400  0.247000  0.139000  1.0
  H  H139  1  0.208400  0.253000  0.639000  1.0
  H  H140  1  0.291600  0.753000  0.861000  1.0
  H  H141  1  0.859400  0.841500  0.401000  1.0
  H  H142  1  0.640600  0.341500  0.099000  1.0
  H  H143  1  0.140600  0.158500  0.599000  1.0
  H  H144  1  0.359400  0.658500  0.901000  1.0
  H  H145  1  0.953400  0.280500  0.525700  1.0
  H  H146  1  0.546600  0.780500  0.974300  1.0
  H  H147  1  0.046600  0.719500  0.474300  1.0
  H  H148  1  0.453400  0.219500  0.025700  1.0
  H  H149  1  0.978700  0.625100  0.434300  1.0
  H  H150  1  0.521300  0.125100  0.065700  1.0
  H  H151  1  0.021300  0.374900  0.565700  1.0
  H  H152  1  0.478700  0.874900  0.934300  1.0
  H  H153  1  0.992300  0.361700  0.312900  1.0
  H  H154  1  0.507700  0.861700  0.187100  1.0
  H  H155  1  0.007700  0.638300  0.687100  1.0
  H  H156  1  0.492300  0.138300  0.812900  1.0
  H  H157  1  0.116900  0.318600  0.290800  1.0
  H  H158  1  0.383100  0.818600  0.209200  1.0
  H  H159  1  0.883100  0.681400  0.709200  1.0
  H  H160  1  0.616900  0.181400  0.790800  1.0
  H  H161  1  0.034800  0.397800  0.162800  1.0
  H  H162  1  0.465200  0.897800  0.337200  1.0
  H  H163  1  0.965200  0.602200  0.837200  1.0
  H  H164  1  0.534800  0.102200  0.662800  1.0
  H  H165  1  0.910100  0.440900  0.184900  1.0
  H  H166  1  0.589900  0.940900  0.315100  1.0
  H  H167  1  0.089900  0.559100  0.815100  1.0
  H  H168  1  0.410100  0.059100  0.684900  1.0
  H  H169  1  0.465800  0.283800  0.262700  1.0
  H  H170  1  0.034200  0.783800  0.237300  1.0
  H  H171  1  0.534200  0.716200  0.737300  1.0
  H  H172  1  0.965800  0.216200  0.762700  1.0
  H  H173  1  0.376800  0.208700  0.212600  1.0
  H  H174  1  0.123200  0.708700  0.287400  1.0
  H  H175  1  0.623200  0.791300  0.787400  1.0
  H  H176  1  0.876800  0.291300  0.712600  1.0
  H  H177  1  0.406600  0.323600  0.103300  1.0
  H  H178  1  0.093400  0.823600  0.396700  1.0
  H  H179  1  0.593400  0.676400  0.896700  1.0
  H  H180  1  0.906600  0.176400  0.603300  1.0
  H  H181  1  0.495500  0.398700  0.153400  1.0
  H  H182  1  0.004500  0.898700  0.346600  1.0
  H  H183  1  0.504500  0.601300  0.846600  1.0
  H  H184  1  0.995500  0.101300  0.653400  1.0
  H  H185  1  0.468400  0.437500  0.428200  1.0
  H  H186  1  0.031600  0.937500  0.071800  1.0
  H  H187  1  0.531600  0.562500  0.571800  1.0
  H  H188  1  0.968400  0.062500  0.928200  1.0
  H  H189  1  0.370100  0.455300  0.477000  1.0
  H  H190  1  0.129900  0.955300  0.023000  1.0
  H  H191  1  0.629900  0.544700  0.523000  1.0
  H  H192  1  0.870100  0.044700  0.977000  1.0
  H  H193  1  0.376300  0.657600  0.453500  1.0
  H  H194  1  0.123700  0.157600  0.046500  1.0
  H  H195  1  0.623700  0.342400  0.546500  1.0
  H  H196  1  0.876300  0.842400  0.953500  1.0
  H  H197  1  0.474600  0.639800  0.404700  1.0
  H  H198  1  0.025400  0.139800  0.095300  1.0
  H  H199  1  0.525400  0.360200  0.595300  1.0
  H  H200  1  0.974600  0.860200  0.904700  1.0
  C  C201  1  0.098900  0.198000  0.441200  1.0
  C  C202  1  0.401100  0.698000  0.058800  1.0
  C  C203  1  0.901100  0.802000  0.558800  1.0
  C  C204  1  0.598900  0.302000  0.941200  1.0
  C  C205  1  0.082200  0.239800  0.400200  1.0
  C  C206  1  0.417800  0.739800  0.099800  1.0
  C  C207  1  0.917800  0.760200  0.599800  1.0
  C  C208  1  0.582200  0.260200  0.900200  1.0
  C  C209  1  0.997500  0.259300  0.393600  1.0
  C  C210  1  0.502500  0.759300  0.106400  1.0
  C  C211  1  0.002500  0.740700  0.606400  1.0
  C  C212  1  0.497500  0.240700  0.893600  1.0
  C  C213  1  0.962500  0.229300  0.430300  1.0
  C  C214  1  0.537500  0.729300  0.069700  1.0
  C  C215  1  0.037500  0.770700  0.569700  1.0
  C  C216  1  0.462500  0.270700  0.930300  1.0
  C  C217  1  0.877500  0.243300  0.438600  1.0
  C  C218  1  0.622500  0.743300  0.061400  1.0
  C  C219  1  0.122500  0.756700  0.561400  1.0
  C  C220  1  0.377500  0.256700  0.938600  1.0
  C  C221  1  0.839900  0.205500  0.469000  1.0
  C  C222  1  0.660100  0.705500  0.031000  1.0
  C  C223  1  0.160100  0.794500  0.531000  1.0
  C  C224  1  0.339900  0.294500  0.969000  1.0
  C  C225  1  0.753000  0.215800  0.475900  1.0
  C  C226  1  0.747000  0.715800  0.024100  1.0
  C  C227  1  0.247000  0.784200  0.524100  1.0
  C  C228  1  0.253000  0.284200  0.975900  1.0
  C  C229  1  0.737900  0.168000  0.504000  1.0
  C  C230  1  0.762100  0.668000  0.996000  1.0
  C  C231  1  0.262100  0.832000  0.496000  1.0
  C  C232  1  0.237900  0.332000  0.004000  1.0
  C  C233  1  0.816200  0.127900  0.516800  1.0
  C  C234  1  0.683800  0.627900  0.983200  1.0
  C  C235  1  0.183800  0.872100  0.483200  1.0
  C  C236  1  0.316200  0.372100  0.016800  1.0
  C  C237  1  0.824600  0.070600  0.545400  1.0
  C  C238  1  0.675400  0.570600  0.954600  1.0
  C  C239  1  0.175400  0.929400  0.454600  1.0
  C  C240  1  0.324600  0.429400  0.045400  1.0
  C  C241  1  0.905300  0.036600  0.560600  1.0
  C  C242  1  0.594700  0.536600  0.939400  1.0
  C  C243  1  0.094700  0.963400  0.439400  1.0
  C  C244  1  0.405300  0.463400  0.060600  1.0
  C  C245  1  0.915000  0.978800  0.588700  1.0
  C  C246  1  0.585000  0.478800  0.911300  1.0
  C  C247  1  0.085000  0.021200  0.411300  1.0
  C  C248  1  0.415000  0.521200  0.088700  1.0
  C  C249  1  0.001500  0.964900  0.598100  1.0
  C  C250  1  0.498500  0.464900  0.901900  1.0
  C  C251  1  0.998500  0.035100  0.401900  1.0
  C  C252  1  0.501500  0.535100  0.098100  1.0
  C  C253  1  0.043100  0.013200  0.575000  1.0
  C  C254  1  0.456900  0.513200  0.925000  1.0
  C  C255  1  0.956900  0.986800  0.425000  1.0
  C  C256  1  0.543100  0.486800  0.075000  1.0
  C  C257  1  0.134400  0.016600  0.579700  1.0
  C  C258  1  0.365600  0.516600  0.920300  1.0
  C  C259  1  0.865600  0.983400  0.420300  1.0
  C  C260  1  0.634400  0.483400  0.079700  1.0
  C  C261  1  0.172200  0.061500  0.554300  1.0
  C  C262  1  0.327800  0.561500  0.945700  1.0
  C  C263  1  0.827800  0.938500  0.445700  1.0
  C  C264  1  0.672200  0.438500  0.054300  1.0
  C  C265  1  0.267800  0.073000  0.561000  1.0
  C  C266  1  0.232200  0.573000  0.939000  1.0
  C  C267  1  0.732200  0.927000  0.439000  1.0
  C  C268  1  0.767800  0.427000  0.061000  1.0
  C  C269  1  0.281800  0.114500  0.529900  1.0
  C  C270  1  0.218200  0.614500  0.970100  1.0
  C  C271  1  0.718200  0.885500  0.470100  1.0
  C  C272  1  0.781800  0.385500  0.029900  1.0
  C  C273  1  0.196200  0.136200  0.501800  1.0
  C  C274  1  0.303800  0.636200  0.998200  1.0
  C  C275  1  0.803800  0.863800  0.498200  1.0
  C  C276  1  0.696200  0.363800  0.001800  1.0
  C  C277  1  0.182100  0.176800  0.463500  1.0
  C  C278  1  0.317900  0.676800  0.036500  1.0
  C  C279  1  0.817900  0.823200  0.536500  1.0
  C  C280  1  0.682100  0.323200  0.963500  1.0
  C  C281  1  0.830100  0.301900  0.412000  1.0
  C  C282  1  0.669900  0.801900  0.088000  1.0
  C  C283  1  0.169900  0.698100  0.588000  1.0
  C  C284  1  0.330100  0.198100  0.912000  1.0
  C  C285  1  0.864700  0.366700  0.420630  1.0
  C  C286  1  0.635300  0.866700  0.079370  1.0
  C  C287  1  0.135300  0.633300  0.579370  1.0
  C  C288  1  0.364700  0.133300  0.920630  1.0
  C  C289  1  0.823700  0.421700  0.395860  1.0
  C  C290  1  0.676300  0.921700  0.104140  1.0
  C  C291  1  0.176300  0.578300  0.604140  1.0
  C  C292  1  0.323700  0.078300  0.895860  1.0
  C  C293  1  0.713300  0.347200  0.353810  1.0
  C  C294  1  0.786700  0.847200  0.146190  1.0
  C  C295  1  0.286700  0.652800  0.646190  1.0
  C  C296  1  0.213300  0.152800  0.853810  1.0
  C  C297  1  0.754400  0.292210  0.378580  1.0
  C  C298  1  0.745600  0.792210  0.121420  1.0
  C  C299  1  0.245600  0.707790  0.621420  1.0
  C  C300  1  0.254400  0.207790  0.878580  1.0
  C  C301  1  0.745600  0.047000  0.560920  1.0
  C  C302  1  0.754400  0.547000  0.939080  1.0
  C  C303  1  0.254400  0.953000  0.439080  1.0
  C  C304  1  0.245600  0.453000  0.060920  1.0
  C  C305  1  0.676300  0.021400  0.528290  1.0
  C  C306  1  0.823700  0.521400  0.971710  1.0
  C  C307  1  0.323700  0.978600  0.471710  1.0
  C  C308  1  0.176300  0.478600  0.028290  1.0
  C  C309  1  0.603600  0.994800  0.542200  1.0
  C  C310  1  0.896400  0.494800  0.957800  1.0
  C  C311  1  0.396400  0.005200  0.457800  1.0
  C  C312  1  0.103600  0.505200  0.042200  1.0
  C  C313  1  0.600200  0.993800  0.588800  1.0
  C  C314  1  0.899800  0.493800  0.911200  1.0
  C  C315  1  0.399800  0.006200  0.411200  1.0
  C  C316  1  0.100200  0.506200  0.088800  1.0
  C  C317  1  0.669600  0.019500  0.621460  1.0
  C  C318  1  0.830400  0.519500  0.878540  1.0
  C  C319  1  0.330400  0.980500  0.378540  1.0
  C  C320  1  0.169600  0.480500  0.121460  1.0
  C  C321  1  0.742300  0.046100  0.607500  1.0
  C  C322  1  0.757700  0.546100  0.892500  1.0
  C  C323  1  0.257700  0.953900  0.392500  1.0
  C  C324  1  0.242300  0.453900  0.107500  1.0
  C  C325  1  0.191800  0.972200  0.613660  1.0
  C  C326  1  0.308200  0.472200  0.886340  1.0
  C  C327  1  0.808200  0.027800  0.386340  1.0
  C  C328  1  0.691800  0.527800  0.113660  1.0
  C  C329  1  0.192200  0.976600  0.660600  1.0
  C  C330  1  0.307800  0.476600  0.839400  1.0
  C  C331  1  0.807800  0.023400  0.339400  1.0
  C  C332  1  0.692200  0.523400  0.160600  1.0
  C  C333  1  0.246300  0.934300  0.691650  1.0
  C  C334  1  0.253700  0.434300  0.808350  1.0
  C  C335  1  0.753700  0.065700  0.308350  1.0
  C  C336  1  0.746300  0.565700  0.191650  1.0
  C  C337  1  0.299900  0.887700  0.675750  1.0
  C  C338  1  0.200100  0.387700  0.824250  1.0
  C  C339  1  0.700100  0.112300  0.324250  1.0
  C  C340  1  0.799900  0.612300  0.175750  1.0
  C  C341  1  0.299400  0.883300  0.628810  1.0
  C  C342  1  0.200600  0.383300  0.871190  1.0
  C  C343  1  0.700600  0.116700  0.371190  1.0
  C  C344  1  0.799400  0.616700  0.128810  1.0
  C  C345  1  0.245400  0.925500  0.597760  1.0
  C  C346  1  0.254600  0.425500  0.902240  1.0
  C  C347  1  0.754600  0.074500  0.402240  1.0
  C  C348  1  0.745400  0.574500  0.097760  1.0
  C  C349  1  0.260700  0.200700  0.446200  1.0
  C  C350  1  0.239300  0.700700  0.053800  1.0
  C  C351  1  0.739300  0.799300  0.553800  1.0
  C  C352  1  0.760700  0.299300  0.946200  1.0
  C  C353  1  0.313900  0.249700  0.471500  1.0
  C  C354  1  0.186100  0.749700  0.028500  1.0
  C  C355  1  0.686100  0.750300  0.528500  1.0
  C  C356  1  0.813900  0.250300  0.971500  1.0
  C  C357  1  0.387600  0.272700  0.456700  1.0
  C  C358  1  0.112400  0.772700  0.043300  1.0
  C  C359  1  0.612400  0.727300  0.543300  1.0
  C  C360  1  0.887600  0.227300  0.956700  1.0
  C  C361  1  0.408100  0.246600  0.416600  1.0
  C  C362  1  0.091900  0.746600  0.083400  1.0
  C  C363  1  0.591900  0.753400  0.583400  1.0
  C  C364  1  0.908100  0.253400  0.916600  1.0
  C  C365  1  0.354900  0.197600  0.391300  1.0
  C  C366  1  0.145100  0.697600  0.108700  1.0
  C  C367  1  0.645100  0.802400  0.608700  1.0
  C  C368  1  0.854900  0.302400  0.891300  1.0
  C  C369  1  0.281200  0.174600  0.406000  1.0
  C  C370  1  0.218800  0.674600  0.094000  1.0
  C  C371  1  0.718800  0.825400  0.594000  1.0
  C  C372  1  0.781200  0.325400  0.906000  1.0
  C  C373  1  0.625500  0.558700  0.392700  1.0
  C  C374  1  0.874500  0.058700  0.107300  1.0
  C  C375  1  0.374500  0.441300  0.607300  1.0
  C  C376  1  0.125500  0.941300  0.892700  1.0
  C  C377  1  0.650300  0.608300  0.429100  1.0
  C  C378  1  0.849700  0.108300  0.070900  1.0
  C  C379  1  0.349700  0.391700  0.570900  1.0
  C  C380  1  0.150300  0.891700  0.929100  1.0
  C  C381  1  0.725100  0.635700  0.424100  1.0
  C  C382  1  0.774900  0.135700  0.075900  1.0
  C  C383  1  0.274900  0.364300  0.575900  1.0
  C  C384  1  0.225100  0.864300  0.924100  1.0
  C  C385  1  0.749800  0.603700  0.385900  1.0
  C  C386  1  0.750200  0.103700  0.114100  1.0
  C  C387  1  0.250200  0.396300  0.614100  1.0
  C  C388  1  0.249800  0.896300  0.885900  1.0
  C  C389  1  0.827900  0.617100  0.371900  1.0
  C  C390  1  0.672100  0.117100  0.128100  1.0
  C  C391  1  0.172100  0.382900  0.628100  1.0
  C  C392  1  0.327900  0.882900  0.871900  1.0
  C  C393  1  0.858800  0.577600  0.339900  1.0
  C  C394  1  0.641200  0.077600  0.160100  1.0
  C  C395  1  0.141200  0.422400  0.660100  1.0
  C  C396  1  0.358800  0.922400  0.839900  1.0
  C  C397  1  0.949000  0.585800  0.332500  1.0
  C  C398  1  0.551000  0.085800  0.167500  1.0
  C  C399  1  0.051000  0.414200  0.667500  1.0
  C  C400  1  0.449000  0.914200  0.832500  1.0
  C  C401  1  0.957700  0.532600  0.304800  1.0
  C  C402  1  0.542300  0.032600  0.195200  1.0
  C  C403  1  0.042300  0.467400  0.695200  1.0
  C  C404  1  0.457700  0.967400  0.804800  1.0
  C  C405  1  0.878700  0.493000  0.295500  1.0
  C  C406  1  0.621300  0.993000  0.204500  1.0
  C  C407  1  0.121300  0.507000  0.704500  1.0
  C  C408  1  0.378700  0.007000  0.795500  1.0
  C  C409  1  0.862700  0.437100  0.267600  1.0
  C  C410  1  0.637300  0.937100  0.232400  1.0
  C  C411  1  0.137300  0.562900  0.732400  1.0
  C  C412  1  0.362700  0.062900  0.767600  1.0
  C  C413  1  0.781800  0.409300  0.251900  1.0
  C  C414  1  0.718200  0.909300  0.248100  1.0
  C  C415  1  0.218200  0.590700  0.748100  1.0
  C  C416  1  0.281800  0.090700  0.751900  1.0
  C  C417  1  0.762000  0.355900  0.218400  1.0
  C  C418  1  0.738000  0.855900  0.281600  1.0
  C  C419  1  0.238000  0.644100  0.781600  1.0
  C  C420  1  0.262000  0.144100  0.718400  1.0
  C  C421  1  0.675400  0.346400  0.211200  1.0
  C  C422  1  0.824600  0.846400  0.288800  1.0
  C  C423  1  0.324600  0.653600  0.788800  1.0
  C  C424  1  0.175400  0.153600  0.711200  1.0
  C  C425  1  0.639200  0.393300  0.240000  1.0
  C  C426  1  0.860800  0.893300  0.260000  1.0
  C  C427  1  0.360800  0.606700  0.760000  1.0
  C  C428  1  0.139200  0.106700  0.740000  1.0
  C  C429  1  0.550300  0.393700  0.243700  1.0
  C  C430  1  0.949700  0.893700  0.256300  1.0
  C  C431  1  0.449700  0.606300  0.756300  1.0
  C  C432  1  0.050300  0.106300  0.743700  1.0
  C  C433  1  0.523000  0.428300  0.279700  1.0
  C  C434  1  0.977000  0.928300  0.220300  1.0
  C  C435  1  0.477000  0.571700  0.720300  1.0
  C  C436  1  0.023000  0.071700  0.779700  1.0
  C  C437  1  0.435000  0.424700  0.286100  1.0
  C  C438  1  0.065000  0.924700  0.213900  1.0
  C  C439  1  0.565000  0.575300  0.713900  1.0
  C  C440  1  0.935000  0.075300  0.786100  1.0
  C  C441  1  0.433800  0.460500  0.325900  1.0
  C  C442  1  0.066200  0.960500  0.174100  1.0
  C  C443  1  0.566200  0.539500  0.674100  1.0
  C  C444  1  0.933800  0.039500  0.825900  1.0
  C  C445  1  0.520900  0.485800  0.343500  1.0
  C  C446  1  0.979100  0.985800  0.156500  1.0
  C  C447  1  0.479100  0.514200  0.656500  1.0
  C  C448  1  0.020900  0.014200  0.843500  1.0
  C  C449  1  0.546000  0.524300  0.381500  1.0
  C  C450  1  0.954000  0.024300  0.118500  1.0
  C  C451  1  0.454000  0.475700  0.618500  1.0
  C  C452  1  0.046000  0.975700  0.881500  1.0
  C  C453  1  0.878800  0.677200  0.393880  1.0
  C  C454  1  0.621200  0.177200  0.106120  1.0
  C  C455  1  0.121200  0.322800  0.606120  1.0
  C  C456  1  0.378800  0.822800  0.893880  1.0
  C  C457  1  0.843300  0.741500  0.384010  1.0
  C  C458  1  0.656700  0.241500  0.115990  1.0
  C  C459  1  0.156700  0.258500  0.615990  1.0
  C  C460  1  0.343300  0.758500  0.884010  1.0
  C  C461  1  0.883600  0.797500  0.407780  1.0
  C  C462  1  0.616400  0.297500  0.092220  1.0
  C  C463  1  0.116400  0.202500  0.592220  1.0
  C  C464  1  0.383600  0.702500  0.907780  1.0
  C  C465  1  0.005200  0.274900  0.548720  1.0
  C  C466  1  0.494800  0.774900  0.951280  1.0
  C  C467  1  0.994800  0.725100  0.451280  1.0
  C  C468  1  0.505200  0.225100  0.048720  1.0
  C  C469  1  0.954500  0.669000  0.427510  1.0
  C  C470  1  0.545500  0.169000  0.072490  1.0
  C  C471  1  0.045500  0.331000  0.572490  1.0
  C  C472  1  0.454500  0.831000  0.927510  1.0
  C  C473  1  0.939500  0.405300  0.251000  1.0
  C  C474  1  0.560500  0.905300  0.249000  1.0
  C  C475  1  0.060500  0.594700  0.749000  1.0
  C  C476  1  0.439500  0.094700  0.751000  1.0
  C  C477  1  0.000900  0.369000  0.282400  1.0
  C  C478  1  0.499100  0.869000  0.217600  1.0
  C  C479  1  0.999100  0.631000  0.717600  1.0
  C  C480  1  0.500900  0.131000  0.782400  1.0
  C  C481  1  0.075000  0.343400  0.269300  1.0
  C  C482  1  0.425000  0.843400  0.230700  1.0
  C  C483  1  0.925000  0.656600  0.730700  1.0
  C  C484  1  0.575000  0.156600  0.769300  1.0
  C  C485  1  0.087600  0.354200  0.224700  1.0
  C  C486  1  0.412400  0.854200  0.275300  1.0
  C  C487  1  0.912400  0.645800  0.775300  1.0
  C  C488  1  0.587600  0.145800  0.724700  1.0
  C  C489  1  0.026100  0.390500  0.193200  1.0
  C  C490  1  0.473900  0.890500  0.306800  1.0
  C  C491  1  0.973900  0.609500  0.806800  1.0
  C  C492  1  0.526100  0.109500  0.693200  1.0
  C  C493  1  0.952100  0.416100  0.206400  1.0
  C  C494  1  0.547900  0.916100  0.293600  1.0
  C  C495  1  0.047900  0.583900  0.793600  1.0
  C  C496  1  0.452100  0.083900  0.706400  1.0
  C  C497  1  0.489000  0.348300  0.212740  1.0
  C  C498  1  0.011000  0.848300  0.287260  1.0
  C  C499  1  0.511000  0.651700  0.787260  1.0
  C  C500  1  0.989000  0.151700  0.712740  1.0
  C  C501  1  0.453700  0.291900  0.230320  1.0
  C  C502  1  0.046300  0.791900  0.269680  1.0
  C  C503  1  0.546300  0.708100  0.769680  1.0
  C  C504  1  0.953700  0.208100  0.730320  1.0
  C  C505  1  0.400900  0.247300  0.200600  1.0
  C  C506  1  0.099100  0.747300  0.299400  1.0
  C  C507  1  0.599100  0.752700  0.799400  1.0
  C  C508  1  0.900900  0.252700  0.700600  1.0
  C  C509  1  0.383300  0.259100  0.153230  1.0
  C  C510  1  0.116700  0.759100  0.346770  1.0
  C  C511  1  0.616700  0.740900  0.846770  1.0
  C  C512  1  0.883300  0.240900  0.653230  1.0
  C  C513  1  0.418600  0.315500  0.135650  1.0
  C  C514  1  0.081400  0.815500  0.364350  1.0
  C  C515  1  0.581400  0.684500  0.864350  1.0
  C  C516  1  0.918600  0.184500  0.635650  1.0
  C  C517  1  0.471400  0.360200  0.165400  1.0
  C  C518  1  0.028600  0.860200  0.334600  1.0
  C  C519  1  0.528600  0.639800  0.834600  1.0
  C  C520  1  0.971400  0.139800  0.665400  1.0
  C  C521  1  0.480700  0.537000  0.411900  1.0
  C  C522  1  0.019300  0.037000  0.088100  1.0
  C  C523  1  0.519300  0.463000  0.588100  1.0
  C  C524  1  0.980700  0.963000  0.911900  1.0
  C  C525  1  0.449700  0.482200  0.433400  1.0
  C  C526  1  0.050300  0.982200  0.066600  1.0
  C  C527  1  0.550300  0.517800  0.566600  1.0
  C  C528  1  0.949700  0.017800  0.933400  1.0
  C  C529  1  0.391300  0.492800  0.462300  1.0
  C  C530  1  0.108700  0.992800  0.037700  1.0
  C  C531  1  0.608700  0.507200  0.537700  1.0
  C  C532  1  0.891300  0.007200  0.962300  1.0
  C  C533  1  0.364000  0.558100  0.469800  1.0
  C  C534  1  0.136000  0.058100  0.030200  1.0
  C  C535  1  0.636000  0.441900  0.530200  1.0
  C  C536  1  0.864000  0.941900  0.969800  1.0
  C  C537  1  0.395000  0.612900  0.448300  1.0
  C  C538  1  0.105000  0.112900  0.051700  1.0
  C  C539  1  0.605000  0.387100  0.551700  1.0
  C  C540  1  0.895000  0.887100  0.948300  1.0
  C  C541  1  0.453400  0.602300  0.419400  1.0
  C  C542  1  0.046600  0.102300  0.080600  1.0
  C  C543  1  0.546600  0.397700  0.580600  1.0
  C  C544  1  0.953400  0.897700  0.919400  1.0
  I  I545  1  0.190400  0.317200  0.198500  1
  I  I546  1  0.309600  0.817200  0.301500  1
  I  I547  1  0.809600  0.682800  0.801500  1
  I  I548  1  0.690400  0.182800  0.698500  1
  I  I549  1  0.488430  0.953980  0.608130  1.0
  I  I550  1  0.011570  0.453980  0.891870  1.0
  I  I551  1  0.511570  0.046020  0.391870  1.0
  I  I552  1  0.988430  0.546020  0.108130  1.0
  I  I553  1  0.378880  0.821520  0.721650  1.0
  I  I554  1  0.121120  0.321520  0.778350  1.0
  I  I555  1  0.621120  0.178480  0.278350  1.0
  I  I556  1  0.878880  0.678480  0.221650  1.0
  I  I557  1  0.516150  0.283850  0.392600  1.0
  I  I558  1  0.983850  0.783850  0.107400  1.0
  I  I559  1  0.483850  0.716150  0.607400  1.0
  I  I560  1  0.016150  0.216150  0.892600  1.0
  I  I561  1  0.211000  0.317800  0.217220  1.0
  I  I562  1  0.289000  0.817800  0.282780  1.0
  I  I563  1  0.789000  0.682200  0.782780  1.0
  I  I564  1  0.711000  0.182200  0.717220  1.0
  I  I565  1  0.306340  0.190930  0.108850  1.0
  I  I566  1  0.193660  0.690930  0.391150  1.0
  I  I567  1  0.693660  0.809070  0.891150  1.0
  I  I568  1  0.806340  0.309070  0.608850  1.0
  I  I569  1  0.280590  0.574170  0.515060  1.0
  I  I570  1  0.219410  0.074170  0.984940  1.0
  I  I571  1  0.719410  0.425830  0.484940  1.0
  I  I572  1  0.780590  0.925830  0.015060  1.0
  N  N573  1  0.023800  0.189600  0.457200  1.0
  N  N574  1  0.476200  0.689600  0.042800  1.0
  N  N575  1  0.976200  0.810400  0.542800  1.0
  N  N576  1  0.523800  0.310400  0.957200  1.0
  N  N577  1  0.880700  0.153400  0.495500  1.0
  N  N578  1  0.619300  0.653400  0.004500  1.0
  N  N579  1  0.119300  0.846600  0.504500  1.0
  N  N580  1  0.380700  0.346600  0.995500  1.0
  N  N581  1  0.982600  0.057300  0.550250  1.0
  N  N582  1  0.517400  0.557300  0.949750  1.0
  N  N583  1  0.017400  0.942700  0.449750  1.0
  N  N584  1  0.482600  0.442700  0.050250  1.0
  N  N585  1  0.129800  0.102200  0.519900  1.0
  N  N586  1  0.370200  0.602200  0.980100  1.0
  N  N587  1  0.870200  0.897800  0.480100  1.0
  N  N588  1  0.629800  0.397800  0.019900  1.0
  N  N589  1  0.748000  0.412000  0.362440  1.0
  N  N590  1  0.752000  0.912000  0.137560  1.0
  N  N591  1  0.252000  0.588000  0.637560  1.0
  N  N592  1  0.248000  0.088000  0.862440  1.0
  N  N593  1  0.689100  0.555800  0.367500  1.0
  N  N594  1  0.810900  0.055800  0.132500  1.0
  N  N595  1  0.310900  0.444200  0.632500  1.0
  N  N596  1  0.189100  0.944200  0.867500  1.0
  N  N597  1  0.818800  0.523200  0.318300  1.0
  N  N598  1  0.681200  0.023200  0.181700  1.0
  N  N599  1  0.181200  0.476800  0.681700  1.0
  N  N600  1  0.318800  0.976800  0.818300  1.0
  N  N601  1  0.704700  0.430200  0.264900  1.0
  N  N602  1  0.795300  0.930200  0.235100  1.0
  N  N603  1  0.295300  0.569800  0.735100  1.0
  N  N604  1  0.204700  0.069800  0.764900  1.0
  N  N605  1  0.576200  0.465000  0.313400  1.0
  N  N606  1  0.923800  0.965000  0.186600  1.0
  N  N607  1  0.423800  0.535000  0.686600  1.0
  N  N608  1  0.076200  0.035000  0.813400  1.0
  N  N609  1  0.040600  0.210600  0.558590  1.0
  N  N610  1  0.459400  0.710600  0.941410  1.0
  N  N611  1  0.959400  0.789400  0.441410  1.0
  N  N612  1  0.540600  0.289400  0.058590  1.0
