# generated using pymatgen
data_Na2GdH42Os2C56N16O15
_symmetry_space_group_name_H-M   'P 1'
_cell_length_a   14.26600000
_cell_length_b   17.36500000
_cell_length_c   27.92000000
_cell_angle_alpha   90.00000000
_cell_angle_beta   90.00000000
_cell_angle_gamma   101.78000000
_symmetry_Int_Tables_number   1
_chemical_formula_structural   Na2GdH42Os2C56N16O15
_chemical_formula_sum   'Na8 Gd4 H168 Os8 C224 N64 O60'
_cell_volume   6770.92376641
_cell_formula_units_Z   4
loop_
 _symmetry_equiv_pos_site_id
 _symmetry_equiv_pos_as_xyz
  1  'x, y, z'
loop_
 _atom_site_type_symbol
 _atom_site_label
 _atom_site_symmetry_multiplicity
 _atom_site_fract_x
 _atom_site_fract_y
 _atom_site_fract_z
 _atom_site_occupancy
  Na  Na1  1  0.911100  0.985800  0.987990  1
  Na  Na2  1  0.088900  0.514200  0.487990  1
  Na  Na3  1  0.088900  0.014200  0.012010  1
  Na  Na4  1  0.911100  0.485800  0.512010  1
  Na  Na5  1  0.878700  0.907500  0.010800  1
  Na  Na6  1  0.121300  0.592500  0.510800  1
  Na  Na7  1  0.121300  0.092500  0.989200  1
  Na  Na8  1  0.878700  0.407500  0.489200  1
  Gd  Gd9  1  0.267760  0.644870  0.020529  1.0
  Gd  Gd10  1  0.732240  0.855130  0.520529  1.0
  Gd  Gd11  1  0.732240  0.355130  0.979471  1.0
  Gd  Gd12  1  0.267760  0.144870  0.479471  1.0
  H  H13  1  0.881900  0.115300  0.060700  1
  H  H14  1  0.118100  0.384700  0.560700  1
  H  H15  1  0.118100  0.884700  0.939300  1
  H  H16  1  0.881900  0.615300  0.439300  1
  H  H17  1  0.910500  0.180200  0.073400  1
  H  H18  1  0.089500  0.319800  0.573400  1
  H  H19  1  0.089500  0.819800  0.926600  1
  H  H20  1  0.910500  0.680200  0.426600  1
  H  H21  1  0.017300  0.281700  0.117700  1
  H  H22  1  0.982700  0.218300  0.617700  1
  H  H23  1  0.982700  0.718300  0.882300  1
  H  H24  1  0.017300  0.781700  0.382300  1
  H  H25  1  0.081700  0.214500  0.108900  1
  H  H26  1  0.918300  0.285500  0.608900  1
  H  H27  1  0.918300  0.785500  0.891100  1
  H  H28  1  0.081700  0.714500  0.391100  1
  H  H29  1  0.802600  0.623400  0.801700  1
  H  H30  1  0.197400  0.876600  0.301700  1
  H  H31  1  0.197400  0.376600  0.198300  1
  H  H32  1  0.802600  0.123400  0.698300  1
  H  H33  1  0.827600  0.571100  0.773700  1
  H  H34  1  0.172400  0.928900  0.273700  1
  H  H35  1  0.172400  0.428900  0.226300  1
  H  H36  1  0.827600  0.071100  0.726300  1
  H  H37  1  0.695600  0.903700  0.025800  1
  H  H38  1  0.304400  0.596300  0.525800  1
  H  H39  1  0.304400  0.096300  0.974200  1
  H  H40  1  0.695600  0.403700  0.474200  1
  H  H41  1  0.698200  0.960300  0.998200  1
  H  H42  1  0.301800  0.539700  0.498200  1
  H  H43  1  0.301800  0.039700  0.001800  1
  H  H44  1  0.698200  0.460300  0.501800  1
  H  H45  1  0.727400  0.418100  0.135000  1.0
  H  H46  1  0.272600  0.081900  0.635000  1.0
  H  H47  1  0.272600  0.581900  0.865000  1.0
  H  H48  1  0.727400  0.918100  0.365000  1.0
  H  H49  1  0.618200  0.378300  0.196700  1.0
  H  H50  1  0.381800  0.121700  0.696700  1.0
  H  H51  1  0.381800  0.621700  0.803300  1.0
  H  H52  1  0.618200  0.878300  0.303300  1.0
  H  H53  1  0.650500  0.428600  0.273300  1.0
  H  H54  1  0.349500  0.071400  0.773300  1.0
  H  H55  1  0.349500  0.571400  0.726700  1.0
  H  H56  1  0.650500  0.928600  0.226700  1.0
  H  H57  1  0.762200  0.521100  0.329900  1.0
  H  H58  1  0.237800  0.978900  0.829900  1.0
  H  H59  1  0.237800  0.478900  0.670100  1.0
  H  H60  1  0.762200  0.021100  0.170100  1.0
  H  H61  1  0.901400  0.616000  0.339600  1.0
  H  H62  1  0.098600  0.884000  0.839600  1.0
  H  H63  1  0.098600  0.384000  0.660400  1.0
  H  H64  1  0.901400  0.116000  0.160400  1.0
  H  H65  1  0.057200  0.695000  0.303900  1.0
  H  H66  1  0.942800  0.805000  0.803900  1.0
  H  H67  1  0.942800  0.305000  0.696100  1.0
  H  H68  1  0.057200  0.195000  0.196100  1.0
  H  H69  1  0.156600  0.721100  0.236700  1.0
  H  H70  1  0.843400  0.778900  0.736700  1.0
  H  H71  1  0.843400  0.278900  0.763300  1.0
  H  H72  1  0.156600  0.221100  0.263300  1.0
  H  H73  1  0.113300  0.655800  0.165100  1.0
  H  H74  1  0.886700  0.844200  0.665100  1.0
  H  H75  1  0.886700  0.344200  0.834900  1.0
  H  H76  1  0.113300  0.155800  0.334900  1.0
  H  H77  1  0.603600  0.967200  0.841300  1.0
  H  H78  1  0.396400  0.532800  0.341300  1.0
  H  H79  1  0.396400  0.032800  0.158700  1.0
  H  H80  1  0.603600  0.467200  0.658700  1.0
  H  H81  1  0.653600  0.046000  0.775000  1.0
  H  H82  1  0.346400  0.454000  0.275000  1.0
  H  H83  1  0.346400  0.954000  0.225000  1.0
  H  H84  1  0.653600  0.546000  0.725000  1.0
  H  H85  1  0.564000  0.027000  0.705500  1.0
  H  H86  1  0.436000  0.473000  0.205500  1.0
  H  H87  1  0.436000  0.973000  0.294500  1.0
  H  H88  1  0.564000  0.527000  0.794500  1.0
  H  H89  1  0.423800  0.941300  0.659400  1.0
  H  H90  1  0.576200  0.558700  0.159400  1.0
  H  H91  1  0.576200  0.058700  0.340600  1.0
  H  H92  1  0.423800  0.441300  0.840600  1.0
  H  H93  1  0.285900  0.847500  0.660200  1.0
  H  H94  1  0.714100  0.652500  0.160200  1.0
  H  H95  1  0.714100  0.152500  0.339800  1.0
  H  H96  1  0.285900  0.347500  0.839800  1.0
  H  H97  1  0.161300  0.753600  0.711200  1.0
  H  H98  1  0.838700  0.746400  0.211200  1.0
  H  H99  1  0.838700  0.246400  0.288800  1.0
  H  H100  1  0.161300  0.253600  0.788800  1.0
  H  H101  1  0.117400  0.695300  0.785400  1.0
  H  H102  1  0.882600  0.804700  0.285400  1.0
  H  H103  1  0.882600  0.304700  0.214600  1.0
  H  H104  1  0.117400  0.195300  0.714600  1.0
  H  H105  1  0.219000  0.723300  0.850600  1.0
  H  H106  1  0.781000  0.776700  0.350600  1.0
  H  H107  1  0.781000  0.276700  0.149400  1.0
  H  H108  1  0.219000  0.223300  0.649400  1.0
  H  H109  1  0.243500  0.560300  0.134100  1.0
  H  H110  1  0.756500  0.939700  0.634100  1.0
  H  H111  1  0.756500  0.439700  0.865900  1.0
  H  H112  1  0.243500  0.060300  0.365900  1.0
  H  H113  1  0.288600  0.577000  0.215700  1.0
  H  H114  1  0.711400  0.923000  0.715700  1.0
  H  H115  1  0.711400  0.423000  0.784300  1.0
  H  H116  1  0.288600  0.077000  0.284300  1.0
  H  H117  1  0.397800  0.691700  0.238200  1.0
  H  H118  1  0.602200  0.808300  0.738200  1.0
  H  H119  1  0.602200  0.308300  0.761800  1.0
  H  H120  1  0.397800  0.191700  0.261800  1.0
  H  H121  1  0.498900  0.822100  0.214600  1.0
  H  H122  1  0.501100  0.677900  0.714600  1.0
  H  H123  1  0.501100  0.177900  0.785400  1.0
  H  H124  1  0.498900  0.322100  0.285400  1.0
  H  H125  1  0.538200  0.918500  0.158600  1.0
  H  H126  1  0.461800  0.581500  0.658600  1.0
  H  H127  1  0.461800  0.081500  0.841400  1.0
  H  H128  1  0.538200  0.418500  0.341400  1.0
  H  H129  1  0.506400  0.976500  0.077600  1.0
  H  H130  1  0.493600  0.523500  0.577600  1.0
  H  H131  1  0.493600  0.023500  0.922400  1.0
  H  H132  1  0.506400  0.476500  0.422400  1.0
  H  H133  1  0.420300  0.961000  0.006200  1.0
  H  H134  1  0.579700  0.539000  0.506200  1.0
  H  H135  1  0.579700  0.039000  0.993800  1.0
  H  H136  1  0.420300  0.461000  0.493800  1.0
  H  H137  1  0.322700  0.839900  0.988500  1.0
  H  H138  1  0.677300  0.660100  0.488500  1.0
  H  H139  1  0.677300  0.160100  0.011500  1.0
  H  H140  1  0.322700  0.339900  0.511500  1.0
  H  H141  1  0.498400  0.751100  0.000200  1.0
  H  H142  1  0.501600  0.748900  0.500200  1.0
  H  H143  1  0.501600  0.248900  0.999800  1.0
  H  H144  1  0.498400  0.251100  0.499800  1.0
  H  H145  1  0.661300  0.753800  0.012400  1.0
  H  H146  1  0.338700  0.746200  0.512400  1.0
  H  H147  1  0.338700  0.246200  0.987600  1.0
  H  H148  1  0.661300  0.253800  0.487600  1.0
  H  H149  1  0.710200  0.643800  0.043000  1.0
  H  H150  1  0.289800  0.856200  0.543000  1.0
  H  H151  1  0.289800  0.356200  0.957000  1.0
  H  H152  1  0.710200  0.143800  0.457000  1.0
  H  H153  1  0.663800  0.503400  0.072700  1.0
  H  H154  1  0.336200  0.996600  0.572700  1.0
  H  H155  1  0.336200  0.496600  0.927300  1.0
  H  H156  1  0.663800  0.003400  0.427300  1.0
  H  H157  1  0.549500  0.399000  0.095200  1.0
  H  H158  1  0.450500  0.101000  0.595200  1.0
  H  H159  1  0.450500  0.601000  0.904800  1.0
  H  H160  1  0.549500  0.899000  0.404800  1.0
  H  H161  1  0.373200  0.335500  0.101600  1.0
  H  H162  1  0.626800  0.164500  0.601600  1.0
  H  H163  1  0.626800  0.664500  0.898400  1.0
  H  H164  1  0.373200  0.835500  0.398400  1.0
  H  H165  1  0.214000  0.340800  0.085200  1.0
  H  H166  1  0.786000  0.159200  0.585200  1.0
  H  H167  1  0.786000  0.659200  0.914800  1.0
  H  H168  1  0.214000  0.840800  0.414800  1.0
  H  H169  1  0.180500  0.454900  0.052300  1.0
  H  H170  1  0.819500  0.045100  0.552300  1.0
  H  H171  1  0.819500  0.545100  0.947700  1.0
  H  H172  1  0.180500  0.954900  0.447700  1.0
  H  H173  1  0.110000  0.718800  0.978100  1.0
  H  H174  1  0.890000  0.781200  0.478100  1.0
  H  H175  1  0.890000  0.281200  0.021900  1.0
  H  H176  1  0.110000  0.218800  0.521900  1.0
  H  H177  1  0.155900  0.770400  0.007400  1.0
  H  H178  1  0.844100  0.729600  0.507400  1.0
  H  H179  1  0.844100  0.229600  0.992600  1.0
  H  H180  1  0.155900  0.270400  0.492600  1.0
  Os  Os181  1  0.934010  0.533960  0.123004  1.0
  Os  Os182  1  0.065990  0.966040  0.623004  1.0
  Os  Os183  1  0.065990  0.466040  0.876996  1.0
  Os  Os184  1  0.934010  0.033960  0.376996  1.0
  Os  Os185  1  0.430270  0.825810  0.869887  1.0
  Os  Os186  1  0.569730  0.674190  0.369887  1.0
  Os  Os187  1  0.569730  0.174190  0.130113  1.0
  Os  Os188  1  0.430270  0.325810  0.630113  1.0
  C  C189  1  0.741100  0.439800  0.166100  1.0
  C  C190  1  0.258900  0.060200  0.666100  1.0
  C  C191  1  0.258900  0.560200  0.833900  1.0
  C  C192  1  0.741100  0.939800  0.333900  1.0
  C  C193  1  0.675700  0.415400  0.202900  1.0
  C  C194  1  0.324300  0.084600  0.702900  1.0
  C  C195  1  0.324300  0.584600  0.797100  1.0
  C  C196  1  0.675700  0.915400  0.297100  1.0
  C  C197  1  0.694700  0.445200  0.248100  1.0
  C  C198  1  0.305300  0.054800  0.748100  1.0
  C  C199  1  0.305300  0.554800  0.751900  1.0
  C  C200  1  0.694700  0.945200  0.251900  1.0
  C  C201  1  0.778700  0.499800  0.257000  1.0
  C  C202  1  0.221300  0.000200  0.757000  1.0
  C  C203  1  0.221300  0.500200  0.743000  1.0
  C  C204  1  0.778700  0.999800  0.243000  1.0
  C  C205  1  0.803700  0.535700  0.303400  1.0
  C  C206  1  0.196300  0.964300  0.803400  1.0
  C  C207  1  0.196300  0.464300  0.696600  1.0
  C  C208  1  0.803700  0.035700  0.196600  1.0
  C  C209  1  0.887900  0.591300  0.309300  1.0
  C  C210  1  0.112100  0.908700  0.809300  1.0
  C  C211  1  0.112100  0.408700  0.690700  1.0
  C  C212  1  0.887900  0.091300  0.190700  1.0
  C  C213  1  0.955100  0.612400  0.271000  1.0
  C  C214  1  0.044900  0.887600  0.771000  1.0
  C  C215  1  0.044900  0.387600  0.729000  1.0
  C  C216  1  0.955100  0.112400  0.229000  1.0
  C  C217  1  0.039700  0.668100  0.274600  1.0
  C  C218  1  0.960300  0.831900  0.774600  1.0
  C  C219  1  0.960300  0.331900  0.725400  1.0
  C  C220  1  0.039700  0.168100  0.225400  1.0
  C  C221  1  0.098000  0.683600  0.234700  1.0
  C  C222  1  0.902000  0.816400  0.734700  1.0
  C  C223  1  0.902000  0.316400  0.765300  1.0
  C  C224  1  0.098000  0.183600  0.265300  1.0
  C  C225  1  0.071400  0.644600  0.191700  1.0
  C  C226  1  0.928600  0.855400  0.691700  1.0
  C  C227  1  0.928600  0.355400  0.808300  1.0
  C  C228  1  0.071400  0.144600  0.308300  1.0
  C  C229  1  0.930800  0.576200  0.225600  1.0
  C  C230  1  0.069200  0.923800  0.725600  1.0
  C  C231  1  0.069200  0.423800  0.774400  1.0
  C  C232  1  0.930800  0.076200  0.274400  1.0
  C  C233  1  0.842200  0.521300  0.218600  1.0
  C  C234  1  0.157800  0.978700  0.718600  1.0
  C  C235  1  0.157800  0.478700  0.781400  1.0
  C  C236  1  0.842200  0.021300  0.281400  1.0
  C  C237  1  0.051000  0.573200  0.084600  1.0
  C  C238  1  0.949000  0.926800  0.584600  1.0
  C  C239  1  0.949000  0.426800  0.915400  1.0
  C  C240  1  0.051000  0.073200  0.415400  1.0
  C  C241  1  0.864100  0.480800  0.067100  1.0
  C  C242  1  0.135900  0.019200  0.567100  1.0
  C  C243  1  0.135900  0.519200  0.932900  1.0
  C  C244  1  0.864100  0.980800  0.432900  1.0
  C  C245  1  0.886700  0.635800  0.109100  1.0
  C  C246  1  0.113300  0.864200  0.609100  1.0
  C  C247  1  0.113300  0.364200  0.890900  1.0
  C  C248  1  0.886700  0.135800  0.390900  1.0
  C  C249  1  0.986200  0.435500  0.136900  1.0
  C  C250  1  0.013800  0.064500  0.636900  1.0
  C  C251  1  0.013800  0.564500  0.863100  1.0
  C  C252  1  0.986200  0.935500  0.363100  1.0
  C  C253  1  0.565700  0.959600  0.813100  1.0
  C  C254  1  0.434300  0.540400  0.313100  1.0
  C  C255  1  0.434300  0.040400  0.186900  1.0
  C  C256  1  0.565700  0.459600  0.686900  1.0
  C  C257  1  0.596800  0.006500  0.773400  1.0
  C  C258  1  0.403200  0.493500  0.273400  1.0
  C  C259  1  0.403200  0.993500  0.226600  1.0
  C  C260  1  0.596800  0.506500  0.726600  1.0
  C  C261  1  0.544400  0.994500  0.732600  1.0
  C  C262  1  0.455600  0.505500  0.232600  1.0
  C  C263  1  0.455600  0.005500  0.267400  1.0
  C  C264  1  0.544400  0.494500  0.767400  1.0
  C  C265  1  0.463100  0.935900  0.729900  1.0
  C  C266  1  0.536900  0.564100  0.229900  1.0
  C  C267  1  0.536900  0.064100  0.270100  1.0
  C  C268  1  0.463100  0.435900  0.770100  1.0
  C  C269  1  0.404200  0.914900  0.688700  1.0
  C  C270  1  0.595800  0.585100  0.188700  1.0
  C  C271  1  0.595800  0.085100  0.311300  1.0
  C  C272  1  0.404200  0.414900  0.811300  1.0
  C  C273  1  0.321900  0.859500  0.688900  1.0
  C  C274  1  0.678100  0.640500  0.188900  1.0
  C  C275  1  0.678100  0.140500  0.311100  1.0
  C  C276  1  0.321900  0.359500  0.811100  1.0
  C  C277  1  0.289200  0.818700  0.732900  1.0
  C  C278  1  0.710800  0.681300  0.232900  1.0
  C  C279  1  0.710800  0.181300  0.267100  1.0
  C  C280  1  0.289200  0.318700  0.767100  1.0
  C  C281  1  0.202900  0.765800  0.737900  1.0
  C  C282  1  0.797100  0.734200  0.237900  1.0
  C  C283  1  0.797100  0.234200  0.262100  1.0
  C  C284  1  0.202900  0.265800  0.762100  1.0
  C  C285  1  0.177200  0.730900  0.781900  1.0
  C  C286  1  0.822800  0.769100  0.281900  1.0
  C  C287  1  0.822800  0.269100  0.218100  1.0
  C  C288  1  0.177200  0.230900  0.718100  1.0
  C  C289  1  0.238000  0.747400  0.820700  1.0
  C  C290  1  0.762000  0.752600  0.320700  1.0
  C  C291  1  0.762000  0.252600  0.179300  1.0
  C  C292  1  0.238000  0.247400  0.679300  1.0
  C  C293  1  0.347700  0.834000  0.773700  1.0
  C  C294  1  0.652300  0.666000  0.273700  1.0
  C  C295  1  0.652300  0.166000  0.226300  1.0
  C  C296  1  0.347700  0.334000  0.726300  1.0
  C  C297  1  0.433900  0.891700  0.772300  1.0
  C  C298  1  0.566100  0.608300  0.272300  1.0
  C  C299  1  0.566100  0.108300  0.227700  1.0
  C  C300  1  0.433900  0.391700  0.727700  1.0
  C  C301  1  0.368900  0.745900  0.916800  1.0
  C  C302  1  0.631100  0.754100  0.416800  1.0
  C  C303  1  0.631100  0.254100  0.083200  1.0
  C  C304  1  0.368900  0.245900  0.583200  1.0
  C  C305  1  0.540200  0.862100  0.914800  1.0
  C  C306  1  0.459800  0.637900  0.414800  1.0
  C  C307  1  0.459800  0.137900  0.085200  1.0
  C  C308  1  0.540200  0.362100  0.585200  1.0
  C  C309  1  0.502400  0.748200  0.837600  1.0
  C  C310  1  0.497600  0.751800  0.337600  1.0
  C  C311  1  0.497600  0.251800  0.162400  1.0
  C  C312  1  0.502400  0.248200  0.662400  1.0
  C  C313  1  0.356800  0.905500  0.897900  1.0
  C  C314  1  0.643200  0.594500  0.397900  1.0
  C  C315  1  0.643200  0.094500  0.102100  1.0
  C  C316  1  0.356800  0.405500  0.602100  1.0
  C  C317  1  0.283600  0.608400  0.143800  1.0
  C  C318  1  0.716400  0.891600  0.643800  1.0
  C  C319  1  0.716400  0.391600  0.856200  1.0
  C  C320  1  0.283600  0.108400  0.356200  1.0
  C  C321  1  0.312300  0.616800  0.192900  1.0
  C  C322  1  0.687700  0.883200  0.692900  1.0
  C  C323  1  0.687700  0.383200  0.807100  1.0
  C  C324  1  0.312300  0.116800  0.307100  1.0
  C  C325  1  0.375500  0.684700  0.206100  1.0
  C  C326  1  0.624500  0.815300  0.706100  1.0
  C  C327  1  0.624500  0.315300  0.793900  1.0
  C  C328  1  0.375500  0.184700  0.293900  1.0
  C  C329  1  0.406400  0.742800  0.172000  1.0
  C  C330  1  0.593600  0.757200  0.672000  1.0
  C  C331  1  0.593600  0.257200  0.828000  1.0
  C  C332  1  0.406400  0.242800  0.328000  1.0
  C  C333  1  0.471300  0.814900  0.183600  1.0
  C  C334  1  0.528700  0.685100  0.683600  1.0
  C  C335  1  0.528700  0.185100  0.816400  1.0
  C  C336  1  0.471300  0.314900  0.316400  1.0
  C  C337  1  0.493000  0.872000  0.150700  1.0
  C  C338  1  0.507000  0.628000  0.650700  1.0
  C  C339  1  0.507000  0.128000  0.849300  1.0
  C  C340  1  0.493000  0.372000  0.349300  1.0
  C  C341  1  0.450200  0.865000  0.104200  1.0
  C  C342  1  0.549800  0.635000  0.604200  1.0
  C  C343  1  0.549800  0.135000  0.895800  1.0
  C  C344  1  0.450200  0.365000  0.395800  1.0
  C  C345  1  0.463700  0.928200  0.070600  1.0
  C  C346  1  0.536300  0.571800  0.570600  1.0
  C  C347  1  0.536300  0.071800  0.929400  1.0
  C  C348  1  0.463700  0.428200  0.429400  1.0
  C  C349  1  0.414600  0.918800  0.028400  1.0
  C  C350  1  0.585400  0.581200  0.528400  1.0
  C  C351  1  0.585400  0.081200  0.971600  1.0
  C  C352  1  0.414600  0.418800  0.471600  1.0
  C  C353  1  0.355800  0.845900  0.018300  1.0
  C  C354  1  0.644200  0.654100  0.518300  1.0
  C  C355  1  0.644200  0.154100  0.981700  1.0
  C  C356  1  0.355800  0.345900  0.481700  1.0
  C  C357  1  0.389000  0.795100  0.091400  1.0
  C  C358  1  0.611000  0.704900  0.591400  1.0
  C  C359  1  0.611000  0.204900  0.908600  1.0
  C  C360  1  0.389000  0.295100  0.408600  1.0
  C  C361  1  0.369500  0.732800  0.125100  1.0
  C  C362  1  0.630500  0.767200  0.625100  1.0
  C  C363  1  0.630500  0.267200  0.874900  1.0
  C  C364  1  0.369500  0.232800  0.374900  1.0
  C  C365  1  0.516900  0.706500  0.014000  1.0
  C  C366  1  0.483100  0.793500  0.514000  1.0
  C  C367  1  0.483100  0.293500  0.986000  1.0
  C  C368  1  0.516900  0.206500  0.486000  1.0
  C  C369  1  0.615200  0.708100  0.020600  1.0
  C  C370  1  0.384800  0.791900  0.520600  1.0
  C  C371  1  0.384800  0.291900  0.979400  1.0
  C  C372  1  0.615200  0.208100  0.479400  1.0
  C  C373  1  0.644100  0.643700  0.038800  1.0
  C  C374  1  0.355900  0.856300  0.538800  1.0
  C  C375  1  0.355900  0.356300  0.961200  1.0
  C  C376  1  0.644100  0.143700  0.461200  1.0
  C  C377  1  0.574400  0.577600  0.051300  1.0
  C  C378  1  0.425600  0.922400  0.551300  1.0
  C  C379  1  0.425600  0.422400  0.948700  1.0
  C  C380  1  0.574400  0.077600  0.448700  1.0
  C  C381  1  0.598200  0.506200  0.069600  1.0
  C  C382  1  0.401800  0.993800  0.569600  1.0
  C  C383  1  0.401800  0.493800  0.930400  1.0
  C  C384  1  0.598200  0.006200  0.430400  1.0
  C  C385  1  0.531300  0.444200  0.082100  1.0
  C  C386  1  0.468700  0.055800  0.582100  1.0
  C  C387  1  0.468700  0.555800  0.917900  1.0
  C  C388  1  0.531300  0.944200  0.417900  1.0
  C  C389  1  0.432400  0.445500  0.075900  1.0
  C  C390  1  0.567600  0.054500  0.575900  1.0
  C  C391  1  0.567600  0.554500  0.924100  1.0
  C  C392  1  0.432400  0.945500  0.424100  1.0
  C  C393  1  0.358200  0.381200  0.087400  1.0
  C  C394  1  0.641800  0.118800  0.587400  1.0
  C  C395  1  0.641800  0.618800  0.912600  1.0
  C  C396  1  0.358200  0.881200  0.412600  1.0
  C  C397  1  0.264400  0.384300  0.078300  1.0
  C  C398  1  0.735600  0.115700  0.578300  1.0
  C  C399  1  0.735600  0.615700  0.921700  1.0
  C  C400  1  0.264400  0.884300  0.421700  1.0
  C  C401  1  0.245500  0.453100  0.058500  1.0
  C  C402  1  0.754500  0.046900  0.558500  1.0
  C  C403  1  0.754500  0.546900  0.941500  1.0
  C  C404  1  0.245500  0.953100  0.441500  1.0
  C  C405  1  0.404500  0.513200  0.056200  1.0
  C  C406  1  0.595500  0.986800  0.556200  1.0
  C  C407  1  0.595500  0.486800  0.943800  1.0
  C  C408  1  0.404500  0.013200  0.443800  1.0
  C  C409  1  0.477100  0.580700  0.044500  1.0
  C  C410  1  0.522900  0.919300  0.544500  1.0
  C  C411  1  0.522900  0.419300  0.955500  1.0
  C  C412  1  0.477100  0.080700  0.455500  1.0
  N  N413  1  0.822600  0.492800  0.173000  1.0
  N  N414  1  0.177400  0.007200  0.673000  1.0
  N  N415  1  0.177400  0.507200  0.827000  1.0
  N  N416  1  0.822600  0.992800  0.327000  1.0
  N  N417  1  0.990500  0.592500  0.186500  1.0
  N  N418  1  0.009500  0.907500  0.686500  1.0
  N  N419  1  0.009500  0.407500  0.813500  1.0
  N  N420  1  0.990500  0.092500  0.313500  1.0
  N  N421  1  0.122500  0.594300  0.064800  1.0
  N  N422  1  0.877500  0.905700  0.564800  1.0
  N  N423  1  0.877500  0.405700  0.935200  1.0
  N  N424  1  0.122500  0.094300  0.435200  1.0
  N  N425  1  0.817800  0.447600  0.035400  1.0
  N  N426  1  0.182200  0.052400  0.535400  1.0
  N  N427  1  0.182200  0.552400  0.964600  1.0
  N  N428  1  0.817800  0.947600  0.464600  1.0
  N  N429  1  0.863600  0.693900  0.101300  1.0
  N  N430  1  0.136400  0.806100  0.601300  1.0
  N  N431  1  0.136400  0.306100  0.898700  1.0
  N  N432  1  0.863600  0.193900  0.398700  1.0
  N  N433  1  0.016400  0.379100  0.143300  1.0
  N  N434  1  0.983600  0.120900  0.643300  1.0
  N  N435  1  0.983600  0.620900  0.856700  1.0
  N  N436  1  0.016400  0.879100  0.356700  1.0
  N  N437  1  0.485500  0.904500  0.813400  1.0
  N  N438  1  0.514500  0.595500  0.313400  1.0
  N  N439  1  0.514500  0.095500  0.186600  1.0
  N  N440  1  0.485500  0.404500  0.686600  1.0
  N  N441  1  0.323400  0.796800  0.817000  1.0
  N  N442  1  0.676600  0.703200  0.317000  1.0
  N  N443  1  0.676600  0.203200  0.183000  1.0
  N  N444  1  0.323400  0.296800  0.683000  1.0
  N  N445  1  0.332800  0.700300  0.945100  1.0
  N  N446  1  0.667200  0.799700  0.445100  1.0
  N  N447  1  0.667200  0.299700  0.054900  1.0
  N  N448  1  0.332800  0.200300  0.554900  1.0
  N  N449  1  0.604100  0.883900  0.940500  1.0
  N  N450  1  0.395900  0.616100  0.440500  1.0
  N  N451  1  0.395900  0.116100  0.059500  1.0
  N  N452  1  0.604100  0.383900  0.559500  1.0
  N  N453  1  0.540100  0.705500  0.817400  1.0
  N  N454  1  0.459900  0.794500  0.317400  1.0
  N  N455  1  0.459900  0.294500  0.182600  1.0
  N  N456  1  0.540100  0.205500  0.682600  1.0
  N  N457  1  0.313500  0.949400  0.913000  1.0
  N  N458  1  0.686500  0.550600  0.413000  1.0
  N  N459  1  0.686500  0.050600  0.087000  1.0
  N  N460  1  0.313500  0.449400  0.587000  1.0
  N  N461  1  0.309600  0.663600  0.111000  1.0
  N  N462  1  0.690400  0.836400  0.611000  1.0
  N  N463  1  0.690400  0.336400  0.889000  1.0
  N  N464  1  0.309600  0.163600  0.389000  1.0
  N  N465  1  0.343300  0.784100  0.047900  1.0
  N  N466  1  0.656700  0.715900  0.547900  1.0
  N  N467  1  0.656700  0.215900  0.952100  1.0
  N  N468  1  0.343300  0.284100  0.452100  1.0
  N  N469  1  0.448800  0.645100  0.026400  1.0
  N  N470  1  0.551200  0.854900  0.526400  1.0
  N  N471  1  0.551200  0.354900  0.973600  1.0
  N  N472  1  0.448800  0.145100  0.473600  1.0
  N  N473  1  0.311700  0.516700  0.047700  1.0
  N  N474  1  0.688300  0.983300  0.547700  1.0
  N  N475  1  0.688300  0.483300  0.952300  1.0
  N  N476  1  0.311700  0.016700  0.452300  1.0
  O  O477  1  0.886400  0.561400  0.713700  1
  O  O478  1  0.113600  0.938600  0.213700  1
  O  O479  1  0.113600  0.438600  0.286300  1
  O  O480  1  0.886400  0.061400  0.786300  1
  O  O481  1  0.740300  0.843900  0.125600  1
  O  O482  1  0.259700  0.656100  0.625600  1
  O  O483  1  0.259700  0.156100  0.874400  1
  O  O484  1  0.740300  0.343900  0.374400  1
  O  O485  1  0.860500  0.157500  0.058500  1
  O  O486  1  0.139500  0.342500  0.558500  1
  O  O487  1  0.139500  0.842500  0.941500  1
  O  O488  1  0.860500  0.657500  0.441500  1
  O  O489  1  0.018000  0.228600  0.103900  1
  O  O490  1  0.982000  0.271400  0.603900  1
  O  O491  1  0.982000  0.771400  0.896100  1
  O  O492  1  0.018000  0.728600  0.396100  1
  O  O493  1  0.976000  0.623200  0.978600  1
  O  O494  1  0.024000  0.876800  0.478600  1
  O  O495  1  0.024000  0.376800  0.021400  1
  O  O496  1  0.976000  0.123200  0.521400  1
  O  O497  1  0.733000  0.710100  0.800400  1
  O  O498  1  0.267000  0.789900  0.300400  1
  O  O499  1  0.267000  0.289900  0.199600  1
  O  O500  1  0.733000  0.210100  0.699600  1
  O  O501  1  0.807500  0.575400  0.802100  1
  O  O502  1  0.192500  0.924600  0.302100  1
  O  O503  1  0.192500  0.424600  0.197900  1
  O  O504  1  0.807500  0.075400  0.697900  1
  O  O505  1  0.751000  0.023000  0.907100  1
  O  O506  1  0.249000  0.477000  0.407100  1
  O  O507  1  0.249000  0.977000  0.092900  1
  O  O508  1  0.751000  0.523000  0.592900  1
  O  O509  1  0.783000  0.815200  0.879000  1
  O  O510  1  0.217000  0.684800  0.379000  1
  O  O511  1  0.217000  0.184800  0.121000  1
  O  O512  1  0.783000  0.315200  0.621000  1
  O  O513  1  0.905000  0.211600  0.909300  1
  O  O514  1  0.095000  0.288400  0.409300  1
  O  O515  1  0.095000  0.788400  0.090700  1
  O  O516  1  0.905000  0.711600  0.590700  1
  O  O517  1  0.893600  0.757600  0.000500  1
  O  O518  1  0.106400  0.742400  0.500500  1
  O  O519  1  0.106400  0.242400  0.999500  1
  O  O520  1  0.893600  0.257600  0.499500  1
  O  O521  1  0.984200  0.603000  0.716400  1
  O  O522  1  0.015800  0.897000  0.216400  1
  O  O523  1  0.015800  0.397000  0.283600  1
  O  O524  1  0.984200  0.103000  0.783600  1
  O  O525  1  0.837100  0.846700  0.120600  1
  O  O526  1  0.162900  0.653300  0.620600  1
  O  O527  1  0.162900  0.153300  0.879400  1
  O  O528  1  0.837100  0.346700  0.379400  1
  O  O529  1  0.729500  0.944500  0.018400  1
  O  O530  1  0.270500  0.555500  0.518400  1
  O  O531  1  0.270500  0.055500  0.981600  1
  O  O532  1  0.729500  0.444500  0.481600  1
  O  O533  1  0.152800  0.722600  0.999600  1.0
  O  O534  1  0.847200  0.777400  0.499600  1.0
  O  O535  1  0.847200  0.277400  0.000400  1.0
  O  O536  1  0.152800  0.222600  0.500400  1.0
