# generated using pymatgen
data_Na3YbH34Os2C56N16O15
_symmetry_space_group_name_H-M   'P 1'
_cell_length_a   14.17960000
_cell_length_b   17.19510000
_cell_length_c   27.71300000
_cell_angle_alpha   90.00000000
_cell_angle_beta   90.00000000
_cell_angle_gamma   101.82800000
_symmetry_Int_Tables_number   1
_chemical_formula_structural   Na3YbH34Os2C56N16O15
_chemical_formula_sum   'Na12 Yb4 H136 Os8 C224 N64 O60'
_cell_volume   6613.50513209
_cell_formula_units_Z   4
loop_
 _symmetry_equiv_pos_site_id
 _symmetry_equiv_pos_as_xyz
  1  'x, y, z'
loop_
 _atom_site_type_symbol
 _atom_site_label
 _atom_site_symmetry_multiplicity
 _atom_site_fract_x
 _atom_site_fract_y
 _atom_site_fract_z
 _atom_site_occupancy
  Na  Na1  1  0.909300  0.988700  0.992300  1
  Na  Na2  1  0.090700  0.511300  0.492300  1
  Na  Na3  1  0.090700  0.011300  0.007700  1
  Na  Na4  1  0.909300  0.488700  0.507700  1
  Na  Na5  1  0.910400  0.985300  0.955500  1
  Na  Na6  1  0.089600  0.514700  0.455500  1
  Na  Na7  1  0.089600  0.014700  0.044500  1
  Na  Na8  1  0.910400  0.485300  0.544500  1
  Na  Na9  1  0.887600  0.920400  0.006100  1
  Na  Na10  1  0.112400  0.579600  0.506100  1
  Na  Na11  1  0.112400  0.079600  0.993900  1
  Na  Na12  1  0.887600  0.420400  0.493900  1
  Yb  Yb13  1  0.733850  0.353670  0.979830  1.0
  Yb  Yb14  1  0.266150  0.146330  0.479830  1.0
  Yb  Yb15  1  0.266150  0.646330  0.020170  1.0
  Yb  Yb16  1  0.733850  0.853670  0.520170  1.0
  H  H17  1  0.725300  0.426800  0.135300  1.0
  H  H18  1  0.274700  0.073200  0.635300  1.0
  H  H19  1  0.274700  0.573200  0.864700  1.0
  H  H20  1  0.725300  0.926800  0.364700  1.0
  H  H21  1  0.622200  0.381000  0.200000  1.0
  H  H22  1  0.377800  0.119000  0.700000  1.0
  H  H23  1  0.377800  0.619000  0.800000  1.0
  H  H24  1  0.622200  0.881000  0.300000  1.0
  H  H25  1  0.653400  0.440200  0.274200  1.0
  H  H26  1  0.346600  0.059800  0.774200  1.0
  H  H27  1  0.346600  0.559800  0.725800  1.0
  H  H28  1  0.653400  0.940200  0.225800  1.0
  H  H29  1  0.778900  0.531300  0.330700  1.0
  H  H30  1  0.221100  0.968700  0.830700  1.0
  H  H31  1  0.221100  0.468700  0.669300  1.0
  H  H32  1  0.778900  0.031300  0.169300  1.0
  H  H33  1  0.906900  0.627900  0.337600  1.0
  H  H34  1  0.093100  0.872100  0.837600  1.0
  H  H35  1  0.093100  0.372100  0.662400  1.0
  H  H36  1  0.906900  0.127900  0.162400  1.0
  H  H37  1  0.064200  0.711300  0.298100  1.0
  H  H38  1  0.935800  0.788700  0.798100  1.0
  H  H39  1  0.935800  0.288700  0.701900  1.0
  H  H40  1  0.064200  0.211300  0.201900  1.0
  H  H41  1  0.159700  0.732600  0.231800  1.0
  H  H42  1  0.840300  0.767400  0.731800  1.0
  H  H43  1  0.840300  0.267400  0.768200  1.0
  H  H44  1  0.159700  0.232600  0.268200  1.0
  H  H45  1  0.110900  0.672700  0.159400  1.0
  H  H46  1  0.889100  0.827300  0.659400  1.0
  H  H47  1  0.889100  0.327300  0.840600  1.0
  H  H48  1  0.110900  0.172700  0.340600  1.0
  H  H49  1  0.396300  0.036500  0.165100  1.0
  H  H50  1  0.603700  0.463500  0.665100  1.0
  H  H51  1  0.603700  0.963500  0.834900  1.0
  H  H52  1  0.396300  0.536500  0.334900  1.0
  H  H53  1  0.357000  0.956000  0.233400  1.0
  H  H54  1  0.643000  0.544000  0.733400  1.0
  H  H55  1  0.643000  0.044000  0.766600  1.0
  H  H56  1  0.357000  0.456000  0.266600  1.0
  H  H57  1  0.444200  0.983100  0.300200  1.0
  H  H58  1  0.555800  0.516900  0.800200  1.0
  H  H59  1  0.555800  0.016900  0.699800  1.0
  H  H60  1  0.444200  0.483100  0.199800  1.0
  H  H61  1  0.581900  0.069600  0.344900  1.0
  H  H62  1  0.418100  0.430400  0.844900  1.0
  H  H63  1  0.418100  0.930400  0.655100  1.0
  H  H64  1  0.581900  0.569600  0.155100  1.0
  H  H65  1  0.723100  0.163700  0.341000  1.0
  H  H66  1  0.276900  0.336300  0.841000  1.0
  H  H67  1  0.276900  0.836300  0.659000  1.0
  H  H68  1  0.723100  0.663700  0.159000  1.0
  H  H69  1  0.841000  0.253700  0.289800  1.0
  H  H70  1  0.159000  0.246300  0.789800  1.0
  H  H71  1  0.159000  0.746300  0.710200  1.0
  H  H72  1  0.841000  0.753700  0.210200  1.0
  H  H73  1  0.884500  0.318400  0.215400  1.0
  H  H74  1  0.115500  0.181600  0.715400  1.0
  H  H75  1  0.115500  0.681600  0.784600  1.0
  H  H76  1  0.884500  0.818400  0.284600  1.0
  H  H77  1  0.782500  0.283600  0.148700  1.0
  H  H78  1  0.217500  0.216400  0.648700  1.0
  H  H79  1  0.217500  0.716400  0.851300  1.0
  H  H80  1  0.782500  0.783600  0.351300  1.0
  H  H81  1  0.683200  0.160500  0.013200  1.0
  H  H82  1  0.316800  0.339500  0.513200  1.0
  H  H83  1  0.316800  0.839500  0.986800  1.0
  H  H84  1  0.683200  0.660500  0.486800  1.0
  H  H85  1  0.587100  0.037100  0.995100  1.0
  H  H86  1  0.412900  0.462900  0.495100  1.0
  H  H87  1  0.412900  0.962900  0.004900  1.0
  H  H88  1  0.587100  0.537100  0.504900  1.0
  H  H89  1  0.499000  0.021000  0.923100  1.0
  H  H90  1  0.501000  0.479000  0.423100  1.0
  H  H91  1  0.501000  0.979000  0.076900  1.0
  H  H92  1  0.499000  0.521000  0.576900  1.0
  H  H93  1  0.469200  0.079600  0.841100  1.0
  H  H94  1  0.530800  0.420400  0.341100  1.0
  H  H95  1  0.530800  0.920400  0.158900  1.0
  H  H96  1  0.469200  0.579600  0.658900  1.0
  H  H97  1  0.505200  0.178500  0.785500  1.0
  H  H98  1  0.494800  0.321500  0.285500  1.0
  H  H99  1  0.494800  0.821500  0.214500  1.0
  H  H100  1  0.505200  0.678500  0.714500  1.0
  H  H101  1  0.611100  0.312800  0.763000  1.0
  H  H102  1  0.388900  0.187200  0.263000  1.0
  H  H103  1  0.388900  0.687200  0.237000  1.0
  H  H104  1  0.611100  0.812800  0.737000  1.0
  H  H105  1  0.717500  0.426100  0.786000  1.0
  H  H106  1  0.282500  0.073900  0.286000  1.0
  H  H107  1  0.282500  0.573900  0.214000  1.0
  H  H108  1  0.717500  0.926100  0.714000  1.0
  H  H109  1  0.764200  0.442400  0.866500  1.0
  H  H110  1  0.235800  0.057600  0.366500  1.0
  H  H111  1  0.235800  0.557600  0.133500  1.0
  H  H112  1  0.764200  0.942400  0.633500  1.0
  H  H113  1  0.504800  0.245100  0.999000  1.0
  H  H114  1  0.495200  0.254900  0.499000  1.0
  H  H115  1  0.495200  0.754900  0.001000  1.0
  H  H116  1  0.504800  0.745100  0.501000  1.0
  H  H117  1  0.343600  0.242800  0.987000  1.0
  H  H118  1  0.656400  0.257200  0.487000  1.0
  H  H119  1  0.656400  0.757200  0.013000  1.0
  H  H120  1  0.343600  0.742800  0.513000  1.0
  H  H121  1  0.294500  0.353200  0.957200  1.0
  H  H122  1  0.705500  0.146800  0.457200  1.0
  H  H123  1  0.705500  0.646800  0.042800  1.0
  H  H124  1  0.294500  0.853200  0.542800  1.0
  H  H125  1  0.339500  0.494700  0.927400  1.0
  H  H126  1  0.660500  0.005300  0.427400  1.0
  H  H127  1  0.660500  0.505300  0.072600  1.0
  H  H128  1  0.339500  0.994700  0.572600  1.0
  H  H129  1  0.457200  0.603500  0.907700  1.0
  H  H130  1  0.542800  0.896500  0.407700  1.0
  H  H131  1  0.542800  0.396500  0.092300  1.0
  H  H132  1  0.457200  0.103500  0.592300  1.0
  H  H133  1  0.633200  0.664700  0.900600  1.0
  H  H134  1  0.366800  0.835300  0.400600  1.0
  H  H135  1  0.366800  0.335300  0.099400  1.0
  H  H136  1  0.633200  0.164700  0.599400  1.0
  H  H137  1  0.791900  0.661300  0.917000  1.0
  H  H138  1  0.208100  0.838700  0.417000  1.0
  H  H139  1  0.208100  0.338700  0.083000  1.0
  H  H140  1  0.791900  0.161300  0.583000  1.0
  H  H141  1  0.827800  0.545900  0.951800  1.0
  H  H142  1  0.172200  0.954100  0.451800  1.0
  H  H143  1  0.172200  0.454100  0.048200  1.0
  H  H144  1  0.827800  0.045900  0.548200  1.0
  H  H145  1  0.893800  0.266700  0.989600  1.0
  H  H146  1  0.106200  0.233300  0.489600  1.0
  H  H147  1  0.106200  0.733300  0.010400  1.0
  H  H148  1  0.893800  0.766700  0.510400  1.0
  H  H149  1  0.833200  0.245200  0.025900  1.0
  H  H150  1  0.166800  0.254800  0.525900  1.0
  H  H151  1  0.166800  0.754800  0.974100  1.0
  H  H152  1  0.833200  0.745200  0.474100  1.0
  Os  Os153  1  0.933990  0.538210  0.120900  1.0
  Os  Os154  1  0.066010  0.961790  0.620900  1.0
  Os  Os155  1  0.066010  0.461790  0.879100  1.0
  Os  Os156  1  0.933990  0.038210  0.379100  1.0
  Os  Os157  1  0.570040  0.178800  0.131430  1.0
  Os  Os158  1  0.429960  0.321200  0.631430  1.0
  Os  Os159  1  0.429960  0.821200  0.868570  1.0
  Os  Os160  1  0.570040  0.678800  0.368570  1.0
  C  C161  1  0.741800  0.447200  0.166700  1.0
  C  C162  1  0.258200  0.052800  0.666700  1.0
  C  C163  1  0.258200  0.552800  0.833300  1.0
  C  C164  1  0.741800  0.947200  0.333300  1.0
  C  C165  1  0.678300  0.421200  0.204900  1.0
  C  C166  1  0.321700  0.078800  0.704900  1.0
  C  C167  1  0.321700  0.578800  0.795100  1.0
  C  C168  1  0.678300  0.921200  0.295100  1.0
  C  C169  1  0.698200  0.454100  0.248500  1.0
  C  C170  1  0.301800  0.045900  0.748500  1.0
  C  C171  1  0.301800  0.545900  0.751500  1.0
  C  C172  1  0.698200  0.954100  0.251500  1.0
  C  C173  1  0.783200  0.508100  0.256600  1.0
  C  C174  1  0.216800  0.991900  0.756600  1.0
  C  C175  1  0.216800  0.491900  0.743400  1.0
  C  C176  1  0.783200  0.008100  0.243400  1.0
  C  C177  1  0.816500  0.547200  0.302700  1.0
  C  C178  1  0.183500  0.952800  0.802700  1.0
  C  C179  1  0.183500  0.452800  0.697300  1.0
  C  C180  1  0.816500  0.047200  0.197300  1.0
  C  C181  1  0.893700  0.602000  0.307300  1.0
  C  C182  1  0.106300  0.898000  0.807300  1.0
  C  C183  1  0.106300  0.398000  0.692700  1.0
  C  C184  1  0.893700  0.102000  0.192700  1.0
  C  C185  1  0.961200  0.625200  0.267500  1.0
  C  C186  1  0.038800  0.874800  0.767500  1.0
  C  C187  1  0.038800  0.374800  0.732500  1.0
  C  C188  1  0.961200  0.125200  0.232500  1.0
  C  C189  1  0.045600  0.682300  0.269300  1.0
  C  C190  1  0.954400  0.817700  0.769300  1.0
  C  C191  1  0.954400  0.317700  0.730700  1.0
  C  C192  1  0.045600  0.182300  0.230700  1.0
  C  C193  1  0.099800  0.695800  0.230100  1.0
  C  C194  1  0.900200  0.804200  0.730100  1.0
  C  C195  1  0.900200  0.304200  0.769900  1.0
  C  C196  1  0.099800  0.195800  0.269900  1.0
  C  C197  1  0.072200  0.658200  0.187200  1.0
  C  C198  1  0.927800  0.841800  0.687200  1.0
  C  C199  1  0.927800  0.341800  0.812800  1.0
  C  C200  1  0.072200  0.158200  0.312800  1.0
  C  C201  1  0.935500  0.585600  0.223100  1.0
  C  C202  1  0.064500  0.914400  0.723100  1.0
  C  C203  1  0.064500  0.414400  0.776900  1.0
  C  C204  1  0.935500  0.085600  0.276900  1.0
  C  C205  1  0.845500  0.530400  0.217000  1.0
  C  C206  1  0.154500  0.969600  0.717000  1.0
  C  C207  1  0.154500  0.469600  0.783000  1.0
  C  C208  1  0.845500  0.030400  0.283000  1.0
  C  C209  1  0.862700  0.479200  0.066600  1.0
  C  C210  1  0.137300  0.020800  0.566600  1.0
  C  C211  1  0.137300  0.520800  0.933400  1.0
  C  C212  1  0.862700  0.979200  0.433400  1.0
  C  C213  1  0.051000  0.575600  0.081900  1.0
  C  C214  1  0.949000  0.924400  0.581900  1.0
  C  C215  1  0.949000  0.424400  0.918100  1.0
  C  C216  1  0.051000  0.075600  0.418100  1.0
  C  C217  1  0.886400  0.637300  0.101400  1.0
  C  C218  1  0.113600  0.862700  0.601400  1.0
  C  C219  1  0.113600  0.362700  0.898600  1.0
  C  C220  1  0.886400  0.137300  0.398600  1.0
  C  C221  1  0.989000  0.440000  0.139400  1.0
  C  C222  1  0.011000  0.060000  0.639400  1.0
  C  C223  1  0.011000  0.560000  0.860600  1.0
  C  C224  1  0.989000  0.940000  0.360600  1.0
  C  C225  1  0.437600  0.045800  0.192400  1.0
  C  C226  1  0.562400  0.454200  0.692400  1.0
  C  C227  1  0.562400  0.954200  0.807600  1.0
  C  C228  1  0.437600  0.545800  0.307600  1.0
  C  C229  1  0.412000  0.998600  0.233900  1.0
  C  C230  1  0.588000  0.501400  0.733900  1.0
  C  C231  1  0.588000  0.001400  0.766100  1.0
  C  C232  1  0.412000  0.498600  0.266100  1.0
  C  C233  1  0.462000  0.013900  0.272100  1.0
  C  C234  1  0.538000  0.486100  0.772100  1.0
  C  C235  1  0.538000  0.986100  0.727900  1.0
  C  C236  1  0.462000  0.513900  0.227900  1.0
  C  C237  1  0.545500  0.075900  0.273500  1.0
  C  C238  1  0.454500  0.424100  0.773500  1.0
  C  C239  1  0.454500  0.924100  0.726500  1.0
  C  C240  1  0.545500  0.575900  0.226500  1.0
  C  C241  1  0.602000  0.095400  0.315200  1.0
  C  C242  1  0.398000  0.404600  0.815200  1.0
  C  C243  1  0.398000  0.904600  0.684800  1.0
  C  C244  1  0.602000  0.595400  0.184800  1.0
  C  C245  1  0.684000  0.151100  0.313000  1.0
  C  C246  1  0.316000  0.348900  0.813000  1.0
  C  C247  1  0.316000  0.848900  0.687000  1.0
  C  C248  1  0.684000  0.651100  0.187000  1.0
  C  C249  1  0.712900  0.190500  0.269000  1.0
  C  C250  1  0.287100  0.309500  0.769000  1.0
  C  C251  1  0.287100  0.809500  0.731000  1.0
  C  C252  1  0.712900  0.690500  0.231000  1.0
  C  C253  1  0.798300  0.242600  0.263100  1.0
  C  C254  1  0.201700  0.257400  0.763100  1.0
  C  C255  1  0.201700  0.757400  0.736900  1.0
  C  C256  1  0.798300  0.742600  0.236900  1.0
  C  C257  1  0.825700  0.280600  0.218500  1.0
  C  C258  1  0.174300  0.219400  0.718500  1.0
  C  C259  1  0.174300  0.719400  0.781500  1.0
  C  C260  1  0.825700  0.780600  0.281500  1.0
  C  C261  1  0.763800  0.260900  0.179300  1.0
  C  C262  1  0.236200  0.239100  0.679300  1.0
  C  C263  1  0.236200  0.739100  0.820700  1.0
  C  C264  1  0.763800  0.760900  0.320700  1.0
  C  C265  1  0.656400  0.176400  0.228000  1.0
  C  C266  1  0.343600  0.323600  0.728000  1.0
  C  C267  1  0.343600  0.823600  0.772000  1.0
  C  C268  1  0.656400  0.676400  0.272000  1.0
  C  C269  1  0.572000  0.117800  0.230600  1.0
  C  C270  1  0.428000  0.382200  0.730600  1.0
  C  C271  1  0.428000  0.882200  0.769400  1.0
  C  C272  1  0.572000  0.617800  0.269400  1.0
  C  C273  1  0.630700  0.256900  0.082600  1.0
  C  C274  1  0.369300  0.243100  0.582600  1.0
  C  C275  1  0.369300  0.743100  0.917400  1.0
  C  C276  1  0.630700  0.756900  0.417400  1.0
  C  C277  1  0.641500  0.095600  0.103600  1.0
  C  C278  1  0.358500  0.404400  0.603600  1.0
  C  C279  1  0.358500  0.904400  0.896400  1.0
  C  C280  1  0.641500  0.595600  0.396400  1.0
  C  C281  1  0.459300  0.140800  0.088600  1.0
  C  C282  1  0.540700  0.359200  0.588600  1.0
  C  C283  1  0.540700  0.859200  0.911400  1.0
  C  C284  1  0.459300  0.640800  0.411400  1.0
  C  C285  1  0.500000  0.258500  0.162900  1.0
  C  C286  1  0.500000  0.241500  0.662900  1.0
  C  C287  1  0.500000  0.741500  0.837100  1.0
  C  C288  1  0.500000  0.758500  0.337100  1.0
  C  C289  1  0.650400  0.153800  0.983100  1.0
  C  C290  1  0.349600  0.346200  0.483100  1.0
  C  C291  1  0.349600  0.846200  0.016900  1.0
  C  C292  1  0.650400  0.653800  0.516900  1.0
  C  C293  1  0.592100  0.079800  0.972800  1.0
  C  C294  1  0.407900  0.420200  0.472800  1.0
  C  C295  1  0.407900  0.920200  0.027200  1.0
  C  C296  1  0.592100  0.579800  0.527200  1.0
  C  C297  1  0.542100  0.069800  0.930100  1.0
  C  C298  1  0.457900  0.430200  0.430100  1.0
  C  C299  1  0.457900  0.930200  0.069900  1.0
  C  C300  1  0.542100  0.569800  0.569900  1.0
  C  C301  1  0.555600  0.132800  0.896600  1.0
  C  C302  1  0.444400  0.367200  0.396600  1.0
  C  C303  1  0.444400  0.867200  0.103400  1.0
  C  C304  1  0.555600  0.632800  0.603400  1.0
  C  C305  1  0.513700  0.126900  0.849500  1.0
  C  C306  1  0.486300  0.373100  0.349500  1.0
  C  C307  1  0.486300  0.873100  0.150500  1.0
  C  C308  1  0.513700  0.626900  0.650500  1.0
  C  C309  1  0.534500  0.185100  0.816500  1.0
  C  C310  1  0.465500  0.314900  0.316500  1.0
  C  C311  1  0.465500  0.814900  0.183500  1.0
  C  C312  1  0.534500  0.685100  0.683500  1.0
  C  C313  1  0.601900  0.258100  0.828300  1.0
  C  C314  1  0.398100  0.241900  0.328300  1.0
  C  C315  1  0.398100  0.741900  0.171700  1.0
  C  C316  1  0.601900  0.758100  0.671700  1.0
  C  C317  1  0.633200  0.318600  0.795400  1.0
  C  C318  1  0.366800  0.181400  0.295400  1.0
  C  C319  1  0.366800  0.681400  0.204600  1.0
  C  C320  1  0.633200  0.818600  0.704600  1.0
  C  C321  1  0.694300  0.385500  0.808800  1.0
  C  C322  1  0.305700  0.114500  0.308800  1.0
  C  C323  1  0.305700  0.614500  0.191200  1.0
  C  C324  1  0.694300  0.885500  0.691200  1.0
  C  C325  1  0.723100  0.394000  0.857000  1.0
  C  C326  1  0.276900  0.106000  0.357000  1.0
  C  C327  1  0.276900  0.606000  0.143000  1.0
  C  C328  1  0.723100  0.894000  0.643000  1.0
  C  C329  1  0.636900  0.269400  0.875300  1.0
  C  C330  1  0.363100  0.230600  0.375300  1.0
  C  C331  1  0.363100  0.730600  0.124700  1.0
  C  C332  1  0.636900  0.769400  0.624700  1.0
  C  C333  1  0.615800  0.206100  0.909600  1.0
  C  C334  1  0.384200  0.293900  0.409600  1.0
  C  C335  1  0.384200  0.793900  0.090400  1.0
  C  C336  1  0.615800  0.706100  0.590400  1.0
  C  C337  1  0.486800  0.290500  0.985300  1.0
  C  C338  1  0.513200  0.209500  0.485300  1.0
  C  C339  1  0.513200  0.709500  0.014700  1.0
  C  C340  1  0.486800  0.790500  0.514700  1.0
  C  C341  1  0.390000  0.289100  0.978900  1.0
  C  C342  1  0.610000  0.210900  0.478900  1.0
  C  C343  1  0.610000  0.710900  0.021100  1.0
  C  C344  1  0.390000  0.789100  0.521100  1.0
  C  C345  1  0.361200  0.353800  0.961200  1.0
  C  C346  1  0.638800  0.146200  0.461200  1.0
  C  C347  1  0.638800  0.646200  0.038800  1.0
  C  C348  1  0.361200  0.853800  0.538800  1.0
  C  C349  1  0.428700  0.420600  0.949000  1.0
  C  C350  1  0.571300  0.079400  0.449000  1.0
  C  C351  1  0.571300  0.579400  0.051000  1.0
  C  C352  1  0.428700  0.920600  0.551000  1.0
  C  C353  1  0.405300  0.492000  0.931300  1.0
  C  C354  1  0.594700  0.008000  0.431300  1.0
  C  C355  1  0.594700  0.508000  0.068700  1.0
  C  C356  1  0.405300  0.992000  0.568700  1.0
  C  C357  1  0.475300  0.556900  0.919700  1.0
  C  C358  1  0.524700  0.943100  0.419700  1.0
  C  C359  1  0.524700  0.443100  0.080300  1.0
  C  C360  1  0.475300  0.056900  0.580300  1.0
  C  C361  1  0.575600  0.555600  0.925300  1.0
  C  C362  1  0.424400  0.944400  0.425300  1.0
  C  C363  1  0.424400  0.444400  0.074700  1.0
  C  C364  1  0.575600  0.055600  0.574700  1.0
  C  C365  1  0.648500  0.618500  0.914800  1.0
  C  C366  1  0.351500  0.881500  0.414800  1.0
  C  C367  1  0.351500  0.381500  0.085200  1.0
  C  C368  1  0.648500  0.118500  0.585200  1.0
  C  C369  1  0.741900  0.616900  0.924000  1.0
  C  C370  1  0.258100  0.883100  0.424000  1.0
  C  C371  1  0.258100  0.383100  0.076000  1.0
  C  C372  1  0.741900  0.116900  0.576000  1.0
  C  C373  1  0.762600  0.547000  0.944300  1.0
  C  C374  1  0.237400  0.953000  0.444300  1.0
  C  C375  1  0.237400  0.453000  0.055700  1.0
  C  C376  1  0.762600  0.047000  0.555700  1.0
  C  C377  1  0.601000  0.484300  0.944600  1.0
  C  C378  1  0.399000  0.015700  0.444600  1.0
  C  C379  1  0.399000  0.515700  0.055400  1.0
  C  C380  1  0.601000  0.984300  0.555400  1.0
  C  C381  1  0.529400  0.417600  0.955400  1.0
  C  C382  1  0.470600  0.082400  0.455400  1.0
  C  C383  1  0.470600  0.582400  0.044600  1.0
  C  C384  1  0.529400  0.917600  0.544600  1.0
  N  N385  1  0.823900  0.499100  0.172900  1.0
  N  N386  1  0.176100  0.000900  0.672900  1.0
  N  N387  1  0.176100  0.500900  0.827100  1.0
  N  N388  1  0.823900  0.999100  0.327100  1.0
  N  N389  1  0.992100  0.601700  0.183500  1.0
  N  N390  1  0.007900  0.898300  0.683500  1.0
  N  N391  1  0.007900  0.398300  0.816500  1.0
  N  N392  1  0.992100  0.101700  0.316500  1.0
  N  N393  1  0.816200  0.444500  0.035500  1.0
  N  N394  1  0.183800  0.055500  0.535500  1.0
  N  N395  1  0.183800  0.555500  0.964500  1.0
  N  N396  1  0.816200  0.944500  0.464500  1.0
  N  N397  1  0.123800  0.597000  0.061500  1.0
  N  N398  1  0.876200  0.903000  0.561500  1.0
  N  N399  1  0.876200  0.403000  0.938500  1.0
  N  N400  1  0.123800  0.097000  0.438500  1.0
  N  N401  1  0.865500  0.697500  0.092400  1.0
  N  N402  1  0.134500  0.802500  0.592400  1.0
  N  N403  1  0.134500  0.302500  0.907600  1.0
  N  N404  1  0.865500  0.197500  0.407600  1.0
  N  N405  1  0.021200  0.384400  0.146900  1.0
  N  N406  1  0.978800  0.115600  0.646900  1.0
  N  N407  1  0.978800  0.615600  0.853100  1.0
  N  N408  1  0.021200  0.884400  0.353100  1.0
  N  N409  1  0.516100  0.102100  0.189400  1.0
  N  N410  1  0.483900  0.397900  0.689400  1.0
  N  N411  1  0.483900  0.897900  0.810600  1.0
  N  N412  1  0.516100  0.602100  0.310600  1.0
  N  N413  1  0.677600  0.210200  0.183900  1.0
  N  N414  1  0.322400  0.289800  0.683900  1.0
  N  N415  1  0.322400  0.789800  0.816100  1.0
  N  N416  1  0.677600  0.710200  0.316100  1.0
  N  N417  1  0.667300  0.300900  0.052800  1.0
  N  N418  1  0.332700  0.199100  0.552800  1.0
  N  N419  1  0.332700  0.699100  0.947200  1.0
  N  N420  1  0.667300  0.800900  0.447200  1.0
  N  N421  1  0.683300  0.051700  0.089400  1.0
  N  N422  1  0.316700  0.448300  0.589400  1.0
  N  N423  1  0.316700  0.948300  0.910600  1.0
  N  N424  1  0.683300  0.551700  0.410600  1.0
  N  N425  1  0.391300  0.120000  0.063000  1.0
  N  N426  1  0.608700  0.380000  0.563000  1.0
  N  N427  1  0.608700  0.880000  0.937000  1.0
  N  N428  1  0.391300  0.620000  0.437000  1.0
  N  N429  1  0.459200  0.301100  0.182800  1.0
  N  N430  1  0.540800  0.198900  0.682800  1.0
  N  N431  1  0.540800  0.698900  0.817200  1.0
  N  N432  1  0.459200  0.801100  0.317200  1.0
  N  N433  1  0.662500  0.215100  0.953300  1.0
  N  N434  1  0.337500  0.284900  0.453300  1.0
  N  N435  1  0.337500  0.784900  0.046700  1.0
  N  N436  1  0.662500  0.715100  0.546700  1.0
  N  N437  1  0.696500  0.338100  0.890700  1.0
  N  N438  1  0.303500  0.161900  0.390700  1.0
  N  N439  1  0.303500  0.661900  0.109300  1.0
  N  N440  1  0.696500  0.838100  0.609300  1.0
  N  N441  1  0.556800  0.352000  0.973300  1.0
  N  N442  1  0.443200  0.148000  0.473300  1.0
  N  N443  1  0.443200  0.648000  0.026700  1.0
  N  N444  1  0.556800  0.852000  0.526700  1.0
  N  N445  1  0.695200  0.482200  0.953700  1.0
  N  N446  1  0.304800  0.017800  0.453700  1.0
  N  N447  1  0.304800  0.517800  0.046300  1.0
  N  N448  1  0.695200  0.982200  0.546300  1.0
  O  O449  1  0.183400  0.418900  0.208600  1
  O  O450  1  0.816600  0.081100  0.708600  1
  O  O451  1  0.816600  0.581100  0.791400  1
  O  O452  1  0.183400  0.918900  0.291400  1
  O  O453  1  0.021800  0.378200  0.020200  1
  O  O454  1  0.978200  0.121800  0.520200  1
  O  O455  1  0.978200  0.621800  0.979800  1
  O  O456  1  0.021800  0.878200  0.479800  1
  O  O457  1  0.267900  0.292200  0.200300  1
  O  O458  1  0.732100  0.207800  0.700300  1
  O  O459  1  0.732100  0.707800  0.799700  1
  O  O460  1  0.267900  0.792200  0.299700  1
  O  O461  1  0.890600  0.769600  0.996700  1
  O  O462  1  0.109400  0.730400  0.496700  1
  O  O463  1  0.109400  0.230400  0.003300  1
  O  O464  1  0.890600  0.269600  0.503300  1
  O  O465  1  0.021000  0.237000  0.100200  1
  O  O466  1  0.979000  0.263000  0.600200  1
  O  O467  1  0.979000  0.763000  0.899800  1
  O  O468  1  0.021000  0.737000  0.399800  1
  O  O469  1  0.862300  0.152900  0.058900  1
  O  O470  1  0.137700  0.347100  0.558900  1
  O  O471  1  0.137700  0.847100  0.941100  1
  O  O472  1  0.862300  0.652900  0.441100  1
  O  O473  1  0.795000  0.127000  0.861000  1
  O  O474  1  0.205000  0.373000  0.361000  1
  O  O475  1  0.205000  0.873000  0.139000  1
  O  O476  1  0.795000  0.627000  0.639000  1
  O  O477  1  0.909000  0.211000  0.913400  1
  O  O478  1  0.091000  0.289000  0.413400  1
  O  O479  1  0.091000  0.789000  0.086600  1
  O  O480  1  0.909000  0.711000  0.586600  1
  O  O481  1  0.741000  0.854000  0.118000  1
  O  O482  1  0.259000  0.646000  0.618000  1
  O  O483  1  0.259000  0.146000  0.882000  1
  O  O484  1  0.741000  0.354000  0.382000  1
  O  O485  1  0.087000  0.422000  0.289000  1
  O  O486  1  0.913000  0.078000  0.789000  1
  O  O487  1  0.913000  0.578000  0.711000  1
  O  O488  1  0.087000  0.922000  0.211000  1
  O  O489  1  0.216000  0.183000  0.119000  1
  O  O490  1  0.784000  0.317000  0.619000  1
  O  O491  1  0.784000  0.817000  0.881000  1
  O  O492  1  0.216000  0.683000  0.381000  1
  O  O493  1  0.835000  0.846000  0.115000  1
  O  O494  1  0.165000  0.654000  0.615000  1
  O  O495  1  0.165000  0.154000  0.885000  1
  O  O496  1  0.835000  0.346000  0.385000  1
  O  O497  1  0.138000  0.494000  0.298000  1
  O  O498  1  0.862000  0.006000  0.798000  1
  O  O499  1  0.862000  0.506000  0.702000  1
  O  O500  1  0.138000  0.994000  0.202000  1
  O  O501  1  0.240000  0.153000  0.157000  1
  O  O502  1  0.760000  0.347000  0.657000  1
  O  O503  1  0.760000  0.847000  0.843000  1
  O  O504  1  0.240000  0.653000  0.343000  1
  O  O505  1  0.843100  0.277200  0.002200  1.0
  O  O506  1  0.156900  0.222800  0.502200  1.0
  O  O507  1  0.156900  0.722800  0.997800  1.0
  O  O508  1  0.843100  0.777200  0.497800  1.0
