# generated using pymatgen
data_NaNdH48Os2C57N16O17
_symmetry_space_group_name_H-M   'P 1'
_cell_length_a   14.35280000
_cell_length_b   17.37440000
_cell_length_c   27.88000000
_cell_angle_alpha   90.00000000
_cell_angle_beta   90.00000000
_cell_angle_gamma   100.90800000
_symmetry_Int_Tables_number   1
_chemical_formula_structural   NaNdH48Os2C57N16O17
_chemical_formula_sum   'Na4 Nd4 H192 Os8 C228 N64 O68'
_cell_volume   6826.85635163
_cell_formula_units_Z   4
loop_
 _symmetry_equiv_pos_site_id
 _symmetry_equiv_pos_as_xyz
  1  'x, y, z'
loop_
 _atom_site_type_symbol
 _atom_site_label
 _atom_site_symmetry_multiplicity
 _atom_site_fract_x
 _atom_site_fract_y
 _atom_site_fract_z
 _atom_site_occupancy
  Nd  Nd1  1  0.234540  0.853979  0.521003  1.0
  Nd  Nd2  1  0.765460  0.646021  0.021003  1.0
  Nd  Nd3  1  0.765460  0.146021  0.478997  1.0
  Nd  Nd4  1  0.234540  0.353979  0.978997  1.0
  Na  Na5  1  0.590600  0.494200  0.491230  0.5
  O  O6  1  0.590600  0.494200  0.491230  0.5
  Na  Na7  1  0.409400  0.005800  0.991230  0.5
  O  O8  1  0.409400  0.005800  0.991230  0.5
  Na  Na9  1  0.409400  0.505800  0.508770  0.5
  O  O10  1  0.409400  0.505800  0.508770  0.5
  Na  Na11  1  0.590600  0.994200  0.008770  0.5
  O  O12  1  0.590600  0.994200  0.008770  0.5
  Na  Na13  1  0.631200  0.593900  0.510700  0.5
  O  O14  1  0.631200  0.593900  0.510700  0.5
  Na  Na15  1  0.368800  0.906100  0.010700  0.5
  O  O16  1  0.368800  0.906100  0.010700  0.5
  Na  Na17  1  0.368800  0.406100  0.489300  0.5
  O  O18  1  0.368800  0.406100  0.489300  0.5
  Na  Na19  1  0.631200  0.093900  0.989300  0.5
  O  O20  1  0.631200  0.093900  0.989300  0.5
  H  H21  1  0.524700  0.578900  0.740900  1
  H  H22  1  0.475300  0.921100  0.240900  1
  H  H23  1  0.475300  0.421100  0.259100  1
  H  H24  1  0.524700  0.078900  0.759100  1
  H  H25  1  0.488600  0.657400  0.726300  1
  H  H26  1  0.511400  0.842600  0.226300  1
  H  H27  1  0.511400  0.342600  0.273700  1
  H  H28  1  0.488600  0.157400  0.773700  1
  H  H29  1  0.516700  0.601100  0.685500  1
  H  H30  1  0.483300  0.898900  0.185500  1
  H  H31  1  0.483300  0.398900  0.314500  1
  H  H32  1  0.516700  0.101100  0.814500  1
  H  H33  1  0.382400  0.522000  0.696100  1
  H  H34  1  0.617600  0.978000  0.196100  1
  H  H35  1  0.617600  0.478000  0.303900  1
  H  H36  1  0.382400  0.022000  0.803900  1
  H  H37  1  0.511100  0.913800  0.494000  1
  H  H38  1  0.488900  0.586200  0.994000  1
  H  H39  1  0.488900  0.086200  0.506000  1
  H  H40  1  0.511100  0.413800  0.006000  1
  H  H41  1  0.552300  0.849200  0.494300  1
  H  H42  1  0.447700  0.650800  0.994300  1
  H  H43  1  0.447700  0.150800  0.505700  1
  H  H44  1  0.552300  0.349200  0.005700  1
  H  H45  1  0.362400  0.084800  0.681900  1
  H  H46  1  0.637600  0.415200  0.181900  1
  H  H47  1  0.637600  0.915200  0.318100  1
  H  H48  1  0.362400  0.584800  0.818100  1
  H  H49  1  0.334400  0.066500  0.723800  1
  H  H50  1  0.665600  0.433500  0.223800  1
  H  H51  1  0.665600  0.933500  0.276200  1
  H  H52  1  0.334400  0.566500  0.776200  1
  H  H53  1  0.229600  0.191200  0.732100  1
  H  H54  1  0.770400  0.308800  0.232100  1
  H  H55  1  0.770400  0.808800  0.267900  1
  H  H56  1  0.229600  0.691200  0.767900  1
  H  H57  1  0.180900  0.216300  0.693100  1
  H  H58  1  0.819100  0.283700  0.193100  1
  H  H59  1  0.819100  0.783700  0.306900  1
  H  H60  1  0.180900  0.716300  0.806900  1
  H  H61  1  0.569600  0.744200  0.383900  1
  H  H62  1  0.430400  0.755800  0.883900  1
  H  H63  1  0.430400  0.255800  0.616100  1
  H  H64  1  0.569600  0.244200  0.116100  1
  H  H65  1  0.498400  0.770200  0.392200  1
  H  H66  1  0.501600  0.729800  0.892200  1
  H  H67  1  0.501600  0.229800  0.607800  1
  H  H68  1  0.498400  0.270200  0.107800  1
  H  H69  1  0.660900  0.388400  0.572800  1
  H  H70  1  0.339100  0.111600  0.072800  1
  H  H71  1  0.339100  0.611600  0.427200  1
  H  H72  1  0.660900  0.888400  0.927200  1
  H  H73  1  0.590500  0.326100  0.569000  1
  H  H74  1  0.409500  0.173900  0.069000  1
  H  H75  1  0.409500  0.673900  0.431000  1
  H  H76  1  0.590500  0.826100  0.931000  1
  H  H77  1  0.771700  0.081100  0.634300  1.0
  H  H78  1  0.228300  0.418900  0.134300  1.0
  H  H79  1  0.228300  0.918900  0.365700  1.0
  H  H80  1  0.771700  0.581100  0.865700  1.0
  H  H81  1  0.880600  0.123700  0.694600  1.0
  H  H82  1  0.119400  0.376300  0.194600  1.0
  H  H83  1  0.119400  0.876300  0.305400  1.0
  H  H84  1  0.880600  0.623700  0.805400  1.0
  H  H85  1  0.853800  0.075500  0.771700  1.0
  H  H86  1  0.146200  0.424500  0.271700  1.0
  H  H87  1  0.146200  0.924500  0.228300  1.0
  H  H88  1  0.853800  0.575500  0.728300  1.0
  H  H89  1  0.743900  0.983500  0.829700  1.0
  H  H90  1  0.256100  0.516500  0.329700  1.0
  H  H91  1  0.256100  0.016500  0.170300  1.0
  H  H92  1  0.743900  0.483500  0.670300  1.0
  H  H93  1  0.609500  0.895300  0.842000  1.0
  H  H94  1  0.390500  0.604700  0.342000  1.0
  H  H95  1  0.390500  0.104700  0.158000  1.0
  H  H96  1  0.609500  0.395300  0.658000  1.0
  H  H97  1  0.452600  0.814800  0.807900  1.0
  H  H98  1  0.547400  0.685200  0.307900  1.0
  H  H99  1  0.547400  0.185200  0.192100  1.0
  H  H100  1  0.452600  0.314800  0.692100  1.0
  H  H101  1  0.350700  0.787300  0.742300  1.0
  H  H102  1  0.649300  0.712700  0.242300  1.0
  H  H103  1  0.649300  0.212700  0.257700  1.0
  H  H104  1  0.350700  0.287300  0.757700  1.0
  H  H105  1  0.391100  0.848300  0.669200  1.0
  H  H106  1  0.608900  0.651700  0.169200  1.0
  H  H107  1  0.608900  0.151700  0.330800  1.0
  H  H108  1  0.391100  0.348300  0.830800  1.0
  H  H109  1  0.895800  0.533600  0.342200  1.0
  H  H110  1  0.104200  0.966400  0.842200  1.0
  H  H111  1  0.104200  0.466400  0.657800  1.0
  H  H112  1  0.895800  0.033600  0.157800  1.0
  H  H113  1  0.847800  0.455600  0.274700  1.0
  H  H114  1  0.152200  0.044400  0.774700  1.0
  H  H115  1  0.152200  0.544400  0.725300  1.0
  H  H116  1  0.847800  0.955600  0.225300  1.0
  H  H117  1  0.934300  0.474700  0.204900  1.0
  H  H118  1  0.065700  0.025300  0.704900  1.0
  H  H119  1  0.065700  0.525300  0.795100  1.0
  H  H120  1  0.934300  0.974700  0.295100  1.0
  H  H121  1  0.073200  0.556100  0.159100  1.0
  H  H122  1  0.926800  0.943900  0.659100  1.0
  H  H123  1  0.926800  0.443900  0.840900  1.0
  H  H124  1  0.073200  0.056100  0.340900  1.0
  H  H125  1  0.210100  0.644800  0.160200  1.0
  H  H126  1  0.789900  0.855200  0.660200  1.0
  H  H127  1  0.789900  0.355200  0.839800  1.0
  H  H128  1  0.210100  0.144800  0.339800  1.0
  H  H129  1  0.334000  0.742800  0.209500  1.0
  H  H130  1  0.666000  0.757200  0.709500  1.0
  H  H131  1  0.666000  0.257200  0.790500  1.0
  H  H132  1  0.334000  0.242800  0.290500  1.0
  H  H133  1  0.378900  0.800400  0.283300  1.0
  H  H134  1  0.621100  0.699600  0.783300  1.0
  H  H135  1  0.621100  0.199600  0.716700  1.0
  H  H136  1  0.378900  0.300400  0.216700  1.0
  H  H137  1  0.277300  0.773300  0.349000  1.0
  H  H138  1  0.722700  0.726700  0.849000  1.0
  H  H139  1  0.722700  0.226700  0.651000  1.0
  H  H140  1  0.277300  0.273300  0.151000  1.0
  H  H141  1  0.001900  0.750800  0.501400  1.0
  H  H142  1  0.998100  0.749200  0.001400  1.0
  H  H143  1  0.998100  0.249200  0.498600  1.0
  H  H144  1  0.001900  0.250800  0.998600  1.0
  H  H145  1  0.841400  0.749500  0.511300  1.0
  H  H146  1  0.158600  0.750500  0.011300  1.0
  H  H147  1  0.158600  0.250500  0.488700  1.0
  H  H148  1  0.841400  0.249500  0.988700  1.0
  H  H149  1  0.791800  0.860500  0.543500  1.0
  H  H150  1  0.208200  0.639500  0.043500  1.0
  H  H151  1  0.208200  0.139500  0.456500  1.0
  H  H152  1  0.791800  0.360500  0.956500  1.0
  H  H153  1  0.837300  0.000700  0.573300  1.0
  H  H154  1  0.162700  0.499300  0.073300  1.0
  H  H155  1  0.162700  0.999300  0.426700  1.0
  H  H156  1  0.837300  0.500700  0.926700  1.0
  H  H157  1  0.950900  0.104800  0.593300  1.0
  H  H158  1  0.049100  0.395200  0.093300  1.0
  H  H159  1  0.049100  0.895200  0.406700  1.0
  H  H160  1  0.950900  0.604800  0.906700  1.0
  H  H161  1  0.125200  0.166200  0.601500  1.0
  H  H162  1  0.874800  0.333800  0.101500  1.0
  H  H163  1  0.874800  0.833800  0.398500  1.0
  H  H164  1  0.125200  0.666200  0.898500  1.0
  H  H165  1  0.283500  0.157200  0.587800  1.0
  H  H166  1  0.716500  0.342800  0.087800  1.0
  H  H167  1  0.716500  0.842800  0.412200  1.0
  H  H168  1  0.283500  0.657200  0.912200  1.0
  H  H169  1  0.318500  0.044100  0.553800  1.0
  H  H170  1  0.681500  0.455900  0.053800  1.0
  H  H171  1  0.681500  0.955900  0.446200  1.0
  H  H172  1  0.318500  0.544100  0.946200  1.0
  H  H173  1  0.173800  0.658500  0.489400  1.0
  H  H174  1  0.826200  0.841500  0.989400  1.0
  H  H175  1  0.826200  0.341500  0.510600  1.0
  H  H176  1  0.173800  0.158500  0.010600  1.0
  H  H177  1  0.074800  0.539800  0.507300  1.0
  H  H178  1  0.925200  0.960200  0.007300  1.0
  H  H179  1  0.925200  0.460200  0.492700  1.0
  H  H180  1  0.074800  0.039800  0.992700  1.0
  H  H181  1  0.990500  0.524900  0.579300  1.0
  H  H182  1  0.009500  0.975100  0.079300  1.0
  H  H183  1  0.009500  0.475100  0.420700  1.0
  H  H184  1  0.990500  0.024900  0.920700  1.0
  H  H185  1  0.959100  0.582900  0.659400  1.0
  H  H186  1  0.040900  0.917100  0.159400  1.0
  H  H187  1  0.040900  0.417100  0.340600  1.0
  H  H188  1  0.959100  0.082900  0.840600  1.0
  H  H189  1  0.000200  0.677700  0.716200  1.0
  H  H190  1  0.999800  0.822300  0.216200  1.0
  H  H191  1  0.999800  0.322300  0.283800  1.0
  H  H192  1  0.000200  0.177700  0.783800  1.0
  H  H193  1  0.102100  0.807900  0.739900  1.0
  H  H194  1  0.897900  0.692100  0.239900  1.0
  H  H195  1  0.897900  0.192100  0.260100  1.0
  H  H196  1  0.102100  0.307900  0.760100  1.0
  H  H197  1  0.212000  0.919400  0.717300  1.0
  H  H198  1  0.788000  0.580600  0.217300  1.0
  H  H199  1  0.788000  0.080600  0.282700  1.0
  H  H200  1  0.212000  0.419400  0.782700  1.0
  H  H201  1  0.259900  0.935600  0.637000  1.0
  H  H202  1  0.740100  0.564400  0.137000  1.0
  H  H203  1  0.740100  0.064400  0.363000  1.0
  H  H204  1  0.259900  0.435600  0.863000  1.0
  H  H205  1  0.405000  0.801200  0.499600  1.0
  H  H206  1  0.595000  0.698800  0.999600  1.0
  H  H207  1  0.595000  0.198800  0.500400  1.0
  H  H208  1  0.405000  0.301200  0.000400  1.0
  H  H209  1  0.356200  0.726800  0.490400  1.0
  H  H210  1  0.643800  0.773200  0.990400  1.0
  H  H211  1  0.643800  0.273200  0.509600  1.0
  H  H212  1  0.356200  0.226800  0.009600  1.0
  Os  Os213  1  0.568037  0.967207  0.624377  1.0
  Os  Os214  1  0.431963  0.532793  0.124377  1.0
  Os  Os215  1  0.431963  0.032793  0.375623  1.0
  Os  Os216  1  0.568037  0.467207  0.875623  1.0
  Os  Os217  1  0.068780  0.673903  0.369581  1.0
  Os  Os218  1  0.931220  0.826097  0.869581  1.0
  Os  Os219  1  0.931220  0.326097  0.630419  1.0
  Os  Os220  1  0.068780  0.173903  0.130419  1.0
  C  C221  1  0.488200  0.602800  0.717300  1
  C  C222  1  0.511800  0.897200  0.217300  1
  C  C223  1  0.511800  0.397200  0.282700  1
  C  C224  1  0.488200  0.102800  0.782700  1
  C  C225  1  0.759100  0.060900  0.665800  1.0
  C  C226  1  0.240900  0.439100  0.165800  1.0
  C  C227  1  0.240900  0.939100  0.334200  1.0
  C  C228  1  0.759100  0.560900  0.834200  1.0
  C  C229  1  0.824800  0.086600  0.701800  1.0
  C  C230  1  0.175200  0.413400  0.201800  1.0
  C  C231  1  0.175200  0.913400  0.298200  1.0
  C  C232  1  0.824800  0.586600  0.798200  1.0
  C  C233  1  0.808900  0.058600  0.747100  1.0
  C  C234  1  0.191100  0.441400  0.247100  1.0
  C  C235  1  0.191100  0.941400  0.252900  1.0
  C  C236  1  0.808900  0.558600  0.752900  1.0
  C  C237  1  0.725700  0.004400  0.757200  1.0
  C  C238  1  0.274300  0.495600  0.257200  1.0
  C  C239  1  0.274300  0.995600  0.242800  1.0
  C  C240  1  0.725700  0.504400  0.742800  1.0
  C  C241  1  0.701500  0.969300  0.803700  1.0
  C  C242  1  0.298500  0.530700  0.303700  1.0
  C  C243  1  0.298500  0.030700  0.196300  1.0
  C  C244  1  0.701500  0.469300  0.696300  1.0
  C  C245  1  0.621800  0.917800  0.811100  1.0
  C  C246  1  0.378200  0.582200  0.311100  1.0
  C  C247  1  0.378200  0.082200  0.188900  1.0
  C  C248  1  0.621800  0.417800  0.688900  1.0
  C  C249  1  0.553400  0.895200  0.773200  1.0
  C  C250  1  0.446600  0.604800  0.273200  1.0
  C  C251  1  0.446600  0.104800  0.226800  1.0
  C  C252  1  0.553400  0.395200  0.726800  1.0
  C  C253  1  0.468600  0.840300  0.778100  1.0
  C  C254  1  0.531400  0.659700  0.278100  1.0
  C  C255  1  0.531400  0.159700  0.221900  1.0
  C  C256  1  0.468600  0.340300  0.721900  1.0
  C  C257  1  0.408800  0.823800  0.739200  1.0
  C  C258  1  0.591200  0.676200  0.239200  1.0
  C  C259  1  0.591200  0.176200  0.260800  1.0
  C  C260  1  0.408800  0.323800  0.760800  1.0
  C  C261  1  0.433300  0.860300  0.695600  1.0
  C  C262  1  0.566700  0.639700  0.195600  1.0
  C  C263  1  0.566700  0.139700  0.304400  1.0
  C  C264  1  0.433300  0.360300  0.804400  1.0
  C  C265  1  0.575000  0.928800  0.727700  1.0
  C  C266  1  0.425000  0.571200  0.227700  1.0
  C  C267  1  0.425000  0.071200  0.272300  1.0
  C  C268  1  0.575000  0.428800  0.772300  1.0
  C  C269  1  0.661800  0.982000  0.719100  1.0
  C  C270  1  0.338200  0.518000  0.219100  1.0
  C  C271  1  0.338200  0.018000  0.280900  1.0
  C  C272  1  0.661800  0.482000  0.780900  1.0
  C  C273  1  0.452500  0.927500  0.587000  1.0
  C  C274  1  0.547500  0.572500  0.087000  1.0
  C  C275  1  0.547500  0.072500  0.413000  1.0
  C  C276  1  0.452500  0.427500  0.913000  1.0
  C  C277  1  0.635200  0.018500  0.568000  1.0
  C  C278  1  0.364800  0.481500  0.068000  1.0
  C  C279  1  0.364800  0.981500  0.432000  1.0
  C  C280  1  0.635200  0.518500  0.932000  1.0
  C  C281  1  0.516300  0.066600  0.637500  1.0
  C  C282  1  0.483700  0.433400  0.137500  1.0
  C  C283  1  0.483700  0.933400  0.362500  1.0
  C  C284  1  0.516300  0.566600  0.862500  1.0
  C  C285  1  0.616500  0.867400  0.610200  1.0
  C  C286  1  0.383500  0.632600  0.110200  1.0
  C  C287  1  0.383500  0.132600  0.389800  1.0
  C  C288  1  0.616500  0.367400  0.889800  1.0
  C  C289  1  0.933300  0.541100  0.313900  1.0
  C  C290  1  0.066700  0.958900  0.813900  1.0
  C  C291  1  0.066700  0.458900  0.686100  1.0
  C  C292  1  0.933300  0.041100  0.186100  1.0
  C  C293  1  0.903700  0.494800  0.273200  1.0
  C  C294  1  0.096300  0.005200  0.773200  1.0
  C  C295  1  0.096300  0.505200  0.726800  1.0
  C  C296  1  0.903700  0.994800  0.226800  1.0
  C  C297  1  0.954300  0.506100  0.232300  1.0
  C  C298  1  0.045700  0.993900  0.732300  1.0
  C  C299  1  0.045700  0.493900  0.767700  1.0
  C  C300  1  0.954300  0.006100  0.267700  1.0
  C  C301  1  0.036100  0.564100  0.230100  1.0
  C  C302  1  0.963900  0.935900  0.730100  1.0
  C  C303  1  0.963900  0.435900  0.769900  1.0
  C  C304  1  0.036100  0.064100  0.269900  1.0
  C  C305  1  0.093300  0.582300  0.188300  1.0
  C  C306  1  0.906700  0.917700  0.688300  1.0
  C  C307  1  0.906700  0.417700  0.811700  1.0
  C  C308  1  0.093300  0.082300  0.311700  1.0
  C  C309  1  0.173900  0.635000  0.188800  1.0
  C  C310  1  0.826100  0.865000  0.688800  1.0
  C  C311  1  0.826100  0.365000  0.811200  1.0
  C  C312  1  0.173900  0.135000  0.311200  1.0
  C  C313  1  0.208100  0.678100  0.232500  1.0
  C  C314  1  0.791900  0.821900  0.732500  1.0
  C  C315  1  0.791900  0.321900  0.767500  1.0
  C  C316  1  0.208100  0.178100  0.267500  1.0
  C  C317  1  0.293700  0.730900  0.236600  1.0
  C  C318  1  0.706300  0.769100  0.736600  1.0
  C  C319  1  0.706300  0.269100  0.763400  1.0
  C  C320  1  0.293700  0.230900  0.263400  1.0
  C  C321  1  0.319700  0.765600  0.279900  1.0
  C  C322  1  0.680300  0.734400  0.779900  1.0
  C  C323  1  0.680300  0.234400  0.720100  1.0
  C  C324  1  0.319700  0.265600  0.220100  1.0
  C  C325  1  0.258400  0.749300  0.319000  1.0
  C  C326  1  0.741600  0.750700  0.819000  1.0
  C  C327  1  0.741600  0.250700  0.681000  1.0
  C  C328  1  0.258400  0.249300  0.181000  1.0
  C  C329  1  0.150300  0.664100  0.273100  1.0
  C  C330  1  0.849700  0.835900  0.773100  1.0
  C  C331  1  0.849700  0.335900  0.726900  1.0
  C  C332  1  0.150300  0.164100  0.226900  1.0
  C  C333  1  0.063800  0.607100  0.272500  1.0
  C  C334  1  0.936200  0.892900  0.772500  1.0
  C  C335  1  0.936200  0.392900  0.727500  1.0
  C  C336  1  0.063800  0.107100  0.227500  1.0
  C  C337  1  0.130400  0.752400  0.415900  1.0
  C  C338  1  0.869600  0.747600  0.915900  1.0
  C  C339  1  0.869600  0.247600  0.584100  1.0
  C  C340  1  0.130400  0.252400  0.084100  1.0
  C  C341  1  0.142100  0.595800  0.397800  1.0
  C  C342  1  0.857900  0.904200  0.897800  1.0
  C  C343  1  0.857900  0.404200  0.602200  1.0
  C  C344  1  0.142100  0.095800  0.102200  1.0
  C  C345  1  0.962900  0.639000  0.415000  1.0
  C  C346  1  0.037100  0.861000  0.915000  1.0
  C  C347  1  0.037100  0.361000  0.585000  1.0
  C  C348  1  0.962900  0.139000  0.085000  1.0
  C  C349  1  0.996100  0.751300  0.337500  1.0
  C  C350  1  0.003900  0.748700  0.837500  1.0
  C  C351  1  0.003900  0.248700  0.662500  1.0
  C  C352  1  0.996100  0.251300  0.162500  1.0
  C  C353  1  0.982900  0.795600  0.514900  1.0
  C  C354  1  0.017100  0.704400  0.014900  1.0
  C  C355  1  0.017100  0.204400  0.485100  1.0
  C  C356  1  0.982900  0.295600  0.985100  1.0
  C  C357  1  0.886600  0.794400  0.520300  1.0
  C  C358  1  0.113400  0.705600  0.020300  1.0
  C  C359  1  0.113400  0.205600  0.479700  1.0
  C  C360  1  0.886600  0.294400  0.979700  1.0
  C  C361  1  0.857300  0.859900  0.539100  1.0
  C  C362  1  0.142700  0.640100  0.039100  1.0
  C  C363  1  0.142700  0.140100  0.460900  1.0
  C  C364  1  0.857300  0.359900  0.960900  1.0
  C  C365  1  0.926300  0.925100  0.551600  1.0
  C  C366  1  0.073700  0.574900  0.051600  1.0
  C  C367  1  0.073700  0.074900  0.448400  1.0
  C  C368  1  0.926300  0.425100  0.948400  1.0
  C  C369  1  0.902200  0.997200  0.569700  1.0
  C  C370  1  0.097800  0.502800  0.069700  1.0
  C  C371  1  0.097800  0.002800  0.430300  1.0
  C  C372  1  0.902200  0.497200  0.930300  1.0
  C  C373  1  0.969200  0.058600  0.581400  1.0
  C  C374  1  0.030800  0.441400  0.081400  1.0
  C  C375  1  0.030800  0.941400  0.418600  1.0
  C  C376  1  0.969200  0.558600  0.918600  1.0
  C  C377  1  0.068100  0.056500  0.576400  1.0
  C  C378  1  0.931900  0.443500  0.076400  1.0
  C  C379  1  0.931900  0.943500  0.423600  1.0
  C  C380  1  0.068100  0.556500  0.923600  1.0
  C  C381  1  0.140400  0.119900  0.588100  1.0
  C  C382  1  0.859600  0.380100  0.088100  1.0
  C  C383  1  0.859600  0.880100  0.411900  1.0
  C  C384  1  0.140400  0.619900  0.911900  1.0
  C  C385  1  0.233800  0.114700  0.580000  1.0
  C  C386  1  0.766200  0.385300  0.080000  1.0
  C  C387  1  0.766200  0.885300  0.420000  1.0
  C  C388  1  0.233800  0.614700  0.920000  1.0
  C  C389  1  0.254100  0.046300  0.560200  1.0
  C  C390  1  0.745900  0.453700  0.060200  1.0
  C  C391  1  0.745900  0.953700  0.439800  1.0
  C  C392  1  0.254100  0.546300  0.939800  1.0
  C  C393  1  0.094800  0.987600  0.557500  1.0
  C  C394  1  0.905200  0.512400  0.057500  1.0
  C  C395  1  0.905200  0.012400  0.442500  1.0
  C  C396  1  0.094800  0.487600  0.942500  1.0
  C  C397  1  0.022700  0.921100  0.545700  1.0
  C  C398  1  0.977300  0.578900  0.045700  1.0
  C  C399  1  0.977300  0.078900  0.454300  1.0
  C  C400  1  0.022700  0.421100  0.954300  1.0
  C  C401  1  0.141300  0.653100  0.519300  1.0
  C  C402  1  0.858700  0.846900  0.019300  1.0
  C  C403  1  0.858700  0.346900  0.480700  1.0
  C  C404  1  0.141300  0.153100  0.980700  1.0
  C  C405  1  0.081600  0.581700  0.529600  1.0
  C  C406  1  0.918400  0.918300  0.029600  1.0
  C  C407  1  0.918400  0.418300  0.470400  1.0
  C  C408  1  0.081600  0.081700  0.970400  1.0
  C  C409  1  0.033100  0.572400  0.572200  1.0
  C  C410  1  0.966900  0.927600  0.072200  1.0
  C  C411  1  0.966900  0.427600  0.427800  1.0
  C  C412  1  0.033100  0.072400  0.927800  1.0
  C  C413  1  0.047800  0.634900  0.605400  1.0
  C  C414  1  0.952200  0.865100  0.105400  1.0
  C  C415  1  0.952200  0.365100  0.394600  1.0
  C  C416  1  0.047800  0.134900  0.894600  1.0
  C  C417  1  0.004900  0.628300  0.651800  1.0
  C  C418  1  0.995100  0.871700  0.151800  1.0
  C  C419  1  0.995100  0.371700  0.348200  1.0
  C  C420  1  0.004900  0.128300  0.848200  1.0
  C  C421  1  0.027800  0.684600  0.685100  1.0
  C  C422  1  0.972200  0.815400  0.185100  1.0
  C  C423  1  0.972200  0.315400  0.314900  1.0
  C  C424  1  0.027800  0.184600  0.814900  1.0
  C  C425  1  0.094300  0.755900  0.673800  1.0
  C  C426  1  0.905700  0.744100  0.173800  1.0
  C  C427  1  0.905700  0.244100  0.326200  1.0
  C  C428  1  0.094300  0.255900  0.826200  1.0
  C  C429  1  0.124800  0.813900  0.707900  1.0
  C  C430  1  0.875200  0.686100  0.207900  1.0
  C  C431  1  0.875200  0.186100  0.292100  1.0
  C  C432  1  0.124800  0.313900  0.792100  1.0
  C  C433  1  0.188500  0.880000  0.694400  1.0
  C  C434  1  0.811500  0.620000  0.194400  1.0
  C  C435  1  0.811500  0.120000  0.305600  1.0
  C  C436  1  0.188500  0.380000  0.805600  1.0
  C  C437  1  0.218500  0.888600  0.646200  1.0
  C  C438  1  0.781500  0.611400  0.146200  1.0
  C  C439  1  0.781500  0.111400  0.353800  1.0
  C  C440  1  0.218500  0.388600  0.853800  1.0
  C  C441  1  0.131700  0.766600  0.626500  1.0
  C  C442  1  0.868300  0.733400  0.126500  1.0
  C  C443  1  0.868300  0.233400  0.373500  1.0
  C  C444  1  0.131700  0.266600  0.873500  1.0
  C  C445  1  0.110300  0.703800  0.592700  1.0
  C  C446  1  0.889700  0.796200  0.092700  1.0
  C  C447  1  0.889700  0.296200  0.407300  1.0
  C  C448  1  0.110300  0.203800  0.907300  1.0
  N  N449  1  0.679300  0.009200  0.673440  1.0
  N  N450  1  0.320700  0.490800  0.173440  1.0
  N  N451  1  0.320700  0.990800  0.326560  1.0
  N  N452  1  0.679300  0.509200  0.826560  1.0
  N  N453  1  0.514000  0.911800  0.689200  1.0
  N  N454  1  0.486000  0.588200  0.189200  1.0
  N  N455  1  0.486000  0.088200  0.310800  1.0
  N  N456  1  0.514000  0.411800  0.810800  1.0
  N  N457  1  0.381900  0.905400  0.566700  1.0
  N  N458  1  0.618100  0.594600  0.066700  1.0
  N  N459  1  0.618100  0.094600  0.433300  1.0
  N  N460  1  0.381900  0.405400  0.933300  1.0
  N  N461  1  0.679400  0.048900  0.535050  1.0
  N  N462  1  0.320600  0.451100  0.035050  1.0
  N  N463  1  0.320600  0.951100  0.464950  1.0
  N  N464  1  0.679400  0.548900  0.964950  1.0
  N  N465  1  0.486900  0.123700  0.642800  1.0
  N  N466  1  0.513100  0.376300  0.142800  1.0
  N  N467  1  0.513100  0.876300  0.357200  1.0
  N  N468  1  0.486900  0.623700  0.857200  1.0
  N  N469  1  0.640000  0.808000  0.602000  1.0
  N  N470  1  0.360000  0.692000  0.102000  1.0
  N  N471  1  0.360000  0.192000  0.398000  1.0
  N  N472  1  0.640000  0.308000  0.898000  1.0
  N  N473  1  0.013100  0.595500  0.313600  1.0
  N  N474  1  0.986900  0.904500  0.813600  1.0
  N  N475  1  0.986900  0.404500  0.686400  1.0
  N  N476  1  0.013100  0.095500  0.186400  1.0
  N  N477  1  0.174100  0.701200  0.315870  1.0
  N  N478  1  0.825900  0.798800  0.815870  1.0
  N  N479  1  0.825900  0.298800  0.684130  1.0
  N  N480  1  0.174100  0.201200  0.184130  1.0
  N  N481  1  0.168400  0.799100  0.443460  1.0
  N  N482  1  0.831600  0.700900  0.943460  1.0
  N  N483  1  0.831600  0.200900  0.556540  1.0
  N  N484  1  0.168400  0.299100  0.056540  1.0
  N  N485  1  0.186900  0.551700  0.413300  1.0
  N  N486  1  0.813100  0.948300  0.913300  1.0
  N  N487  1  0.813100  0.448300  0.586700  1.0
  N  N488  1  0.186900  0.051700  0.086700  1.0
  N  N489  1  0.899400  0.617400  0.440700  1.0
  N  N490  1  0.100600  0.882600  0.940700  1.0
  N  N491  1  0.100600  0.382600  0.559300  1.0
  N  N492  1  0.899400  0.117400  0.059300  1.0
  N  N493  1  0.956300  0.792800  0.317000  1.0
  N  N494  1  0.043700  0.707200  0.817000  1.0
  N  N495  1  0.043700  0.207200  0.683000  1.0
  N  N496  1  0.956300  0.292800  0.183000  1.0
  N  N497  1  0.050700  0.855900  0.527620  1.0
  N  N498  1  0.949300  0.644100  0.027620  1.0
  N  N499  1  0.949300  0.144100  0.472380  1.0
  N  N500  1  0.050700  0.355900  0.972380  1.0
  N  N501  1  0.187700  0.983600  0.549910  1.0
  N  N502  1  0.812300  0.516400  0.049910  1.0
  N  N503  1  0.812300  0.016400  0.450090  1.0
  N  N504  1  0.187700  0.483600  0.950090  1.0
  N  N505  1  0.154800  0.713500  0.549150  1.0
  N  N506  1  0.845200  0.786500  0.049150  1.0
  N  N507  1  0.845200  0.286500  0.450850  1.0
  N  N508  1  0.154800  0.213500  0.950850  1.0
  N  N509  1  0.191100  0.833700  0.612920  1.0
  N  N510  1  0.808900  0.666300  0.112920  1.0
  N  N511  1  0.808900  0.166300  0.387080  1.0
  N  N512  1  0.191100  0.333700  0.887080  1.0
  O  O513  1  0.774600  0.555000  0.516700  1
  O  O514  1  0.225400  0.945000  0.016700  1
  O  O515  1  0.225400  0.445000  0.483300  1
  O  O516  1  0.774600  0.055000  0.983300  1
  O  O517  1  0.668300  0.654100  0.618400  1
  O  O518  1  0.331700  0.845900  0.118400  1
  O  O519  1  0.331700  0.345900  0.381600  1
  O  O520  1  0.668300  0.154100  0.881600  1
  O  O521  1  0.607600  0.740600  0.500600  1
  O  O522  1  0.392400  0.759400  0.000600  1
  O  O523  1  0.392400  0.259400  0.499400  1
  O  O524  1  0.607600  0.240600  0.999400  1
  O  O525  1  0.388500  0.558600  0.716300  1
  O  O526  1  0.611500  0.941400  0.216300  1
  O  O527  1  0.611500  0.441400  0.283700  1
  O  O528  1  0.388500  0.058600  0.783700  1
  O  O529  1  0.525500  0.876000  0.478000  1
  O  O530  1  0.474500  0.624000  0.978000  1
  O  O531  1  0.474500  0.124000  0.522000  1
  O  O532  1  0.525500  0.376000  0.022000  1
  O  O533  1  0.309900  0.070700  0.696500  1
  O  O534  1  0.690100  0.429300  0.196500  1
  O  O535  1  0.690100  0.929300  0.303500  1
  O  O536  1  0.309900  0.570700  0.803500  1
  O  O537  1  0.231900  0.202900  0.702500  1
  O  O538  1  0.768100  0.297100  0.202500  1
  O  O539  1  0.768100  0.797100  0.297500  1
  O  O540  1  0.231900  0.702900  0.797500  1
  O  O541  1  0.517000  0.727400  0.397800  1
  O  O542  1  0.483000  0.772600  0.897800  1
  O  O543  1  0.483000  0.272600  0.602200  1
  O  O544  1  0.517000  0.227400  0.102200  1
  O  O545  1  0.639000  0.350500  0.554200  1
  O  O546  1  0.361000  0.149500  0.054200  1
  O  O547  1  0.361000  0.649500  0.445800  1
  O  O548  1  0.639000  0.850500  0.945800  1
  O  O549  1  0.748300  0.478400  0.411400  1
  O  O550  1  0.251700  0.021600  0.911400  1
  O  O551  1  0.251700  0.521600  0.588600  1
  O  O552  1  0.748300  0.978400  0.088600  1
  O  O553  1  0.368600  0.458800  0.642900  1
  O  O554  1  0.631400  0.041200  0.142900  1
  O  O555  1  0.631400  0.541200  0.357100  1
  O  O556  1  0.368600  0.958800  0.857100  1
  O  O557  1  0.712000  0.689300  0.376100  1
  O  O558  1  0.288000  0.810700  0.876100  1
  O  O559  1  0.288000  0.310700  0.623900  1
  O  O560  1  0.712000  0.189300  0.123900  1
  O  O561  1  0.291400  0.660100  0.659700  1
  O  O562  1  0.708600  0.839900  0.159700  1
  O  O563  1  0.708600  0.339900  0.340300  1
  O  O564  1  0.291400  0.160100  0.840300  1
  O  O565  1  0.765100  0.160400  0.876600  1
  O  O566  1  0.234900  0.339600  0.376600  1
  O  O567  1  0.234900  0.839600  0.123400  1
  O  O568  1  0.765100  0.660400  0.623400  1
  O  O569  1  0.516600  0.432500  0.508200  1
  O  O570  1  0.483400  0.067500  0.008200  1
  O  O571  1  0.483400  0.567500  0.491800  1
  O  O572  1  0.516600  0.932500  0.991800  1
  O  O573  1  0.350500  0.771800  0.500400  1.0
  O  O574  1  0.649500  0.728200  0.000400  1.0
  O  O575  1  0.649500  0.228200  0.499600  1.0
  O  O576  1  0.350500  0.271800  0.999600  1.0
