# generated using pymatgen
data_NaErH54Os2C58N16O15
_symmetry_space_group_name_H-M   'P 1'
_cell_length_a   14.16990000
_cell_length_b   17.23700000
_cell_length_c   27.81000000
_cell_angle_alpha   90.00000000
_cell_angle_beta   90.00000000
_cell_angle_gamma   101.96800000
_symmetry_Int_Tables_number   1
_chemical_formula_structural   NaErH54Os2C58N16O15
_chemical_formula_sum   'Na4 Er4 H216 Os8 C232 N64 O60'
_cell_volume   6644.85235923
_cell_formula_units_Z   4
loop_
 _symmetry_equiv_pos_site_id
 _symmetry_equiv_pos_as_xyz
  1  'x, y, z'
loop_
 _atom_site_type_symbol
 _atom_site_label
 _atom_site_symmetry_multiplicity
 _atom_site_fract_x
 _atom_site_fract_y
 _atom_site_fract_z
 _atom_site_occupancy
  Na  Na1  1  0.088750  0.016170  0.987740  1
  Na  Na2  1  0.911250  0.483830  0.487740  1
  Na  Na3  1  0.911250  0.983830  0.012260  1
  Na  Na4  1  0.088750  0.516170  0.512260  1
  Er  Er5  1  0.731916  0.355042  0.020278  1.0
  Er  Er6  1  0.268084  0.144958  0.520278  1.0
  Er  Er7  1  0.268084  0.644958  0.979722  1.0
  Er  Er8  1  0.731916  0.855042  0.479722  1.0
  H  H9  1  0.280300  0.145500  0.157900  1
  H  H10  1  0.719700  0.354500  0.657900  1
  H  H11  1  0.719700  0.854500  0.842100  1
  H  H12  1  0.280300  0.645500  0.342100  1
  H  H13  1  0.301100  0.209800  0.115600  1
  H  H14  1  0.698900  0.290200  0.615600  1
  H  H15  1  0.698900  0.790200  0.884400  1
  H  H16  1  0.301100  0.709800  0.384400  1
  H  H17  1  0.287600  0.117400  0.103400  1
  H  H18  1  0.712400  0.382600  0.603400  1
  H  H19  1  0.712400  0.882600  0.896600  1
  H  H20  1  0.287600  0.617400  0.396600  1
  H  H21  1  0.134300  0.105700  0.107400  1
  H  H22  1  0.865700  0.394300  0.607400  1
  H  H23  1  0.865700  0.894300  0.892600  1
  H  H24  1  0.134300  0.605700  0.392600  1
  H  H25  1  0.980900  0.919300  0.759300  1
  H  H26  1  0.019100  0.580700  0.259300  1
  H  H27  1  0.019100  0.080700  0.240700  1
  H  H28  1  0.980900  0.419300  0.740700  1
  H  H29  1  0.988800  0.903200  0.815700  1
  H  H30  1  0.011200  0.596800  0.315700  1
  H  H31  1  0.011200  0.096800  0.184300  1
  H  H32  1  0.988800  0.403200  0.684300  1
  H  H33  1  0.020500  0.844000  0.777500  1
  H  H34  1  0.979500  0.656000  0.277500  1
  H  H35  1  0.979500  0.156000  0.222500  1
  H  H36  1  0.020500  0.344000  0.722500  1
  H  H37  1  0.141700  0.926600  0.807400  1
  H  H38  1  0.858300  0.573400  0.307400  1
  H  H39  1  0.858300  0.073400  0.192600  1
  H  H40  1  0.141700  0.426600  0.692600  1
  H  H41  1  0.139900  0.283200  0.003100  1
  H  H42  1  0.860100  0.216800  0.503100  1
  H  H43  1  0.860100  0.716800  0.996900  1
  H  H44  1  0.139900  0.783200  0.496900  1
  H  H45  1  0.085800  0.235900  0.971400  1
  H  H46  1  0.914200  0.264100  0.471400  1
  H  H47  1  0.914200  0.764100  0.028600  1
  H  H48  1  0.085800  0.735900  0.528600  1
  H  H49  1  0.144200  0.403300  0.817200  1
  H  H50  1  0.855800  0.096700  0.317200  1
  H  H51  1  0.855800  0.596700  0.182800  1
  H  H52  1  0.144200  0.903300  0.682800  1
  H  H53  1  0.193900  0.405700  0.769900  1
  H  H54  1  0.806100  0.094300  0.269900  1
  H  H55  1  0.806100  0.594300  0.230100  1
  H  H56  1  0.193900  0.905700  0.730100  1
  H  H57  1  0.089200  0.820300  0.073500  1
  H  H58  1  0.910800  0.679700  0.573500  1
  H  H59  1  0.910800  0.179700  0.926500  1
  H  H60  1  0.089200  0.320300  0.426500  1
  H  H61  1  0.116500  0.884000  0.060900  1
  H  H62  1  0.883500  0.616000  0.560900  1
  H  H63  1  0.883500  0.116000  0.939100  1
  H  H64  1  0.116500  0.384000  0.439100  1
  H  H65  1  0.281700  0.309700  0.775300  1
  H  H66  1  0.718300  0.190300  0.275300  1
  H  H67  1  0.718300  0.690300  0.224700  1
  H  H68  1  0.281700  0.809700  0.724700  1
  H  H69  1  0.240000  0.311700  0.822900  1
  H  H70  1  0.760000  0.188300  0.322900  1
  H  H71  1  0.760000  0.688300  0.177100  1
  H  H72  1  0.240000  0.811700  0.677100  1
  H  H73  1  0.022200  0.271900  0.885500  1
  H  H74  1  0.977800  0.228100  0.385500  1
  H  H75  1  0.977800  0.728100  0.114500  1
  H  H76  1  0.022200  0.771900  0.614500  1
  H  H77  1  0.070000  0.210400  0.891100  1
  H  H78  1  0.930000  0.289600  0.391100  1
  H  H79  1  0.930000  0.789600  0.108900  1
  H  H80  1  0.070000  0.710400  0.608900  1
  H  H81  1  0.984600  0.383500  0.000600  1
  H  H82  1  0.015400  0.116500  0.500600  1
  H  H83  1  0.015400  0.616500  0.999400  1
  H  H84  1  0.984600  0.883500  0.499400  1
  H  H85  1  0.012700  0.400400  0.952900  1
  H  H86  1  0.987300  0.099600  0.452900  1
  H  H87  1  0.987300  0.599600  0.047100  1
  H  H88  1  0.012700  0.900400  0.547100  1
  H  H89  1  0.884300  0.340200  0.162500  1.0
  H  H90  1  0.115700  0.159800  0.662500  1.0
  H  H91  1  0.115700  0.659800  0.837500  1.0
  H  H92  1  0.884300  0.840200  0.337500  1.0
  H  H93  1  0.837600  0.275400  0.235000  1.0
  H  H94  1  0.162400  0.224600  0.735000  1.0
  H  H95  1  0.162400  0.724600  0.765000  1.0
  H  H96  1  0.837600  0.775400  0.265000  1.0
  H  H97  1  0.937200  0.302600  0.301900  1.0
  H  H98  1  0.062800  0.197400  0.801900  1.0
  H  H99  1  0.062800  0.697400  0.698100  1.0
  H  H100  1  0.937200  0.802600  0.198100  1.0
  H  H101  1  0.092200  0.382800  0.339200  1.0
  H  H102  1  0.907800  0.117200  0.839200  1.0
  H  H103  1  0.907800  0.617200  0.660800  1.0
  H  H104  1  0.092200  0.882800  0.160800  1.0
  H  H105  1  0.230800  0.474500  0.330200  1.0
  H  H106  1  0.769200  0.025500  0.830200  1.0
  H  H107  1  0.769200  0.525500  0.669800  1.0
  H  H108  1  0.230800  0.974500  0.169800  1.0
  H  H109  1  0.346000  0.569000  0.274500  1.0
  H  H110  1  0.654000  0.931000  0.774500  1.0
  H  H111  1  0.654000  0.431000  0.725500  1.0
  H  H112  1  0.346000  0.069000  0.225500  1.0
  H  H113  1  0.380600  0.620800  0.198400  1.0
  H  H114  1  0.619400  0.879200  0.698400  1.0
  H  H115  1  0.619400  0.379200  0.801600  1.0
  H  H116  1  0.380600  0.120800  0.301600  1.0
  H  H117  1  0.273300  0.578200  0.134800  1.0
  H  H118  1  0.726700  0.921800  0.634800  1.0
  H  H119  1  0.726700  0.421800  0.865200  1.0
  H  H120  1  0.273300  0.078200  0.365200  1.0
  H  H121  1  0.781700  0.278900  0.850800  1.0
  H  H122  1  0.218300  0.221100  0.350800  1.0
  H  H123  1  0.218300  0.721100  0.149200  1.0
  H  H124  1  0.781700  0.778900  0.649200  1.0
  H  H125  1  0.887100  0.307100  0.786000  1.0
  H  H126  1  0.112900  0.192900  0.286000  1.0
  H  H127  1  0.112900  0.692900  0.214000  1.0
  H  H128  1  0.887100  0.807100  0.714000  1.0
  H  H129  1  0.841600  0.250400  0.710900  1.0
  H  H130  1  0.158400  0.249600  0.210900  1.0
  H  H131  1  0.158400  0.749600  0.289100  1.0
  H  H132  1  0.841600  0.750400  0.789100  1.0
  H  H133  1  0.716500  0.152900  0.660100  1.0
  H  H134  1  0.283500  0.347100  0.160100  1.0
  H  H135  1  0.283500  0.847100  0.339900  1.0
  H  H136  1  0.716500  0.652900  0.839900  1.0
  H  H137  1  0.578000  0.058900  0.658700  1.0
  H  H138  1  0.422000  0.441100  0.158700  1.0
  H  H139  1  0.422000  0.941100  0.341300  1.0
  H  H140  1  0.578000  0.558900  0.841300  1.0
  H  H141  1  0.437600  0.974600  0.703500  1.0
  H  H142  1  0.562400  0.525400  0.203500  1.0
  H  H143  1  0.562400  0.025400  0.296500  1.0
  H  H144  1  0.437600  0.474600  0.796500  1.0
  H  H145  1  0.348200  0.952300  0.773600  1.0
  H  H146  1  0.651800  0.547700  0.273600  1.0
  H  H147  1  0.651800  0.047700  0.226400  1.0
  H  H148  1  0.348200  0.452300  0.726400  1.0
  H  H149  1  0.395400  0.032600  0.840900  1.0
  H  H150  1  0.604600  0.467400  0.340900  1.0
  H  H151  1  0.604600  0.967400  0.159100  1.0
  H  H152  1  0.395400  0.532600  0.659100  1.0
  H  H153  1  0.502900  0.245600  0.000000  1.0
  H  H154  1  0.497100  0.254400  0.500000  1.0
  H  H155  1  0.497100  0.754400  0.000000  1.0
  H  H156  1  0.502900  0.745600  0.500000  1.0
  H  H157  1  0.339400  0.241700  0.011400  1.0
  H  H158  1  0.660600  0.258300  0.511400  1.0
  H  H159  1  0.660600  0.758300  0.988600  1.0
  H  H160  1  0.339400  0.741700  0.488600  1.0
  H  H161  1  0.289700  0.351600  0.043500  1.0
  H  H162  1  0.710300  0.148400  0.543500  1.0
  H  H163  1  0.710300  0.648400  0.956500  1.0
  H  H164  1  0.289700  0.851600  0.456500  1.0
  H  H165  1  0.335000  0.493300  0.073100  1.0
  H  H166  1  0.665000  0.006700  0.573100  1.0
  H  H167  1  0.665000  0.506700  0.926900  1.0
  H  H168  1  0.335000  0.993300  0.426900  1.0
  H  H169  1  0.450300  0.599900  0.093500  1.0
  H  H170  1  0.549700  0.900100  0.593500  1.0
  H  H171  1  0.549700  0.400100  0.906500  1.0
  H  H172  1  0.450300  0.099900  0.406500  1.0
  H  H173  1  0.628200  0.664800  0.099900  1.0
  H  H174  1  0.371800  0.835200  0.599900  1.0
  H  H175  1  0.371800  0.335200  0.900100  1.0
  H  H176  1  0.628200  0.164800  0.400100  1.0
  H  H177  1  0.787500  0.658900  0.084600  1.0
  H  H178  1  0.212500  0.841100  0.584600  1.0
  H  H179  1  0.212500  0.341100  0.915400  1.0
  H  H180  1  0.787500  0.158900  0.415400  1.0
  H  H181  1  0.822900  0.545800  0.048500  1.0
  H  H182  1  0.177100  0.954200  0.548500  1.0
  H  H183  1  0.177100  0.454200  0.951500  1.0
  H  H184  1  0.822900  0.045800  0.451500  1.0
  H  H185  1  0.679600  0.160800  0.987400  1.0
  H  H186  1  0.320400  0.339200  0.487400  1.0
  H  H187  1  0.320400  0.839200  0.012600  1.0
  H  H188  1  0.679600  0.660800  0.512600  1.0
  H  H189  1  0.585000  0.038400  0.006500  1.0
  H  H190  1  0.415000  0.461600  0.506500  1.0
  H  H191  1  0.415000  0.961600  0.993500  1.0
  H  H192  1  0.585000  0.538400  0.493500  1.0
  H  H193  1  0.499200  0.022400  0.077800  1.0
  H  H194  1  0.500800  0.477600  0.577800  1.0
  H  H195  1  0.500800  0.977600  0.922200  1.0
  H  H196  1  0.499200  0.522400  0.422200  1.0
  H  H197  1  0.462400  0.081000  0.158400  1.0
  H  H198  1  0.537600  0.419000  0.658400  1.0
  H  H199  1  0.537600  0.919000  0.841600  1.0
  H  H200  1  0.462400  0.581000  0.341600  1.0
  H  H201  1  0.501300  0.179200  0.214300  1.0
  H  H202  1  0.498700  0.320800  0.714300  1.0
  H  H203  1  0.498700  0.820800  0.785700  1.0
  H  H204  1  0.501300  0.679200  0.285700  1.0
  H  H205  1  0.604700  0.312600  0.237600  1.0
  H  H206  1  0.395300  0.187400  0.737600  1.0
  H  H207  1  0.395300  0.687400  0.762400  1.0
  H  H208  1  0.604700  0.812600  0.262400  1.0
  H  H209  1  0.711600  0.426700  0.213600  1.0
  H  H210  1  0.288400  0.073300  0.713600  1.0
  H  H211  1  0.288400  0.573300  0.786400  1.0
  H  H212  1  0.711600  0.926700  0.286400  1.0
  H  H213  1  0.759500  0.442900  0.133500  1.0
  H  H214  1  0.240500  0.057100  0.633500  1.0
  H  H215  1  0.240500  0.557100  0.866500  1.0
  H  H216  1  0.759500  0.942900  0.366500  1.0
  H  H217  1  0.843600  0.256900  0.968800  1.0
  H  H218  1  0.156400  0.243100  0.468800  1.0
  H  H219  1  0.156400  0.743100  0.031200  1.0
  H  H220  1  0.843600  0.756900  0.531200  1.0
  H  H221  1  0.848900  0.239000  0.015100  1.0
  H  H222  1  0.151100  0.261000  0.515100  1.0
  H  H223  1  0.151100  0.761000  0.984900  1.0
  H  H224  1  0.848900  0.739000  0.484900  1.0
  Os  Os225  1  0.065096  0.464876  0.121817  1.0
  Os  Os226  1  0.934904  0.035124  0.621817  1.0
  Os  Os227  1  0.934904  0.535124  0.878183  1.0
  Os  Os228  1  0.065096  0.964876  0.378183  1.0
  Os  Os229  1  0.570270  0.175308  0.869956  1.0
  Os  Os230  1  0.429730  0.324692  0.369956  1.0
  Os  Os231  1  0.429730  0.824692  0.130044  1.0
  Os  Os232  1  0.570270  0.675308  0.630044  1.0
  C  C233  1  0.266500  0.156300  0.124300  1
  C  C234  1  0.733500  0.343700  0.624300  1
  C  C235  1  0.733500  0.843700  0.875700  1
  C  C236  1  0.266500  0.656300  0.375700  1
  C  C237  1  0.018700  0.899400  0.784200  1
  C  C238  1  0.981300  0.600600  0.284200  1
  C  C239  1  0.981300  0.100600  0.215800  1
  C  C240  1  0.018700  0.399400  0.715800  1
  C  C241  1  0.925300  0.352200  0.189800  1.0
  C  C242  1  0.074700  0.147800  0.689800  1.0
  C  C243  1  0.074700  0.647800  0.810200  1.0
  C  C244  1  0.925300  0.852200  0.310200  1.0
  C  C245  1  0.896900  0.313100  0.233000  1.0
  C  C246  1  0.103100  0.186900  0.733000  1.0
  C  C247  1  0.103100  0.686900  0.767000  1.0
  C  C248  1  0.896900  0.813100  0.267000  1.0
  C  C249  1  0.955400  0.329600  0.272500  1.0
  C  C250  1  0.044600  0.170400  0.772500  1.0
  C  C251  1  0.044600  0.670400  0.727500  1.0
  C  C252  1  0.955400  0.829600  0.227500  1.0
  C  C253  1  0.041300  0.385600  0.269800  1.0
  C  C254  1  0.958700  0.114400  0.769800  1.0
  C  C255  1  0.958700  0.614400  0.730200  1.0
  C  C256  1  0.041300  0.885600  0.230200  1.0
  C  C257  1  0.107200  0.407100  0.308700  1.0
  C  C258  1  0.892800  0.092900  0.808700  1.0
  C  C259  1  0.892800  0.592900  0.691300  1.0
  C  C260  1  0.107200  0.907100  0.191300  1.0
  C  C261  1  0.189500  0.460600  0.303300  1.0
  C  C262  1  0.810500  0.039400  0.803300  1.0
  C  C263  1  0.810500  0.539400  0.696700  1.0
  C  C264  1  0.189500  0.960600  0.196700  1.0
  C  C265  1  0.216800  0.497600  0.257600  1.0
  C  C266  1  0.783200  0.002400  0.757600  1.0
  C  C267  1  0.783200  0.502400  0.742400  1.0
  C  C268  1  0.216800  0.997600  0.242400  1.0
  C  C269  1  0.302000  0.552500  0.248900  1.0
  C  C270  1  0.698000  0.947500  0.748900  1.0
  C  C271  1  0.698000  0.447500  0.751100  1.0
  C  C272  1  0.302000  0.052500  0.251100  1.0
  C  C273  1  0.322800  0.582800  0.204100  1.0
  C  C274  1  0.677200  0.917200  0.704100  1.0
  C  C275  1  0.677200  0.417200  0.795900  1.0
  C  C276  1  0.322800  0.082800  0.295900  1.0
  C  C277  1  0.257900  0.557400  0.166100  1.0
  C  C278  1  0.742100  0.942600  0.666100  1.0
  C  C279  1  0.742100  0.442600  0.833900  1.0
  C  C280  1  0.257900  0.057400  0.333900  1.0
  C  C281  1  0.154800  0.475700  0.218200  1.0
  C  C282  1  0.845200  0.024300  0.718200  1.0
  C  C283  1  0.845200  0.524300  0.781800  1.0
  C  C284  1  0.154800  0.975700  0.281800  1.0
  C  C285  1  0.065900  0.421100  0.224800  1.0
  C  C286  1  0.934100  0.078900  0.724800  1.0
  C  C287  1  0.934100  0.578900  0.775200  1.0
  C  C288  1  0.065900  0.921100  0.275200  1.0
  C  C289  1  0.948400  0.427600  0.083300  1.0
  C  C290  1  0.051600  0.072400  0.583300  1.0
  C  C291  1  0.051600  0.572400  0.916700  1.0
  C  C292  1  0.948400  0.927600  0.416700  1.0
  C  C293  1  0.137100  0.520400  0.066700  1.0
  C  C294  1  0.862900  0.979600  0.566700  1.0
  C  C295  1  0.862900  0.479600  0.933300  1.0
  C  C296  1  0.137100  0.020400  0.433300  1.0
  C  C297  1  0.012600  0.563800  0.136800  1.0
  C  C298  1  0.987400  0.936200  0.636800  1.0
  C  C299  1  0.987400  0.436200  0.863200  1.0
  C  C300  1  0.012600  0.063800  0.363200  1.0
  C  C301  1  0.112300  0.363700  0.106500  1.0
  C  C302  1  0.887700  0.136300  0.606500  1.0
  C  C303  1  0.887700  0.636300  0.893500  1.0
  C  C304  1  0.112300  0.863700  0.393500  1.0
  C  C305  1  0.763400  0.254400  0.820600  1.0
  C  C306  1  0.236600  0.245600  0.320600  1.0
  C  C307  1  0.236600  0.745600  0.179400  1.0
  C  C308  1  0.763400  0.754400  0.679400  1.0
  C  C309  1  0.826500  0.271800  0.782100  1.0
  C  C310  1  0.173500  0.228200  0.282100  1.0
  C  C311  1  0.173500  0.728200  0.217900  1.0
  C  C312  1  0.826500  0.771800  0.717900  1.0
  C  C313  1  0.800200  0.237400  0.737900  1.0
  C  C314  1  0.199800  0.262600  0.237900  1.0
  C  C315  1  0.199800  0.762600  0.262100  1.0
  C  C316  1  0.800200  0.737400  0.762100  1.0
  C  C317  1  0.713800  0.184200  0.733200  1.0
  C  C318  1  0.286200  0.315800  0.233200  1.0
  C  C319  1  0.286200  0.815800  0.266800  1.0
  C  C320  1  0.713800  0.684200  0.766800  1.0
  C  C321  1  0.679800  0.141200  0.688800  1.0
  C  C322  1  0.320200  0.358800  0.188800  1.0
  C  C323  1  0.320200  0.858800  0.311200  1.0
  C  C324  1  0.679800  0.641200  0.811200  1.0
  C  C325  1  0.597800  0.085800  0.688000  1.0
  C  C326  1  0.402200  0.414200  0.188000  1.0
  C  C327  1  0.402200  0.914200  0.312000  1.0
  C  C328  1  0.597800  0.585800  0.812000  1.0
  C  C329  1  0.540400  0.066500  0.729300  1.0
  C  C330  1  0.459600  0.433500  0.229300  1.0
  C  C331  1  0.459600  0.933500  0.270700  1.0
  C  C332  1  0.540400  0.566500  0.770700  1.0
  C  C333  1  0.457300  0.006400  0.731100  1.0
  C  C334  1  0.542700  0.493600  0.231100  1.0
  C  C335  1  0.542700  0.993600  0.268900  1.0
  C  C336  1  0.457300  0.506400  0.768900  1.0
  C  C337  1  0.404600  0.993200  0.772300  1.0
  C  C338  1  0.595400  0.506800  0.272300  1.0
  C  C339  1  0.595400  0.006800  0.227700  1.0
  C  C340  1  0.404600  0.493200  0.727700  1.0
  C  C341  1  0.434200  0.040700  0.812800  1.0
  C  C342  1  0.565800  0.459300  0.312800  1.0
  C  C343  1  0.565800  0.959300  0.187200  1.0
  C  C344  1  0.434200  0.540700  0.687200  1.0
  C  C345  1  0.567100  0.109400  0.772200  1.0
  C  C346  1  0.432900  0.390600  0.272200  1.0
  C  C347  1  0.432900  0.890600  0.227800  1.0
  C  C348  1  0.567100  0.609400  0.727800  1.0
  C  C349  1  0.655700  0.168200  0.773600  1.0
  C  C350  1  0.344300  0.331800  0.273600  1.0
  C  C351  1  0.344300  0.831800  0.226400  1.0
  C  C352  1  0.655700  0.668200  0.726400  1.0
  C  C353  1  0.631300  0.254600  0.917400  1.0
  C  C354  1  0.368700  0.245400  0.417400  1.0
  C  C355  1  0.368700  0.745400  0.082600  1.0
  C  C356  1  0.631300  0.754600  0.582600  1.0
  C  C357  1  0.459000  0.139300  0.914200  1.0
  C  C358  1  0.541000  0.360700  0.414200  1.0
  C  C359  1  0.541000  0.860700  0.085800  1.0
  C  C360  1  0.459000  0.639300  0.585800  1.0
  C  C361  1  0.643300  0.095400  0.897800  1.0
  C  C362  1  0.356700  0.404600  0.397800  1.0
  C  C363  1  0.356700  0.904600  0.102200  1.0
  C  C364  1  0.643300  0.595400  0.602200  1.0
  C  C365  1  0.498600  0.252800  0.838000  1.0
  C  C366  1  0.501400  0.247200  0.338000  1.0
  C  C367  1  0.501400  0.747200  0.162000  1.0
  C  C368  1  0.498600  0.752800  0.662000  1.0
  C  C369  1  0.483900  0.290400  0.013700  1.0
  C  C370  1  0.516100  0.209600  0.513700  1.0
  C  C371  1  0.516100  0.709600  0.986300  1.0
  C  C372  1  0.483900  0.790400  0.486300  1.0
  C  C373  1  0.385600  0.287800  0.020000  1.0
  C  C374  1  0.614400  0.212200  0.520000  1.0
  C  C375  1  0.614400  0.712200  0.980000  1.0
  C  C376  1  0.385600  0.787800  0.480000  1.0
  C  C377  1  0.356400  0.352700  0.038800  1.0
  C  C378  1  0.643600  0.147300  0.538800  1.0
  C  C379  1  0.643600  0.647300  0.961200  1.0
  C  C380  1  0.356400  0.852700  0.461200  1.0
  C  C381  1  0.425500  0.420600  0.051100  1.0
  C  C382  1  0.574500  0.079400  0.551100  1.0
  C  C383  1  0.574500  0.579400  0.948900  1.0
  C  C384  1  0.425500  0.920600  0.448900  1.0
  C  C385  1  0.401000  0.491100  0.069300  1.0
  C  C386  1  0.599000  0.008900  0.569300  1.0
  C  C387  1  0.599000  0.508900  0.930700  1.0
  C  C388  1  0.401000  0.991100  0.430700  1.0
  C  C389  1  0.468900  0.554000  0.081000  1.0
  C  C390  1  0.531100  0.946000  0.581000  1.0
  C  C391  1  0.531100  0.446000  0.919000  1.0
  C  C392  1  0.468900  0.054000  0.419000  1.0
  C  C393  1  0.569700  0.553900  0.075000  1.0
  C  C394  1  0.430300  0.946100  0.575000  1.0
  C  C395  1  0.430300  0.446100  0.925000  1.0
  C  C396  1  0.569700  0.053900  0.425000  1.0
  C  C397  1  0.643200  0.618500  0.086000  1.0
  C  C398  1  0.356800  0.881500  0.586000  1.0
  C  C399  1  0.356800  0.381500  0.914000  1.0
  C  C400  1  0.643200  0.118500  0.414000  1.0
  C  C401  1  0.737000  0.615200  0.076900  1.0
  C  C402  1  0.263000  0.884800  0.576900  1.0
  C  C403  1  0.263000  0.384800  0.923100  1.0
  C  C404  1  0.737000  0.115200  0.423100  1.0
  C  C405  1  0.757700  0.546500  0.056000  1.0
  C  C406  1  0.242300  0.953500  0.556000  1.0
  C  C407  1  0.242300  0.453500  0.944000  1.0
  C  C408  1  0.757700  0.046500  0.444000  1.0
  C  C409  1  0.596900  0.485700  0.055500  1.0
  C  C410  1  0.403100  0.014300  0.555500  1.0
  C  C411  1  0.403100  0.514300  0.944500  1.0
  C  C412  1  0.596900  0.985700  0.444500  1.0
  C  C413  1  0.524500  0.417700  0.044100  1.0
  C  C414  1  0.475500  0.082300  0.544100  1.0
  C  C415  1  0.475500  0.582300  0.955900  1.0
  C  C416  1  0.524500  0.917700  0.455900  1.0
  C  C417  1  0.647000  0.154600  0.017400  1.0
  C  C418  1  0.353000  0.345400  0.517400  1.0
  C  C419  1  0.353000  0.845400  0.982600  1.0
  C  C420  1  0.647000  0.654600  0.482600  1.0
  C  C421  1  0.589800  0.081400  0.028300  1.0
  C  C422  1  0.410200  0.418600  0.528300  1.0
  C  C423  1  0.410200  0.918600  0.971700  1.0
  C  C424  1  0.589800  0.581400  0.471700  1.0
  C  C425  1  0.540700  0.071700  0.070500  1.0
  C  C426  1  0.459300  0.428300  0.570500  1.0
  C  C427  1  0.459300  0.928300  0.929500  1.0
  C  C428  1  0.540700  0.571700  0.429500  1.0
  C  C429  1  0.551600  0.135100  0.103500  1.0
  C  C430  1  0.448400  0.364900  0.603500  1.0
  C  C431  1  0.448400  0.864900  0.896500  1.0
  C  C432  1  0.551600  0.635100  0.396500  1.0
  C  C433  1  0.507900  0.128000  0.150400  1.0
  C  C434  1  0.492100  0.372000  0.650400  1.0
  C  C435  1  0.492100  0.872000  0.849600  1.0
  C  C436  1  0.507900  0.628000  0.349600  1.0
  C  C437  1  0.529700  0.186200  0.183200  1.0
  C  C438  1  0.470300  0.313800  0.683200  1.0
  C  C439  1  0.470300  0.813800  0.816800  1.0
  C  C440  1  0.529700  0.686200  0.316800  1.0
  C  C441  1  0.595700  0.258800  0.171600  1.0
  C  C442  1  0.404300  0.241200  0.671600  1.0
  C  C443  1  0.404300  0.741200  0.828400  1.0
  C  C444  1  0.595700  0.758800  0.328400  1.0
  C  C445  1  0.626600  0.318700  0.205300  1.0
  C  C446  1  0.373400  0.181300  0.705300  1.0
  C  C447  1  0.373400  0.681300  0.794700  1.0
  C  C448  1  0.626600  0.818700  0.294700  1.0
  C  C449  1  0.688500  0.385900  0.191000  1.0
  C  C450  1  0.311500  0.114100  0.691000  1.0
  C  C451  1  0.311500  0.614100  0.809000  1.0
  C  C452  1  0.688500  0.885900  0.309000  1.0
  C  C453  1  0.718000  0.394600  0.142900  1.0
  C  C454  1  0.282000  0.105400  0.642900  1.0
  C  C455  1  0.282000  0.605400  0.857100  1.0
  C  C456  1  0.718000  0.894600  0.357100  1.0
  C  C457  1  0.633000  0.269900  0.124500  1.0
  C  C458  1  0.367000  0.230100  0.624500  1.0
  C  C459  1  0.367000  0.730100  0.875500  1.0
  C  C460  1  0.633000  0.769900  0.375500  1.0
  C  C461  1  0.612600  0.206300  0.090400  1.0
  C  C462  1  0.387400  0.293700  0.590400  1.0
  C  C463  1  0.387400  0.793700  0.909600  1.0
  C  C464  1  0.612600  0.706300  0.409600  1.0
  N  N465  1  0.007000  0.405300  0.185100  1.0
  N  N466  1  0.993000  0.094700  0.685100  1.0
  N  N467  1  0.993000  0.594700  0.814900  1.0
  N  N468  1  0.007000  0.905300  0.314900  1.0
  N  N469  1  0.175800  0.505100  0.172790  1.0
  N  N470  1  0.824200  0.994900  0.672790  1.0
  N  N471  1  0.824200  0.494900  0.827210  1.0
  N  N472  1  0.175800  0.005100  0.327210  1.0
  N  N473  1  0.876100  0.405900  0.063100  1.0
  N  N474  1  0.123900  0.094100  0.563100  1.0
  N  N475  1  0.123900  0.594100  0.936900  1.0
  N  N476  1  0.876100  0.905900  0.436900  1.0
  N  N477  1  0.183700  0.553800  0.035500  1.0
  N  N478  1  0.816300  0.946200  0.535500  1.0
  N  N479  1  0.816300  0.446200  0.964500  1.0
  N  N480  1  0.183700  0.053800  0.464500  1.0
  N  N481  1  0.982000  0.620500  0.143200  1.0
  N  N482  1  0.018000  0.879500  0.643200  1.0
  N  N483  1  0.018000  0.379500  0.856800  1.0
  N  N484  1  0.982000  0.120500  0.356800  1.0
  N  N485  1  0.133300  0.304000  0.097900  1.0
  N  N486  1  0.866700  0.196000  0.597900  1.0
  N  N487  1  0.866700  0.696000  0.902100  1.0
  N  N488  1  0.133300  0.804000  0.402100  1.0
  N  N489  1  0.678600  0.205000  0.817000  1.0
  N  N490  1  0.321400  0.295000  0.317000  1.0
  N  N491  1  0.321400  0.795000  0.183000  1.0
  N  N492  1  0.678600  0.705000  0.683000  1.0
  N  N493  1  0.514800  0.097000  0.813200  1.0
  N  N494  1  0.485200  0.403000  0.313200  1.0
  N  N495  1  0.485200  0.903000  0.186800  1.0
  N  N496  1  0.514800  0.597000  0.686800  1.0
  N  N497  1  0.667400  0.300400  0.946380  1.0
  N  N498  1  0.332600  0.199600  0.446380  1.0
  N  N499  1  0.332600  0.699600  0.053620  1.0
  N  N500  1  0.667400  0.800400  0.553620  1.0
  N  N501  1  0.392100  0.118500  0.938700  1.0
  N  N502  1  0.607900  0.381500  0.438700  1.0
  N  N503  1  0.607900  0.881500  0.061300  1.0
  N  N504  1  0.392100  0.618500  0.561300  1.0
  N  N505  1  0.687100  0.050300  0.912400  1.0
  N  N506  1  0.312900  0.449700  0.412400  1.0
  N  N507  1  0.312900  0.949700  0.087600  1.0
  N  N508  1  0.687100  0.550300  0.587600  1.0
  N  N509  1  0.459700  0.296300  0.817000  1.0
  N  N510  1  0.540300  0.203700  0.317000  1.0
  N  N511  1  0.540300  0.703700  0.183000  1.0
  N  N512  1  0.459700  0.796300  0.683000  1.0
  N  N513  1  0.553100  0.353200  0.026070  1.0
  N  N514  1  0.446900  0.146800  0.526070  1.0
  N  N515  1  0.446900  0.646800  0.973930  1.0
  N  N516  1  0.553100  0.853200  0.473930  1.0
  N  N517  1  0.690600  0.482600  0.046280  1.0
  N  N518  1  0.309400  0.017400  0.546280  1.0
  N  N519  1  0.309400  0.517400  0.953720  1.0
  N  N520  1  0.690600  0.982600  0.453720  1.0
  N  N521  1  0.658700  0.216800  0.046810  1.0
  N  N522  1  0.341300  0.283200  0.546810  1.0
  N  N523  1  0.341300  0.783200  0.953190  1.0
  N  N524  1  0.658700  0.716800  0.453190  1.0
  N  N525  1  0.691200  0.339100  0.109750  1.0
  N  N526  1  0.308800  0.160900  0.609750  1.0
  N  N527  1  0.308800  0.660900  0.890250  1.0
  N  N528  1  0.691200  0.839100  0.390250  1.0
  O  O529  1  0.265500  0.058400  0.015600  1
  O  O530  1  0.734500  0.441600  0.515600  1
  O  O531  1  0.734500  0.941600  0.984400  1
  O  O532  1  0.265500  0.558400  0.484400  1
  O  O533  1  0.160000  0.150600  0.118100  1
  O  O534  1  0.840000  0.349400  0.618100  1
  O  O535  1  0.840000  0.849400  0.881900  1
  O  O536  1  0.160000  0.650600  0.381900  1
  O  O537  1  0.113400  0.945300  0.784500  1
  O  O538  1  0.886600  0.554700  0.284500  1
  O  O539  1  0.886600  0.054700  0.215500  1
  O  O540  1  0.113400  0.445300  0.715500  1
  O  O541  1  0.110400  0.235400  0.999200  1
  O  O542  1  0.889600  0.264600  0.499200  1
  O  O543  1  0.889600  0.764600  0.000800  1
  O  O544  1  0.110400  0.735400  0.500800  1
  O  O545  1  0.191200  0.421500  0.798700  1
  O  O546  1  0.808800  0.078500  0.298700  1
  O  O547  1  0.808800  0.578500  0.201300  1
  O  O548  1  0.191200  0.921500  0.701300  1
  O  O549  1  0.141500  0.843300  0.060000  1
  O  O550  1  0.858500  0.656700  0.560000  1
  O  O551  1  0.858500  0.156700  0.940000  1
  O  O552  1  0.141500  0.343300  0.440000  1
  O  O553  1  0.266600  0.287000  0.802200  1
  O  O554  1  0.733400  0.213000  0.302200  1
  O  O555  1  0.733400  0.713000  0.197800  1
  O  O556  1  0.266600  0.787000  0.697800  1
  O  O557  1  0.024100  0.229400  0.896500  1
  O  O558  1  0.975900  0.270600  0.396500  1
  O  O559  1  0.975900  0.770600  0.103500  1
  O  O560  1  0.024100  0.729400  0.603500  1
  O  O561  1  0.022800  0.376100  0.978400  1
  O  O562  1  0.977200  0.123900  0.478400  1
  O  O563  1  0.977200  0.623900  0.021600  1
  O  O564  1  0.022800  0.876100  0.521600  1
  O  O565  1  0.224700  0.182100  0.878200  1
  O  O566  1  0.775300  0.317900  0.378200  1
  O  O567  1  0.775300  0.817900  0.121800  1
  O  O568  1  0.224700  0.682100  0.621800  1
  O  O569  1  0.089600  0.784900  0.914000  1
  O  O570  1  0.910400  0.715100  0.414000  1
  O  O571  1  0.910400  0.215100  0.086000  1
  O  O572  1  0.089600  0.284900  0.586000  1
  O  O573  1  0.112000  0.038000  0.862400  1
  O  O574  1  0.888000  0.462000  0.362400  1
  O  O575  1  0.888000  0.962000  0.137600  1
  O  O576  1  0.112000  0.538000  0.637600  1
  O  O577  1  0.206000  0.868000  0.862800  1
  O  O578  1  0.794000  0.632000  0.362800  1
  O  O579  1  0.794000  0.132000  0.137200  1
  O  O580  1  0.206000  0.368000  0.637200  1
  O  O581  1  0.118600  0.086400  0.009300  1
  O  O582  1  0.881400  0.413600  0.509300  1
  O  O583  1  0.881400  0.913600  0.990700  1
  O  O584  1  0.118600  0.586400  0.490700  1
  O  O585  1  0.845400  0.279200  0.998930  1.0
  O  O586  1  0.154600  0.220800  0.498930  1.0
  O  O587  1  0.154600  0.720800  0.001070  1.0
  O  O588  1  0.845400  0.779200  0.501070  1.0
