# generated using pymatgen
data_NaPrH51Os2C58(N8O7)2
_symmetry_space_group_name_H-M   'P 1'
_cell_length_a   14.38070000
_cell_length_b   17.36820000
_cell_length_c   27.93900000
_cell_angle_alpha   90.00000000
_cell_angle_beta   90.00000000
_cell_angle_gamma   100.37500000
_symmetry_Int_Tables_number   1
_chemical_formula_structural   NaPrH51Os2C58(N8O7)2
_chemical_formula_sum   'Na4 Pr4 H204 Os8 C232 N64 O56'
_cell_volume   6864.14351712
_cell_formula_units_Z   4
loop_
 _symmetry_equiv_pos_site_id
 _symmetry_equiv_pos_as_xyz
  1  'x, y, z'
loop_
 _atom_site_type_symbol
 _atom_site_label
 _atom_site_symmetry_multiplicity
 _atom_site_fract_x
 _atom_site_fract_y
 _atom_site_fract_z
 _atom_site_occupancy
  Pr  Pr1  1  0.264170  0.147400  0.979461  1.0
  Pr  Pr2  1  0.735830  0.352600  0.479461  1.0
  Pr  Pr3  1  0.735830  0.852600  0.020539  1.0
  Pr  Pr4  1  0.264170  0.647400  0.520539  1.0
  Na  Na5  1  0.911000  0.506800  0.008220  0.5
  O  O6  1  0.911000  0.506800  0.008220  0.5
  Na  Na7  1  0.089000  0.993200  0.508220  0.5
  O  O8  1  0.089000  0.993200  0.508220  0.5
  Na  Na9  1  0.089000  0.493200  0.991780  0.5
  O  O10  1  0.089000  0.493200  0.991780  0.5
  Na  Na11  1  0.911000  0.006800  0.491780  0.5
  O  O12  1  0.911000  0.006800  0.491780  0.5
  Na  Na13  1  0.865100  0.412700  0.992460  0.5
  O  O14  1  0.865100  0.412700  0.992460  0.5
  Na  Na15  1  0.134900  0.087300  0.492460  0.5
  O  O16  1  0.134900  0.087300  0.492460  0.5
  Na  Na17  1  0.134900  0.587300  0.007540  0.5
  O  O18  1  0.134900  0.587300  0.007540  0.5
  Na  Na19  1  0.865100  0.912700  0.507540  0.5
  O  O20  1  0.865100  0.912700  0.507540  0.5
  H  H21  1  0.025000  0.079700  0.256300  1
  H  H22  1  0.975000  0.420300  0.756300  1
  H  H23  1  0.975000  0.920300  0.743700  1
  H  H24  1  0.025000  0.579700  0.243700  1
  H  H25  1  0.016300  0.095300  0.312500  1
  H  H26  1  0.983700  0.404700  0.812500  1
  H  H27  1  0.983700  0.904700  0.687500  1
  H  H28  1  0.016300  0.595300  0.187500  1
  H  H29  1  0.984200  0.154400  0.274500  1
  H  H30  1  0.015800  0.345600  0.774500  1
  H  H31  1  0.015800  0.845600  0.725500  1
  H  H32  1  0.984200  0.654400  0.225500  1
  H  H33  1  0.884400  0.022800  0.304500  1
  H  H34  1  0.115600  0.477200  0.804500  1
  H  H35  1  0.115600  0.977200  0.695500  1
  H  H36  1  0.884400  0.522800  0.195500  1
  H  H37  1  0.695200  0.293600  0.890900  1
  H  H38  1  0.304800  0.206400  0.390900  1
  H  H39  1  0.304800  0.706400  0.109100  1
  H  H40  1  0.695200  0.793600  0.609100  1
  H  H41  1  0.718400  0.342900  0.842600  1
  H  H42  1  0.281600  0.157100  0.342600  1
  H  H43  1  0.281600  0.657100  0.157400  1
  H  H44  1  0.718400  0.842900  0.657400  1
  H  H45  1  0.712400  0.387200  0.892400  1
  H  H46  1  0.287600  0.112800  0.392400  1
  H  H47  1  0.287600  0.612800  0.107600  1
  H  H48  1  0.712400  0.887200  0.607600  1
  H  H49  1  0.908600  0.673100  0.929400  1
  H  H50  1  0.091400  0.826900  0.429400  1
  H  H51  1  0.091400  0.326900  0.070600  1
  H  H52  1  0.908600  0.173100  0.570600  1
  H  H53  1  0.808700  0.620100  0.934900  1
  H  H54  1  0.191300  0.879900  0.434900  1
  H  H55  1  0.191300  0.379900  0.065100  1
  H  H56  1  0.808700  0.120100  0.565100  1
  H  H57  1  0.941500  0.151700  0.007800  1
  H  H58  1  0.058500  0.348300  0.507800  1
  H  H59  1  0.058500  0.848300  0.992200  1
  H  H60  1  0.941500  0.651700  0.492200  1
  H  H61  1  0.010200  0.116400  0.000200  1
  H  H62  1  0.989800  0.383600  0.500200  1
  H  H63  1  0.989800  0.883600  0.999800  1
  H  H64  1  0.010200  0.616400  0.499800  1
  H  H65  1  0.740000  0.235500  0.184900  1
  H  H66  1  0.260000  0.264500  0.684900  1
  H  H67  1  0.260000  0.764500  0.815100  1
  H  H68  1  0.740000  0.735500  0.315100  1
  H  H69  1  0.672500  0.200700  0.199300  1
  H  H70  1  0.327500  0.299300  0.699300  1
  H  H71  1  0.327500  0.799300  0.800700  1
  H  H72  1  0.672500  0.700700  0.300700  1
  H  H73  1  0.820600  0.116100  0.203800  1
  H  H74  1  0.179400  0.383900  0.703800  1
  H  H75  1  0.179400  0.883900  0.796200  1
  H  H76  1  0.820600  0.616100  0.296200  1
  H  H77  1  0.841000  0.044700  0.215500  1
  H  H78  1  0.159000  0.455300  0.715500  1
  H  H79  1  0.159000  0.955300  0.784500  1
  H  H80  1  0.841000  0.544700  0.284500  1
  H  H81  1  0.924200  0.283000  0.109800  1
  H  H82  1  0.075800  0.217000  0.609800  1
  H  H83  1  0.075800  0.717000  0.890200  1
  H  H84  1  0.924200  0.783000  0.390200  1
  H  H85  1  0.979700  0.226500  0.115500  1
  H  H86  1  0.020300  0.273500  0.615500  1
  H  H87  1  0.020300  0.773500  0.884500  1
  H  H88  1  0.979700  0.726500  0.384500  1
  H  H89  1  0.224400  0.224700  0.151800  1.0
  H  H90  1  0.775600  0.275300  0.651800  1.0
  H  H91  1  0.775600  0.775300  0.848200  1.0
  H  H92  1  0.224400  0.724700  0.348200  1.0
  H  H93  1  0.122100  0.198800  0.216800  1.0
  H  H94  1  0.877900  0.301200  0.716800  1.0
  H  H95  1  0.877900  0.801200  0.783200  1.0
  H  H96  1  0.122100  0.698800  0.283200  1.0
  H  H97  1  0.165800  0.256400  0.290400  1.0
  H  H98  1  0.834200  0.243600  0.790400  1.0
  H  H99  1  0.834200  0.743600  0.709600  1.0
  H  H100  1  0.165800  0.756400  0.209600  1.0
  H  H101  1  0.290500  0.353300  0.340600  1.0
  H  H102  1  0.709500  0.146700  0.840600  1.0
  H  H103  1  0.709500  0.646700  0.659400  1.0
  H  H104  1  0.290500  0.853300  0.159400  1.0
  H  H105  1  0.427800  0.441000  0.341800  1.0
  H  H106  1  0.572200  0.059000  0.841800  1.0
  H  H107  1  0.572200  0.559000  0.658200  1.0
  H  H108  1  0.427800  0.941000  0.158200  1.0
  H  H109  1  0.565100  0.522400  0.296400  1.0
  H  H110  1  0.434900  0.977600  0.796400  1.0
  H  H111  1  0.434900  0.477600  0.703600  1.0
  H  H112  1  0.565100  0.022400  0.203600  1.0
  H  H113  1  0.649900  0.543600  0.225800  1.0
  H  H114  1  0.350100  0.956400  0.725800  1.0
  H  H115  1  0.350100  0.456400  0.774200  1.0
  H  H116  1  0.649900  0.043600  0.274200  1.0
  H  H117  1  0.601100  0.464400  0.159000  1.0
  H  H118  1  0.398900  0.035600  0.659000  1.0
  H  H119  1  0.398900  0.535600  0.841000  1.0
  H  H120  1  0.601100  0.964400  0.341000  1.0
  H  H121  1  0.106800  0.151900  0.831100  1.0
  H  H122  1  0.893200  0.348100  0.331100  1.0
  H  H123  1  0.893200  0.848100  0.168900  1.0
  H  H124  1  0.106800  0.651900  0.668900  1.0
  H  H125  1  0.146500  0.211900  0.757800  1.0
  H  H126  1  0.853500  0.288100  0.257800  1.0
  H  H127  1  0.853500  0.788100  0.242200  1.0
  H  H128  1  0.146500  0.711900  0.742200  1.0
  H  H129  1  0.045800  0.185100  0.692400  1.0
  H  H130  1  0.954200  0.314900  0.192400  1.0
  H  H131  1  0.954200  0.814900  0.307600  1.0
  H  H132  1  0.045800  0.685100  0.807600  1.0
  H  H133  1  0.887000  0.107100  0.659400  1.0
  H  H134  1  0.113000  0.392900  0.159400  1.0
  H  H135  1  0.113000  0.892900  0.340600  1.0
  H  H136  1  0.887000  0.607100  0.840600  1.0
  H  H137  1  0.756200  0.017200  0.670800  1.0
  H  H138  1  0.243800  0.482800  0.170800  1.0
  H  H139  1  0.243800  0.982800  0.329200  1.0
  H  H140  1  0.756200  0.517200  0.829200  1.0
  H  H141  1  0.647200  0.926100  0.729200  1.0
  H  H142  1  0.352800  0.573900  0.229200  1.0
  H  H143  1  0.352800  0.073900  0.270800  1.0
  H  H144  1  0.647200  0.426100  0.770800  1.0
  H  H145  1  0.619900  0.877800  0.806500  1.0
  H  H146  1  0.380100  0.622200  0.306500  1.0
  H  H147  1  0.380100  0.122200  0.193500  1.0
  H  H148  1  0.619900  0.377800  0.693500  1.0
  H  H149  1  0.729500  0.920300  0.866600  1.0
  H  H150  1  0.270500  0.579700  0.366600  1.0
  H  H151  1  0.270500  0.079700  0.133400  1.0
  H  H152  1  0.729500  0.420300  0.633400  1.0
  H  H153  1  0.328300  0.342300  0.011400  1.0
  H  H154  1  0.671700  0.157700  0.511400  1.0
  H  H155  1  0.671700  0.657700  0.988600  1.0
  H  H156  1  0.328300  0.842300  0.488600  1.0
  H  H157  1  0.423900  0.461700  0.992800  1.0
  H  H158  1  0.576100  0.038300  0.492800  1.0
  H  H159  1  0.576100  0.538300  0.007200  1.0
  H  H160  1  0.423900  0.961700  0.507200  1.0
  H  H161  1  0.509000  0.476000  0.921700  1.0
  H  H162  1  0.491000  0.024000  0.421700  1.0
  H  H163  1  0.491000  0.524000  0.078300  1.0
  H  H164  1  0.509000  0.976000  0.578300  1.0
  H  H165  1  0.539900  0.418300  0.841200  1.0
  H  H166  1  0.460100  0.081700  0.341200  1.0
  H  H167  1  0.460100  0.581700  0.158800  1.0
  H  H168  1  0.539900  0.918300  0.658800  1.0
  H  H169  1  0.499500  0.322900  0.784800  1.0
  H  H170  1  0.500500  0.177100  0.284800  1.0
  H  H171  1  0.500500  0.677100  0.215200  1.0
  H  H172  1  0.499500  0.822900  0.715200  1.0
  H  H173  1  0.398100  0.193900  0.760700  1.0
  H  H174  1  0.601900  0.306100  0.260700  1.0
  H  H175  1  0.601900  0.806100  0.239300  1.0
  H  H176  1  0.398100  0.693900  0.739300  1.0
  H  H177  1  0.288100  0.083000  0.783100  1.0
  H  H178  1  0.711900  0.417000  0.283100  1.0
  H  H179  1  0.711900  0.917000  0.216900  1.0
  H  H180  1  0.288100  0.583000  0.716900  1.0
  H  H181  1  0.240600  0.067500  0.863200  1.0
  H  H182  1  0.759400  0.432500  0.363200  1.0
  H  H183  1  0.759400  0.932500  0.136800  1.0
  H  H184  1  0.240600  0.567500  0.636800  1.0
  H  H185  1  0.496200  0.248100  0.999300  1.0
  H  H186  1  0.503800  0.251900  0.499300  1.0
  H  H187  1  0.503800  0.751900  0.000700  1.0
  H  H188  1  0.496200  0.748100  0.500700  1.0
  H  H189  1  0.657700  0.249800  0.989300  1.0
  H  H190  1  0.342300  0.250200  0.489300  1.0
  H  H191  1  0.342300  0.750200  0.010700  1.0
  H  H192  1  0.657700  0.749800  0.510700  1.0
  H  H193  1  0.706200  0.138300  0.957800  1.0
  H  H194  1  0.293800  0.361700  0.457800  1.0
  H  H195  1  0.293800  0.861700  0.042200  1.0
  H  H196  1  0.706200  0.638300  0.542200  1.0
  H  H197  1  0.661600  0.998700  0.926800  1.0
  H  H198  1  0.338400  0.501300  0.426800  1.0
  H  H199  1  0.338400  0.001300  0.073200  1.0
  H  H200  1  0.661600  0.498700  0.573200  1.0
  H  H201  1  0.549400  0.896200  0.906300  1.0
  H  H202  1  0.450600  0.603800  0.406300  1.0
  H  H203  1  0.450600  0.103800  0.093700  1.0
  H  H204  1  0.549400  0.396200  0.593700  1.0
  H  H205  1  0.374500  0.835400  0.897900  1.0
  H  H206  1  0.625500  0.664600  0.397900  1.0
  H  H207  1  0.625500  0.164600  0.102100  1.0
  H  H208  1  0.374500  0.335400  0.602100  1.0
  H  H209  1  0.217700  0.845000  0.911400  1.0
  H  H210  1  0.782300  0.655000  0.411400  1.0
  H  H211  1  0.782300  0.155000  0.088600  1.0
  H  H212  1  0.217700  0.345000  0.588600  1.0
  H  H213  1  0.182200  0.957400  0.945800  1.0
  H  H214  1  0.817800  0.542600  0.445800  1.0
  H  H215  1  0.817800  0.042600  0.054200  1.0
  H  H216  1  0.182200  0.457400  0.554200  1.0
  H  H217  1  0.103100  0.253500  0.997100  1.0
  H  H218  1  0.896900  0.246500  0.497100  1.0
  H  H219  1  0.896900  0.746500  0.002900  1.0
  H  H220  1  0.103100  0.753500  0.502900  1.0
  H  H221  1  0.109900  0.216700  0.023800  1.0
  H  H222  1  0.890100  0.283300  0.523800  1.0
  H  H223  1  0.890100  0.783300  0.976200  1.0
  H  H224  1  0.109900  0.716700  0.476200  1.0
  Os  Os225  1  0.430760  0.325257  0.131358  1.0
  Os  Os226  1  0.569240  0.174743  0.631358  1.0
  Os  Os227  1  0.569240  0.674743  0.868642  1.0
  Os  Os228  1  0.430760  0.825257  0.368642  1.0
  Os  Os229  1  0.931994  0.033138  0.875780  1.0
  Os  Os230  1  0.068006  0.466862  0.375780  1.0
  Os  Os231  1  0.068006  0.966862  0.124220  1.0
  Os  Os232  1  0.931994  0.533138  0.624220  1.0
  C  C233  1  0.987100  0.099500  0.281100  1
  C  C234  1  0.012900  0.400500  0.781100  1
  C  C235  1  0.012900  0.900500  0.718900  1
  C  C236  1  0.987100  0.599500  0.218900  1
  C  C237  1  0.731300  0.341700  0.877000  1
  C  C238  1  0.268700  0.158300  0.377000  1
  C  C239  1  0.268700  0.658300  0.123000  1
  C  C240  1  0.731300  0.841700  0.623000  1
  C  C241  1  0.242200  0.249300  0.181600  1.0
  C  C242  1  0.757800  0.250700  0.681600  1.0
  C  C243  1  0.757800  0.750700  0.818400  1.0
  C  C244  1  0.242200  0.749300  0.318400  1.0
  C  C245  1  0.180900  0.233300  0.220300  1.0
  C  C246  1  0.819100  0.266700  0.720300  1.0
  C  C247  1  0.819100  0.766700  0.779700  1.0
  C  C248  1  0.180900  0.733300  0.279700  1.0
  C  C249  1  0.206300  0.268000  0.263500  1.0
  C  C250  1  0.793700  0.232000  0.763500  1.0
  C  C251  1  0.793700  0.732000  0.736500  1.0
  C  C252  1  0.206300  0.768000  0.236500  1.0
  C  C253  1  0.291800  0.320400  0.268000  1.0
  C  C254  1  0.708200  0.179600  0.768000  1.0
  C  C255  1  0.708200  0.679600  0.732000  1.0
  C  C256  1  0.291800  0.820400  0.232000  1.0
  C  C257  1  0.326300  0.363100  0.312000  1.0
  C  C258  1  0.673700  0.136900  0.812000  1.0
  C  C259  1  0.673700  0.636900  0.688000  1.0
  C  C260  1  0.326300  0.863100  0.188000  1.0
  C  C261  1  0.407200  0.415600  0.312500  1.0
  C  C262  1  0.592800  0.084400  0.812500  1.0
  C  C263  1  0.592800  0.584400  0.687500  1.0
  C  C264  1  0.407200  0.915600  0.187500  1.0
  C  C265  1  0.462800  0.434400  0.270900  1.0
  C  C266  1  0.537200  0.065600  0.770900  1.0
  C  C267  1  0.537200  0.565600  0.729100  1.0
  C  C268  1  0.462800  0.934400  0.229100  1.0
  C  C269  1  0.544700  0.491900  0.268800  1.0
  C  C270  1  0.455300  0.008100  0.768800  1.0
  C  C271  1  0.455300  0.508100  0.731200  1.0
  C  C272  1  0.544700  0.991900  0.231200  1.0
  C  C273  1  0.594900  0.504100  0.227600  1.0
  C  C274  1  0.405100  0.995900  0.727600  1.0
  C  C275  1  0.405100  0.495900  0.772400  1.0
  C  C276  1  0.594900  0.004100  0.272400  1.0
  C  C277  1  0.564100  0.457000  0.187400  1.0
  C  C278  1  0.435900  0.043000  0.687400  1.0
  C  C279  1  0.435900  0.543000  0.812600  1.0
  C  C280  1  0.564100  0.957000  0.312600  1.0
  C  C281  1  0.435300  0.391200  0.228600  1.0
  C  C282  1  0.564700  0.108800  0.728600  1.0
  C  C283  1  0.564700  0.608800  0.771400  1.0
  C  C284  1  0.435300  0.891200  0.271400  1.0
  C  C285  1  0.349500  0.334600  0.227600  1.0
  C  C286  1  0.650500  0.165400  0.727600  1.0
  C  C287  1  0.650500  0.665400  0.772400  1.0
  C  C288  1  0.349500  0.834600  0.272400  1.0
  C  C289  1  0.369600  0.247400  0.085000  1.0
  C  C290  1  0.630400  0.252600  0.585000  1.0
  C  C291  1  0.630400  0.752600  0.915000  1.0
  C  C292  1  0.369600  0.747400  0.415000  1.0
  C  C293  1  0.536900  0.359600  0.086100  1.0
  C  C294  1  0.463100  0.140400  0.586100  1.0
  C  C295  1  0.463100  0.640400  0.913900  1.0
  C  C296  1  0.536900  0.859600  0.413900  1.0
  C  C297  1  0.503000  0.247400  0.163100  1.0
  C  C298  1  0.497000  0.252600  0.663100  1.0
  C  C299  1  0.497000  0.752600  0.836900  1.0
  C  C300  1  0.503000  0.747400  0.336900  1.0
  C  C301  1  0.357700  0.404300  0.102900  1.0
  C  C302  1  0.642300  0.095700  0.602900  1.0
  C  C303  1  0.642300  0.595700  0.897100  1.0
  C  C304  1  0.357700  0.904300  0.397100  1.0
  C  C305  1  0.064900  0.139700  0.804800  1.0
  C  C306  1  0.935100  0.360300  0.304800  1.0
  C  C307  1  0.935100  0.860300  0.195200  1.0
  C  C308  1  0.064900  0.639700  0.695200  1.0
  C  C309  1  0.088800  0.175800  0.760900  1.0
  C  C310  1  0.911200  0.324200  0.260900  1.0
  C  C311  1  0.911200  0.824200  0.239100  1.0
  C  C312  1  0.088800  0.675800  0.739100  1.0
  C  C313  1  0.029800  0.159800  0.722200  1.0
  C  C314  1  0.970200  0.340200  0.222200  1.0
  C  C315  1  0.970200  0.840200  0.277800  1.0
  C  C316  1  0.029800  0.659800  0.777800  1.0
  C  C317  1  0.945500  0.105500  0.727400  1.0
  C  C318  1  0.054500  0.394500  0.227400  1.0
  C  C319  1  0.054500  0.894500  0.272600  1.0
  C  C320  1  0.945500  0.605500  0.772600  1.0
  C  C321  1  0.876000  0.083500  0.690000  1.0
  C  C322  1  0.124000  0.416500  0.190000  1.0
  C  C323  1  0.124000  0.916500  0.310000  1.0
  C  C324  1  0.876000  0.583500  0.810000  1.0
  C  C325  1  0.797900  0.032000  0.696900  1.0
  C  C326  1  0.202100  0.468000  0.196900  1.0
  C  C327  1  0.202100  0.968000  0.303100  1.0
  C  C328  1  0.797900  0.532000  0.803100  1.0
  C  C329  1  0.774600  0.997400  0.743500  1.0
  C  C330  1  0.225400  0.502600  0.243500  1.0
  C  C331  1  0.225400  0.002600  0.256500  1.0
  C  C332  1  0.774600  0.497400  0.756500  1.0
  C  C333  1  0.691700  0.943000  0.753800  1.0
  C  C334  1  0.308300  0.557000  0.253800  1.0
  C  C335  1  0.308300  0.057000  0.246200  1.0
  C  C336  1  0.691700  0.443000  0.746200  1.0
  C  C337  1  0.675500  0.914500  0.799300  1.0
  C  C338  1  0.324500  0.585500  0.299300  1.0
  C  C339  1  0.324500  0.085500  0.200700  1.0
  C  C340  1  0.675500  0.414500  0.700700  1.0
  C  C341  1  0.741700  0.940300  0.835100  1.0
  C  C342  1  0.258300  0.559700  0.335100  1.0
  C  C343  1  0.258300  0.059700  0.164900  1.0
  C  C344  1  0.741700  0.440300  0.664900  1.0
  C  C345  1  0.837500  0.019000  0.781400  1.0
  C  C346  1  0.162500  0.481000  0.281400  1.0
  C  C347  1  0.162500  0.981000  0.218600  1.0
  C  C348  1  0.837500  0.519000  0.718600  1.0
  C  C349  1  0.924000  0.071800  0.772900  1.0
  C  C350  1  0.076000  0.428200  0.272900  1.0
  C  C351  1  0.076000  0.928200  0.227100  1.0
  C  C352  1  0.924000  0.571800  0.727100  1.0
  C  C353  1  0.046500  0.073000  0.913200  1.0
  C  C354  1  0.953500  0.427000  0.413200  1.0
  C  C355  1  0.953500  0.927000  0.086800  1.0
  C  C356  1  0.046500  0.573000  0.586800  1.0
  C  C357  1  0.865100  0.981800  0.932200  1.0
  C  C358  1  0.134900  0.518200  0.432200  1.0
  C  C359  1  0.134900  0.018200  0.067800  1.0
  C  C360  1  0.865100  0.481800  0.567800  1.0
  C  C361  1  0.882000  0.132900  0.889900  1.0
  C  C362  1  0.118000  0.367100  0.389900  1.0
  C  C363  1  0.118000  0.867100  0.110100  1.0
  C  C364  1  0.882000  0.632900  0.610100  1.0
  C  C365  1  0.985200  0.934600  0.862500  1.0
  C  C366  1  0.014800  0.565400  0.362500  1.0
  C  C367  1  0.014800  0.065400  0.137500  1.0
  C  C368  1  0.985200  0.434600  0.637500  1.0
  C  C369  1  0.359400  0.348000  0.981200  1.0
  C  C370  1  0.640600  0.152000  0.481200  1.0
  C  C371  1  0.640600  0.652000  0.018800  1.0
  C  C372  1  0.359400  0.848000  0.518800  1.0
  C  C373  1  0.418000  0.419700  0.970700  1.0
  C  C374  1  0.582000  0.080300  0.470700  1.0
  C  C375  1  0.582000  0.580300  0.029300  1.0
  C  C376  1  0.418000  0.919700  0.529300  1.0
  C  C377  1  0.466300  0.428800  0.928500  1.0
  C  C378  1  0.533700  0.071200  0.428500  1.0
  C  C379  1  0.533700  0.571200  0.071500  1.0
  C  C380  1  0.466300  0.928800  0.571500  1.0
  C  C381  1  0.451700  0.366500  0.895000  1.0
  C  C382  1  0.548300  0.133500  0.395000  1.0
  C  C383  1  0.548300  0.633500  0.105000  1.0
  C  C384  1  0.451700  0.866500  0.605000  1.0
  C  C385  1  0.494500  0.373100  0.848800  1.0
  C  C386  1  0.505500  0.126900  0.348800  1.0
  C  C387  1  0.505500  0.626900  0.151200  1.0
  C  C388  1  0.494500  0.873100  0.651200  1.0
  C  C389  1  0.471700  0.316400  0.815700  1.0
  C  C390  1  0.528300  0.183600  0.315700  1.0
  C  C391  1  0.528300  0.683600  0.184300  1.0
  C  C392  1  0.471700  0.816400  0.684300  1.0
  C  C393  1  0.405300  0.245700  0.826800  1.0
  C  C394  1  0.594700  0.254300  0.326800  1.0
  C  C395  1  0.594700  0.754300  0.173200  1.0
  C  C396  1  0.405300  0.745700  0.673200  1.0
  C  C397  1  0.375200  0.188000  0.792600  1.0
  C  C398  1  0.624800  0.312000  0.292600  1.0
  C  C399  1  0.624800  0.812000  0.207400  1.0
  C  C400  1  0.375200  0.688000  0.707400  1.0
  C  C401  1  0.311500  0.122200  0.806000  1.0
  C  C402  1  0.688500  0.377800  0.306000  1.0
  C  C403  1  0.688500  0.877800  0.194000  1.0
  C  C404  1  0.311500  0.622200  0.694000  1.0
  C  C405  1  0.282000  0.114200  0.854000  1.0
  C  C406  1  0.718000  0.385800  0.354000  1.0
  C  C407  1  0.718000  0.885800  0.146000  1.0
  C  C408  1  0.282000  0.614200  0.646000  1.0
  C  C409  1  0.368300  0.235200  0.873500  1.0
  C  C410  1  0.631700  0.264800  0.373500  1.0
  C  C411  1  0.631700  0.764800  0.126500  1.0
  C  C412  1  0.368300  0.735200  0.626500  1.0
  C  C413  1  0.390400  0.298400  0.907900  1.0
  C  C414  1  0.609600  0.201600  0.407900  1.0
  C  C415  1  0.609600  0.701600  0.092100  1.0
  C  C416  1  0.390400  0.798400  0.592100  1.0
  C  C417  1  0.515500  0.203500  0.985700  1.0
  C  C418  1  0.484500  0.296500  0.485700  1.0
  C  C419  1  0.484500  0.796500  0.014300  1.0
  C  C420  1  0.515500  0.703500  0.514300  1.0
  C  C421  1  0.612700  0.205100  0.980400  1.0
  C  C422  1  0.387300  0.294900  0.480400  1.0
  C  C423  1  0.387300  0.794900  0.019600  1.0
  C  C424  1  0.612700  0.705100  0.519600  1.0
  C  C425  1  0.640900  0.139400  0.961900  1.0
  C  C426  1  0.359100  0.360600  0.461900  1.0
  C  C427  1  0.359100  0.860600  0.038100  1.0
  C  C428  1  0.640900  0.639400  0.538100  1.0
  C  C429  1  0.573500  0.074600  0.949000  1.0
  C  C430  1  0.426500  0.425400  0.449000  1.0
  C  C431  1  0.426500  0.925400  0.051000  1.0
  C  C432  1  0.573500  0.574600  0.551000  1.0
  C  C433  1  0.597000  0.002700  0.930400  1.0
  C  C434  1  0.403000  0.497300  0.430400  1.0
  C  C435  1  0.403000  0.997300  0.069600  1.0
  C  C436  1  0.597000  0.502700  0.569600  1.0
  C  C437  1  0.530800  0.942200  0.918400  1.0
  C  C438  1  0.469200  0.557800  0.418400  1.0
  C  C439  1  0.469200  0.057800  0.081600  1.0
  C  C440  1  0.530800  0.442200  0.581600  1.0
  C  C441  1  0.432600  0.944400  0.923100  1.0
  C  C442  1  0.567400  0.555600  0.423100  1.0
  C  C443  1  0.567400  0.055600  0.076900  1.0
  C  C444  1  0.432600  0.444400  0.576900  1.0
  C  C445  1  0.359500  0.881800  0.911400  1.0
  C  C446  1  0.640500  0.618200  0.411400  1.0
  C  C447  1  0.640500  0.118200  0.088600  1.0
  C  C448  1  0.359500  0.381800  0.588600  1.0
  C  C449  1  0.267000  0.887200  0.919400  1.0
  C  C450  1  0.733000  0.612800  0.419400  1.0
  C  C451  1  0.733000  0.112800  0.080600  1.0
  C  C452  1  0.267000  0.387200  0.580600  1.0
  C  C453  1  0.246400  0.954900  0.939300  1.0
  C  C454  1  0.753600  0.545100  0.439300  1.0
  C  C455  1  0.753600  0.045100  0.060700  1.0
  C  C456  1  0.246400  0.454900  0.560700  1.0
  C  C457  1  0.405300  0.013200  0.942400  1.0
  C  C458  1  0.594700  0.486800  0.442400  1.0
  C  C459  1  0.594700  0.986800  0.057600  1.0
  C  C460  1  0.405300  0.513200  0.557600  1.0
  C  C461  1  0.476900  0.079200  0.954800  1.0
  C  C462  1  0.523100  0.420800  0.454800  1.0
  C  C463  1  0.523100  0.920800  0.045200  1.0
  C  C464  1  0.476900  0.579200  0.545200  1.0
  N  N465  1  0.325200  0.297700  0.184900  1.0
  N  N466  1  0.674800  0.202300  0.684900  1.0
  N  N467  1  0.674800  0.702300  0.815100  1.0
  N  N468  1  0.325200  0.797700  0.315100  1.0
  N  N469  1  0.485800  0.402900  0.187300  1.0
  N  N470  1  0.514200  0.097100  0.687300  1.0
  N  N471  1  0.514200  0.597100  0.812700  1.0
  N  N472  1  0.485800  0.902900  0.312700  1.0
  N  N473  1  0.332000  0.200800  0.057300  1.0
  N  N474  1  0.668000  0.299200  0.557300  1.0
  N  N475  1  0.668000  0.799200  0.942700  1.0
  N  N476  1  0.332000  0.700800  0.442700  1.0
  N  N477  1  0.600600  0.380500  0.060600  1.0
  N  N478  1  0.399400  0.119500  0.560600  1.0
  N  N479  1  0.399400  0.619500  0.939400  1.0
  N  N480  1  0.600600  0.880500  0.439400  1.0
  N  N481  1  0.542600  0.205400  0.184100  1.0
  N  N482  1  0.457400  0.294600  0.684100  1.0
  N  N483  1  0.457400  0.794600  0.815900  1.0
  N  N484  1  0.542600  0.705400  0.315900  1.0
  N  N485  1  0.313700  0.448500  0.087400  1.0
  N  N486  1  0.686300  0.051500  0.587400  1.0
  N  N487  1  0.686300  0.551500  0.912600  1.0
  N  N488  1  0.313700  0.948500  0.412600  1.0
  N  N489  1  0.984900  0.088500  0.811000  1.0
  N  N490  1  0.015100  0.411500  0.311000  1.0
  N  N491  1  0.015100  0.911500  0.189000  1.0
  N  N492  1  0.984900  0.588500  0.689000  1.0
  N  N493  1  0.821000  0.991500  0.827200  1.0
  N  N494  1  0.179000  0.508500  0.327200  1.0
  N  N495  1  0.179000  0.008500  0.172800  1.0
  N  N496  1  0.821000  0.491500  0.672800  1.0
  N  N497  1  0.117600  0.096300  0.933400  1.0
  N  N498  1  0.882400  0.403700  0.433400  1.0
  N  N499  1  0.882400  0.903700  0.066600  1.0
  N  N500  1  0.117600  0.596300  0.566600  1.0
  N  N501  1  0.178800  0.049200  0.035400  1.0
  N  N502  1  0.821200  0.450800  0.535400  1.0
  N  N503  1  0.821200  0.950800  0.964600  1.0
  N  N504  1  0.178800  0.549200  0.464600  1.0
  N  N505  1  0.857200  0.191600  0.898500  1.0
  N  N506  1  0.142800  0.308400  0.398500  1.0
  N  N507  1  0.142800  0.808400  0.101500  1.0
  N  N508  1  0.857200  0.691600  0.601500  1.0
  N  N509  1  0.015200  0.877000  0.857200  1.0
  N  N510  1  0.984800  0.623000  0.357200  1.0
  N  N511  1  0.984800  0.123000  0.142800  1.0
  N  N512  1  0.015200  0.377000  0.642800  1.0
  N  N513  1  0.345400  0.287900  0.951300  1.0
  N  N514  1  0.654600  0.212100  0.451300  1.0
  N  N515  1  0.654600  0.712100  0.048700  1.0
  N  N516  1  0.345400  0.787900  0.548700  1.0
  N  N517  1  0.308800  0.168300  0.887200  1.0
  N  N518  1  0.691200  0.331700  0.387200  1.0
  N  N519  1  0.691200  0.831700  0.112800  1.0
  N  N520  1  0.308800  0.668300  0.612800  1.0
  N  N521  1  0.449000  0.144400  0.973140  1.0
  N  N522  1  0.551000  0.355600  0.473140  1.0
  N  N523  1  0.551000  0.855600  0.026860  1.0
  N  N524  1  0.449000  0.644400  0.526860  1.0
  N  N525  1  0.312500  0.017200  0.949800  1.0
  N  N526  1  0.687500  0.482800  0.449800  1.0
  N  N527  1  0.687500  0.982800  0.050200  1.0
  N  N528  1  0.312500  0.517200  0.550200  1.0
  O  O529  1  0.891800  0.053400  0.281000  1
  O  O530  1  0.108200  0.446600  0.781000  1
  O  O531  1  0.108200  0.946600  0.719000  1
  O  O532  1  0.891800  0.553400  0.219000  1
  O  O533  1  0.826400  0.343700  0.884200  1
  O  O534  1  0.173600  0.156300  0.384200  1
  O  O535  1  0.173600  0.656300  0.115800  1
  O  O536  1  0.826400  0.843700  0.615800  1
  O  O537  1  0.860200  0.648500  0.943900  1
  O  O538  1  0.139800  0.851500  0.443900  1
  O  O539  1  0.139800  0.351500  0.056100  1
  O  O540  1  0.860200  0.148500  0.556100  1
  O  O541  1  0.973500  0.123100  0.023000  1
  O  O542  1  0.026500  0.376900  0.523000  1
  O  O543  1  0.026500  0.876900  0.977000  1
  O  O544  1  0.973500  0.623100  0.477000  1
  O  O545  1  0.729900  0.199300  0.205700  1
  O  O546  1  0.270100  0.300700  0.705700  1
  O  O547  1  0.270100  0.800700  0.794300  1
  O  O548  1  0.729900  0.699300  0.294300  1
  O  O549  1  0.809800  0.067900  0.196200  1
  O  O550  1  0.190200  0.432100  0.696200  1
  O  O551  1  0.190200  0.932100  0.803800  1
  O  O552  1  0.809800  0.567900  0.303800  1
  O  O553  1  0.978100  0.271500  0.104000  1
  O  O554  1  0.021900  0.228500  0.604000  1
  O  O555  1  0.021900  0.728500  0.896000  1
  O  O556  1  0.978100  0.771500  0.396000  1
  O  O557  1  0.783700  0.309400  0.130200  1
  O  O558  1  0.216300  0.190600  0.630200  1
  O  O559  1  0.216300  0.690600  0.869800  1
  O  O560  1  0.783700  0.809400  0.369800  1
  O  O561  1  0.869000  0.958600  0.356100  1
  O  O562  1  0.131000  0.541400  0.856100  1
  O  O563  1  0.131000  0.041400  0.643900  1
  O  O564  1  0.869000  0.458600  0.143900  1
  O  O565  1  0.888200  0.257400  0.998800  1
  O  O566  1  0.111800  0.242600  0.498800  1
  O  O567  1  0.111800  0.742600  0.001200  1
  O  O568  1  0.888200  0.757400  0.501200  1
  O  O569  1  0.719500  0.442800  0.984200  1
  O  O570  1  0.280500  0.057200  0.484200  1
  O  O571  1  0.280500  0.557200  0.015800  1
  O  O572  1  0.719500  0.942800  0.515800  1
  O  O573  1  0.983700  0.556700  0.988800  1
  O  O574  1  0.016300  0.943300  0.488800  1
  O  O575  1  0.016300  0.443300  0.011200  1
  O  O576  1  0.983700  0.056700  0.511200  1
  O  O577  1  0.149400  0.230000  0.001400  1.0
  O  O578  1  0.850600  0.270000  0.501400  1.0
  O  O579  1  0.850600  0.770000  0.998600  1.0
  O  O580  1  0.149400  0.730000  0.498600  1.0
