# generated using pymatgen
data_Si4H39PdC20N2Cl2O3
_symmetry_space_group_name_H-M   'P 1'
_cell_length_a   7.47860000
_cell_length_b   11.63750000
_cell_length_c   16.54670000
_cell_angle_alpha   95.32700000
_cell_angle_beta   102.03900000
_cell_angle_gamma   93.29200000
_symmetry_Int_Tables_number   1
_chemical_formula_structural   Si4H39PdC20N2Cl2O3
_chemical_formula_sum   'Si8 H78 Pd2 C40 N4 Cl4 O6'
_cell_volume   1397.97235357
_cell_formula_units_Z   2
loop_
 _symmetry_equiv_pos_site_id
 _symmetry_equiv_pos_as_xyz
  1  'x, y, z'
loop_
 _atom_site_type_symbol
 _atom_site_label
 _atom_site_symmetry_multiplicity
 _atom_site_fract_x
 _atom_site_fract_y
 _atom_site_fract_z
 _atom_site_occupancy
  Si  Si1  1  0.435900  0.593200  0.158430  1.0
  Si  Si2  1  0.564100  0.406800  0.841570  1.0
  Si  Si3  1  0.189100  0.736480  0.033150  1.0
  Si  Si4  1  0.810900  0.263520  0.966850  1.0
  Si  Si5  1  0.147400  0.949500  0.155200  1.0
  Si  Si6  1  0.852600  0.050500  0.844800  1.0
  Si  Si7  1  0.372230  0.977690  0.336480  1.0
  Si  Si8  1  0.627770  0.022310  0.663520  1.0
  H  H9  1  0.054000  0.691700  0.527900  1
  H  H10  1  0.946000  0.308300  0.472100  1
  H  H11  1  0.098000  0.703200  0.898000  1
  H  H12  1  0.902000  0.296800  0.102000  1
  H  H13  1  0.929000  0.723200  0.941700  1
  H  H14  1  0.071000  0.276800  0.058300  1
  H  H15  1  0.020300  0.602200  0.943700  1
  H  H16  1  0.979700  0.397800  0.056300  1
  H  H17  1  0.500400  0.847900  0.054700  1
  H  H18  1  0.499600  0.152100  0.945300  1
  H  H19  1  0.373700  0.881300  0.971100  1
  H  H20  1  0.626300  0.118700  0.028900  1
  H  H21  1  0.469900  0.762000  0.970800  1
  H  H22  1  0.530100  0.238000  0.029200  1
  H  H23  1  0.381400  0.384600  0.393100  1.0
  H  H24  1  0.618600  0.615400  0.606900  1.0
  H  H25  1  0.526800  0.457400  0.296100  1.0
  H  H26  1  0.473200  0.542600  0.703900  1.0
  H  H27  1  0.068900  0.613800  0.207800  1.0
  H  H28  1  0.931100  0.386200  0.792200  1.0
  H  H29  1  0.930800  0.532500  0.303100  1.0
  H  H30  1  0.069200  0.467500  0.696900  1.0
  H  H31  1  0.606400  0.491600  0.074800  1.0
  H  H32  1  0.393600  0.508400  0.925200  1.0
  H  H33  1  0.444200  0.407000  0.090900  1.0
  H  H34  1  0.555800  0.593000  0.909100  1.0
  H  H35  1  0.626200  0.438600  0.161700  1.0
  H  H36  1  0.373800  0.561400  0.838300  1.0
  H  H37  1  0.679100  0.735300  0.165600  1.0
  H  H38  1  0.320900  0.264700  0.834400  1.0
  H  H39  1  0.702600  0.680200  0.251900  1.0
  H  H40  1  0.297400  0.319800  0.748100  1.0
  H  H41  1  0.557800  0.774900  0.230700  1.0
  H  H42  1  0.442200  0.225100  0.769300  1.0
  H  H43  1  0.893800  0.622600  0.000400  1.0
  H  H44  1  0.106200  0.377400  0.999600  1.0
  H  H45  1  0.004100  0.590100  0.929400  1.0
  H  H46  1  0.995900  0.409900  0.070600  1.0
  H  H47  1  0.900900  0.706900  0.929800  1.0
  H  H48  1  0.099100  0.293100  0.070200  1.0
  H  H49  1  0.435600  0.845900  0.015000  1.0
  H  H50  1  0.564400  0.154100  0.985000  1.0
  H  H51  1  0.255700  0.867400  0.948300  1.0
  H  H52  1  0.744300  0.132600  0.051700  1.0
  H  H53  1  0.360000  0.752900  0.935900  1.0
  H  H54  1  0.640000  0.247100  0.064100  1.0
  H  H55  1  0.877900  0.916800  0.205900  1.0
  H  H56  1  0.122100  0.083200  0.794100  1.0
  H  H57  1  0.837100  0.992800  0.129200  1.0
  H  H58  1  0.162900  0.007200  0.870800  1.0
  H  H59  1  0.941100  0.052200  0.219100  1.0
  H  H60  1  0.058900  0.947800  0.780900  1.0
  H  H61  1  0.362100  0.044200  0.094300  1.0
  H  H62  1  0.637900  0.955800  0.905700  1.0
  H  H63  1  0.266200  0.137100  0.145100  1.0
  H  H64  1  0.733800  0.862900  0.854900  1.0
  H  H65  1  0.160200  0.078100  0.055400  1.0
  H  H66  1  0.839800  0.921900  0.944600  1.0
  H  H67  1  0.360700  0.177800  0.325700  1.0
  H  H68  1  0.639300  0.822200  0.674300  1.0
  H  H69  1  0.350100  0.151400  0.417900  1.0
  H  H70  1  0.649900  0.848600  0.582100  1.0
  H  H71  1  0.172200  0.125700  0.344100  1.0
  H  H72  1  0.827800  0.874300  0.655900  1.0
  H  H73  1  0.679200  0.027900  0.330600  1.0
  H  H74  1  0.320800  0.972100  0.669400  1.0
  H  H75  1  0.658300  0.897000  0.351600  1.0
  H  H76  1  0.341700  0.103000  0.648400  1.0
  H  H77  1  0.668900  0.001700  0.422800  1.0
  H  H78  1  0.331100  0.998300  0.577200  1.0
  H  H79  1  0.465200  0.764300  0.420500  1.0
  H  H80  1  0.534800  0.235700  0.579500  1.0
  H  H81  1  0.673700  0.351000  0.499500  1.0
  H  H82  1  0.326300  0.649000  0.500500  1.0
  H  H83  1  0.098900  0.161400  0.524600  1.0
  H  H84  1  0.901100  0.838600  0.475400  1.0
  H  H85  1  0.031000  0.958100  0.396500  1.0
  H  H86  1  0.969000  0.041900  0.603500  1.0
  Pd  Pd87  1  0.015480  0.359760  0.430260  1.0
  Pd  Pd88  1  0.984520  0.640240  0.569740  1.0
  C  C89  1  0.044000  0.686000  0.945100  1
  C  C90  1  0.956000  0.314000  0.054900  1
  C  C91  1  0.412000  0.817000  0.004000  1
  C  C92  1  0.588000  0.183000  0.996000  1
  C  C93  1  0.315600  0.429500  0.353500  1.0
  C  C94  1  0.684400  0.570500  0.646500  1.0
  C  C95  1  0.403800  0.473700  0.296200  1.0
  C  C96  1  0.596200  0.526300  0.703800  1.0
  C  C97  1  0.312100  0.542500  0.238200  1.0
  C  C98  1  0.687900  0.457500  0.761800  1.0
  C  C99  1  0.134900  0.564700  0.244000  1.0
  C  C100  1  0.865100  0.435300  0.756000  1.0
  C  C101  1  0.053200  0.516700  0.301400  1.0
  C  C102  1  0.946800  0.483300  0.698600  1.0
  C  C103  1  0.540400  0.468000  0.116600  1.0
  C  C104  1  0.459600  0.532000  0.883400  1.0
  C  C105  1  0.614900  0.709500  0.207400  1.0
  C  C106  1  0.385100  0.290500  0.792600  1.0
  C  C107  1  0.970000  0.653900  0.965000  1.0
  C  C108  1  0.030000  0.346100  0.035000  1.0
  C  C109  1  0.325000  0.809000  0.977000  1.0
  C  C110  1  0.675000  0.191000  0.023000  1.0
  C  C111  1  0.924700  0.981600  0.180300  1.0
  C  C112  1  0.075300  0.018400  0.819700  1.0
  C  C113  1  0.245300  0.065700  0.106900  1.0
  C  C114  1  0.754700  0.934300  0.893100  1.0
  C  C115  1  0.306000  0.125500  0.358600  1.0
  C  C116  1  0.694000  0.874500  0.641400  1.0
  C  C117  1  0.624200  0.975800  0.363500  1.0
  C  C118  1  0.375800  0.024200  0.636500  1.0
  C  C119  1  0.266300  0.877200  0.399400  1.0
  C  C120  1  0.733700  0.122800  0.600600  1.0
  C  C121  1  0.349700  0.782100  0.431500  1.0
  C  C122  1  0.650300  0.217900  0.568500  1.0
  C  C123  1  0.733500  0.286800  0.520600  1.0
  C  C124  1  0.266500  0.713200  0.479400  1.0
  C  C125  1  0.981700  0.175700  0.535200  1.0
  C  C126  1  0.018300  0.824300  0.464800  1.0
  C  C127  1  0.095300  0.895300  0.417400  1.0
  C  C128  1  0.904700  0.104700  0.582600  1.0
  N  N129  1  0.141500  0.447300  0.355700  1.0
  N  N130  1  0.858500  0.552700  0.644300  1.0
  N  N131  1  0.896000  0.264900  0.503600  1.0
  N  N132  1  0.104000  0.735100  0.496400  1.0
  Cl  Cl133  1  0.787140  0.287150  0.317570  1.0
  Cl  Cl134  1  0.212860  0.712850  0.682430  1.0
  Cl  Cl135  1  0.255920  0.413050  0.542450  1.0
  Cl  Cl136  1  0.744080  0.586950  0.457550  1.0
  O  O137  1  0.284600  0.637800  0.085000  1.0
  O  O138  1  0.715400  0.362200  0.915000  1.0
  O  O139  1  0.114600  0.829100  0.094800  1.0
  O  O140  1  0.885400  0.170900  0.905200  1.0
  O  O141  1  0.294500  0.929600  0.239100  1.0
  O  O142  1  0.705500  0.070400  0.760900  1.0
