# generated using pymatgen
data_Fe2P2H37C41N14O5F12
_symmetry_space_group_name_H-M   'P 1'
_cell_length_a   13.10400000
_cell_length_b   13.93500000
_cell_length_c   16.13000000
_cell_angle_alpha   68.67100000
_cell_angle_beta   88.35200000
_cell_angle_gamma   74.26400000
_symmetry_Int_Tables_number   1
_chemical_formula_structural   Fe2P2H37C41N14O5F12
_chemical_formula_sum   'Fe4 P4 H74 C82 N28 O10 F24'
_cell_volume   2632.80479100
_cell_formula_units_Z   2
loop_
 _symmetry_equiv_pos_site_id
 _symmetry_equiv_pos_as_xyz
  1  'x, y, z'
loop_
 _atom_site_type_symbol
 _atom_site_label
 _atom_site_symmetry_multiplicity
 _atom_site_fract_x
 _atom_site_fract_y
 _atom_site_fract_z
 _atom_site_occupancy
  Fe  Fe1  1  0.487960  0.943720  0.800430  1.0
  Fe  Fe2  1  0.512040  0.056280  0.199570  1.0
  Fe  Fe3  1  0.692630  0.126930  0.917510  1.0
  Fe  Fe4  1  0.307370  0.873070  0.082490  1.0
  P  P5  1  0.102860  0.518850  0.799160  1
  P  P6  1  0.897140  0.481150  0.200840  1
  P  P7  1  0.500000  0.500000  0.000000  1
  P  P8  1  0.000000  0.000000  0.500000  1
  H  H9  1  0.686400  0.566400  0.794000  1
  H  H10  1  0.313600  0.433600  0.206000  1
  H  H11  1  0.721100  0.618900  0.695500  1
  H  H12  1  0.278900  0.381100  0.304500  1
  H  H13  1  0.807900  0.530900  0.772700  1
  H  H14  1  0.192100  0.469100  0.227300  1
  H  H15  1  0.303300  0.693200  0.582400  1
  H  H16  1  0.696700  0.306800  0.417600  1
  H  H17  1  0.274700  0.588600  0.582400  1
  H  H18  1  0.725300  0.411400  0.417600  1
  H  H19  1  0.243000  0.697100  0.495900  1
  H  H20  1  0.757000  0.302900  0.504100  1
  H  H21  1  0.642000  0.754500  0.511900  1
  H  H22  1  0.358000  0.245500  0.488100  1
  H  H23  1  0.673300  0.679700  0.454500  1
  H  H24  1  0.326700  0.320300  0.545500  1
  H  H25  1  0.742600  0.650700  0.544800  1
  H  H26  1  0.257400  0.349300  0.455200  1
  H  H27  1  0.854700  0.173200  0.586000  1.0
  H  H28  1  0.145300  0.826800  0.414000  1.0
  H  H29  1  0.955600  0.040400  0.707300  1.0
  H  H30  1  0.044400  0.959600  0.292700  1.0
  H  H31  1  0.901600  0.021900  0.848500  1.0
  H  H32  1  0.098400  0.978100  0.151500  1.0
  H  H33  1  0.410600  0.472900  0.657900  1.0
  H  H34  1  0.589400  0.527100  0.342100  1.0
  H  H35  1  0.375300  0.447100  0.804700  1.0
  H  H36  1  0.624700  0.552900  0.195300  1.0
  H  H37  1  0.495000  0.312100  0.917400  1.0
  H  H38  1  0.505000  0.687900  0.082600  1.0
  H  H39  1  0.998000  0.765100  0.144700  1.0
  H  H40  1  0.002000  0.234900  0.855300  1.0
  H  H41  1  0.875600  0.735700  0.060700  1.0
  H  H42  1  0.124400  0.264300  0.939300  1.0
  H  H43  1  0.749500  0.882400  0.965200  1.0
  H  H44  1  0.250500  0.117600  0.034800  1.0
  H  H45  1  0.941900  0.255800  0.108000  1.0
  H  H46  1  0.058100  0.744200  0.892000  1.0
  H  H47  1  0.815200  0.390200  0.004200  1.0
  H  H48  1  0.184800  0.609800  0.995800  1.0
  H  H49  1  0.716100  0.345000  0.913000  1.0
  H  H50  1  0.283900  0.655000  0.087000  1.0
  H  H51  1  0.106200  0.279400  0.663400  1.0
  H  H52  1  0.893800  0.720600  0.336600  1.0
  H  H53  1  0.246000  0.312000  0.728200  1.0
  H  H54  1  0.754000  0.688000  0.271800  1.0
  H  H55  1  0.398900  0.174200  0.784900  1.0
  H  H56  1  0.601100  0.825800  0.215100  1.0
  H  H57  1  0.202900  0.757100  0.697900  1.0
  H  H58  1  0.797100  0.242900  0.302100  1.0
  H  H59  1  0.374800  0.651000  0.754300  1.0
  H  H60  1  0.625200  0.349000  0.245700  1.0
  H  H61  1  0.498400  0.726700  0.788500  1.0
  H  H62  1  0.501600  0.273300  0.211500  1.0
  H  H63  1  0.698900  0.045100  0.481100  1.0
  H  H64  1  0.301100  0.954900  0.518900  1.0
  H  H65  1  0.526500  0.150500  0.479400  1.0
  H  H66  1  0.473500  0.849500  0.520600  1.0
  H  H67  1  0.438500  0.107900  0.609000  1.0
  H  H68  1  0.561500  0.892100  0.391000  1.0
  H  H69  1  0.891200  0.635400  0.884200  1.0
  H  H70  1  0.108800  0.364600  0.115800  1.0
  H  H71  1  0.762300  0.610100  0.987500  1.0
  H  H72  1  0.237700  0.389900  0.012500  1.0
  H  H73  1  0.596000  0.735000  0.952100  1.0
  H  H74  1  0.404000  0.265000  0.047900  1.0
  H  H75  1  0.125800  0.108300  0.663700  1.0
  H  H76  1  0.874200  0.891700  0.336300  1.0
  H  H77  1  0.155300  0.934200  0.682200  1.0
  H  H78  1  0.844700  0.065800  0.317800  1.0
  H  H79  1  0.780800  0.903900  0.611900  1.0
  H  H80  1  0.219200  0.096100  0.388100  1.0
  H  H81  1  0.846500  0.774100  0.746800  1.0
  H  H82  1  0.153500  0.225900  0.253200  1.0
  C  C83  1  0.734000  0.553000  0.748800  1
  C  C84  1  0.266000  0.447000  0.251200  1
  C  C85  1  0.297000  0.652000  0.546000  1
  C  C86  1  0.703000  0.348000  0.454000  1
  C  C87  1  0.671000  0.681000  0.515000  1
  C  C88  1  0.329000  0.319000  0.485000  1
  C  C89  1  0.563000  0.016000  0.844200  1.0
  C  C90  1  0.437000  0.984000  0.155800  1.0
  C  C91  1  0.568100  0.098000  0.087200  1.0
  C  C92  1  0.431900  0.902000  0.912800  1.0
  C  C93  1  0.709900  0.216100  0.734500  1.0
  C  C94  1  0.290100  0.783900  0.265500  1.0
  C  C95  1  0.830900  0.164400  0.643800  1.0
  C  C96  1  0.169100  0.835600  0.356200  1.0
  C  C97  1  0.891200  0.087000  0.714800  1.0
  C  C98  1  0.108800  0.913000  0.285200  1.0
  C  C99  1  0.858800  0.076000  0.797600  1.0
  C  C100  1  0.141200  0.924000  0.202400  1.0
  C  C101  1  0.611400  0.284200  0.751600  1.0
  C  C102  1  0.388600  0.715800  0.248400  1.0
  C  C103  1  0.459600  0.418700  0.704700  1.0
  C  C104  1  0.540400  0.581300  0.295300  1.0
  C  C105  1  0.437600  0.403500  0.791000  1.0
  C  C106  1  0.562400  0.596500  0.209000  1.0
  C  C107  1  0.508100  0.323800  0.856700  1.0
  C  C108  1  0.491900  0.676200  0.143300  1.0
  C  C109  1  0.866000  0.003400  0.043700  1.0
  C  C110  1  0.134000  0.996600  0.956300  1.0
  C  C111  1  0.944900  0.824600  0.105600  1.0
  C  C112  1  0.055100  0.175400  0.894400  1.0
  C  C113  1  0.873200  0.806300  0.055700  1.0
  C  C114  1  0.126800  0.193700  0.944300  1.0
  C  C115  1  0.799800  0.893100  0.999800  1.0
  C  C116  1  0.200200  0.106900  0.000200  1.0
  C  C117  1  0.856300  0.115100  0.032600  1.0
  C  C118  1  0.143700  0.884900  0.967400  1.0
  C  C119  1  0.900200  0.237600  0.072000  1.0
  C  C120  1  0.099800  0.762400  0.928000  1.0
  C  C121  1  0.826200  0.317500  0.010700  1.0
  C  C122  1  0.173800  0.682500  0.989300  1.0
  C  C123  1  0.767000  0.290200  0.958000  1.0
  C  C124  1  0.233000  0.709800  0.042000  1.0
  C  C125  1  0.277400  0.043400  0.723100  1.0
  C  C126  1  0.722600  0.956600  0.276900  1.0
  C  C127  1  0.170100  0.224000  0.688300  1.0
  C  C128  1  0.829900  0.776000  0.311700  1.0
  C  C129  1  0.252200  0.243700  0.725600  1.0
  C  C130  1  0.747800  0.756300  0.274400  1.0
  C  C131  1  0.343100  0.160600  0.758600  1.0
  C  C132  1  0.656900  0.839400  0.241400  1.0
  C  C133  1  0.298700  0.932000  0.728600  1.0
  C  C134  1  0.701300  0.068000  0.271400  1.0
  C  C135  1  0.252900  0.786900  0.713800  1.0
  C  C136  1  0.747100  0.213100  0.286200  1.0
  C  C137  1  0.354500  0.724800  0.746400  1.0
  C  C138  1  0.645500  0.275200  0.253600  1.0
  C  C139  1  0.427600  0.769700  0.767800  1.0
  C  C140  1  0.572400  0.230300  0.232200  1.0
  C  C141  1  0.652600  0.925100  0.683200  1.0
  C  C142  1  0.347400  0.074900  0.316800  1.0
  C  C143  1  0.661600  0.029900  0.533500  1.0
  C  C144  1  0.338400  0.970100  0.466500  1.0
  C  C145  1  0.560200  0.091900  0.531900  1.0
  C  C146  1  0.439800  0.908100  0.468100  1.0
  C  C147  1  0.509000  0.065800  0.609400  1.0
  C  C148  1  0.491000  0.934200  0.390600  1.0
  C  C149  1  0.691700  0.836600  0.768700  1.0
  C  C150  1  0.308300  0.163400  0.231300  1.0
  C  C151  1  0.821200  0.682800  0.870300  1.0
  C  C152  1  0.178800  0.317200  0.129700  1.0
  C  C153  1  0.746500  0.668500  0.931600  1.0
  C  C154  1  0.253500  0.331500  0.068400  1.0
  C  C155  1  0.646900  0.742800  0.908800  1.0
  C  C156  1  0.353100  0.257200  0.091200  1.0
  C  C157  1  0.182100  0.123500  0.687900  1.0
  C  C158  1  0.817900  0.876500  0.312100  1.0
  C  C159  1  0.225200  0.889900  0.704800  1.0
  C  C160  1  0.774800  0.110100  0.295200  1.0
  C  C161  1  0.709800  0.946000  0.610000  1.0
  C  C162  1  0.290200  0.054000  0.390000  1.0
  C  C163  1  0.794900  0.765000  0.789500  1.0
  C  C164  1  0.205100  0.235000  0.210500  1.0
  N  N165  1  0.612100  0.054400  0.875400  1.0
  N  N166  1  0.387900  0.945600  0.124600  1.0
  N  N167  1  0.607900  0.116800  0.019500  1.0
  N  N168  1  0.392100  0.883200  0.980500  1.0
  N  N169  1  0.552300  0.985700  0.684300  1.0
  N  N170  1  0.447700  0.014300  0.315700  1.0
  N  N171  1  0.617800  0.823700  0.831100  1.0
  N  N172  1  0.382200  0.176300  0.168900  1.0
  N  N173  1  0.399800  0.871800  0.759900  1.0
  N  N174  1  0.600200  0.128200  0.240100  1.0
  N  N175  1  0.359900  0.064800  0.757200  1.0
  N  N176  1  0.640100  0.935200  0.242800  1.0
  N  N177  1  0.595000  0.262000  0.837600  1.0
  N  N178  1  0.405000  0.738000  0.162400  1.0
  N  N179  1  0.766600  0.141200  0.808700  1.0
  N  N180  1  0.233400  0.858800  0.191300  1.0
  N  N181  1  0.795000  0.992800  0.991100  1.0
  N  N182  1  0.205000  0.007200  0.008900  1.0
  N  N183  1  0.780600  0.187400  0.969500  1.0
  N  N184  1  0.219400  0.812600  0.030500  1.0
  N  N185  1  0.547100  0.360200  0.683700  1.0
  N  N186  1  0.452900  0.639800  0.316300  1.0
  N  N187  1  0.736500  0.231100  0.651400  1.0
  N  N188  1  0.263500  0.768900  0.348600  1.0
  N  N189  1  0.917200  0.135300  0.084300  1.0
  N  N190  1  0.082800  0.864700  0.915700  1.0
  N  N191  1  0.941900  0.923100  0.100600  1.0
  N  N192  1  0.058100  0.076900  0.899400  1.0
  O  O193  1  0.713700  0.472800  0.726600  1
  O  O194  1  0.286300  0.527200  0.273400  1
  O  O195  1  0.402500  0.617300  0.509900  1
  O  O196  1  0.597500  0.382700  0.490100  1
  O  O197  1  0.943000  0.409100  0.522100  1
  O  O198  1  0.057000  0.590900  0.477900  1
  O  O199  1  0.885800  0.372600  0.712200  1
  O  O200  1  0.114200  0.627400  0.287800  1
  O  O201  1  0.599700  0.613300  0.567500  1
  O  O202  1  0.400300  0.386700  0.432500  1
  F  F203  1  0.177100  0.559200  0.728200  1
  F  F204  1  0.822900  0.440800  0.271800  1
  F  F205  1  0.194900  0.411400  0.848500  1
  F  F206  1  0.805100  0.588600  0.151500  1
  F  F207  1  0.138000  0.566200  0.859100  1
  F  F208  1  0.862000  0.433800  0.140900  1
  F  F209  1  0.028900  0.472900  0.868200  1
  F  F210  1  0.971100  0.527100  0.131800  1
  F  F211  1  0.015900  0.621900  0.753300  1
  F  F212  1  0.984100  0.378100  0.246700  1
  F  F213  1  0.077200  0.457800  0.742400  1
  F  F214  1  0.922800  0.542200  0.257600  1
  F  F215  1  0.398500  0.489900  0.956700  1.0
  F  F216  1  0.601500  0.510100  0.043300  1.0
  F  F217  1  0.554000  0.516800  0.908400  1.0
  F  F218  1  0.446000  0.483200  0.091600  1.0
  F  F219  1  0.551600  0.373300  0.031700  1.0
  F  F220  1  0.448400  0.626700  0.968300  1.0
  F  F221  1  0.048000  0.070700  0.537200  1.0
  F  F222  1  0.952000  0.929300  0.462800  1.0
  F  F223  1  0.887500  0.086200  0.480200  1.0
  F  F224  1  0.112500  0.913800  0.519800  1.0
  F  F225  1  0.027900  0.060300  0.402200  1.0
  F  F226  1  0.972100  0.939700  0.597800  1.0
