# generated using pymatgen
data_FeH35C39(NO3)2
_symmetry_space_group_name_H-M   'P 1'
_cell_length_a   13.59700000
_cell_length_b   13.59700000
_cell_length_c   37.89100000
_cell_angle_alpha   90.00000000
_cell_angle_beta   90.00000000
_cell_angle_gamma   90.00000000
_symmetry_Int_Tables_number   1
_chemical_formula_structural   FeH35C39(NO3)2
_chemical_formula_sum   'Fe8 H280 C312 N16 O48'
_cell_volume   7005.22779542
_cell_formula_units_Z   8
loop_
 _symmetry_equiv_pos_site_id
 _symmetry_equiv_pos_as_xyz
  1  'x, y, z'
loop_
 _atom_site_type_symbol
 _atom_site_label
 _atom_site_symmetry_multiplicity
 _atom_site_fract_x
 _atom_site_fract_y
 _atom_site_fract_z
 _atom_site_occupancy
  Fe  Fe1  1  0.311630  0.311630  0.000000  1
  Fe  Fe2  1  0.688370  0.688370  0.500000  1
  Fe  Fe3  1  0.811630  0.188370  0.750000  1
  Fe  Fe4  1  0.188370  0.811630  0.250000  1
  Fe  Fe5  1  0.477770  0.477770  0.000000  1
  Fe  Fe6  1  0.522230  0.522230  0.500000  1
  Fe  Fe7  1  0.977770  0.022230  0.750000  1
  Fe  Fe8  1  0.022230  0.977770  0.250000  1
  H  H9  1  0.906500  0.933000  0.960900  1
  H  H10  1  0.093500  0.067000  0.460900  1
  H  H11  1  0.406500  0.567000  0.789100  1
  H  H12  1  0.593500  0.433000  0.289100  1
  H  H13  1  0.067000  0.093500  0.539100  1
  H  H14  1  0.933000  0.906500  0.039100  1
  H  H15  1  0.433000  0.593500  0.710900  1
  H  H16  1  0.567000  0.406500  0.210900  1
  H  H17  1  0.960800  0.842000  0.977200  1
  H  H18  1  0.039200  0.158000  0.477200  1
  H  H19  1  0.460800  0.658000  0.772800  1
  H  H20  1  0.539200  0.342000  0.272800  1
  H  H21  1  0.158000  0.039200  0.522800  1
  H  H22  1  0.842000  0.960800  0.022800  1
  H  H23  1  0.342000  0.539200  0.727200  1
  H  H24  1  0.658000  0.460800  0.227200  1
  H  H25  1  0.947000  0.849900  0.936200  1
  H  H26  1  0.053000  0.150100  0.436200  1
  H  H27  1  0.447000  0.650100  0.813800  1
  H  H28  1  0.553000  0.349900  0.313800  1
  H  H29  1  0.150100  0.053000  0.563800  1
  H  H30  1  0.849900  0.947000  0.063800  1
  H  H31  1  0.349900  0.553000  0.686200  1
  H  H32  1  0.650100  0.447000  0.186200  1
  H  H33  1  0.049400  0.987000  0.973700  1
  H  H34  1  0.950600  0.013000  0.473700  1
  H  H35  1  0.549400  0.513000  0.776300  1
  H  H36  1  0.450600  0.487000  0.276300  1
  H  H37  1  0.013000  0.950600  0.526300  1
  H  H38  1  0.987000  0.049400  0.026300  1
  H  H39  1  0.487000  0.450600  0.723700  1
  H  H40  1  0.513000  0.549400  0.223700  1
  H  H41  1  0.045600  0.977300  0.933200  1
  H  H42  1  0.954400  0.022700  0.433200  1
  H  H43  1  0.545600  0.522700  0.816800  1
  H  H44  1  0.454400  0.477300  0.316800  1
  H  H45  1  0.022700  0.954400  0.566800  1
  H  H46  1  0.977300  0.045600  0.066800  1
  H  H47  1  0.477300  0.454400  0.683200  1
  H  H48  1  0.522700  0.545600  0.183200  1
  H  H49  1  0.282700  0.010000  0.961400  1
  H  H50  1  0.717300  0.990000  0.461400  1
  H  H51  1  0.782700  0.490000  0.788600  1
  H  H52  1  0.217300  0.510000  0.288600  1
  H  H53  1  0.990000  0.717300  0.538600  1
  H  H54  1  0.010000  0.282700  0.038600  1
  H  H55  1  0.510000  0.217300  0.711400  1
  H  H56  1  0.490000  0.782700  0.211400  1
  H  H57  1  0.252200  0.958700  0.996100  1
  H  H58  1  0.747800  0.041300  0.496100  1
  H  H59  1  0.752200  0.541300  0.753900  1
  H  H60  1  0.247800  0.458700  0.253900  1
  H  H61  1  0.041300  0.747800  0.503900  1
  H  H62  1  0.958700  0.252200  0.003900  1
  H  H63  1  0.458700  0.247800  0.746100  1
  H  H64  1  0.541300  0.752200  0.246100  1
  H  H65  1  0.360000  0.834200  0.963000  1
  H  H66  1  0.640000  0.165800  0.463000  1
  H  H67  1  0.860000  0.665800  0.787000  1
  H  H68  1  0.140000  0.334200  0.287000  1
  H  H69  1  0.165800  0.640000  0.537000  1
  H  H70  1  0.834200  0.360000  0.037000  1
  H  H71  1  0.334200  0.140000  0.713000  1
  H  H72  1  0.665800  0.860000  0.213000  1
  H  H73  1  0.384200  0.892500  0.997600  1
  H  H74  1  0.615800  0.107500  0.497600  1
  H  H75  1  0.884200  0.607500  0.752400  1
  H  H76  1  0.115800  0.392500  0.252400  1
  H  H77  1  0.107500  0.615800  0.502400  1
  H  H78  1  0.892500  0.384200  0.002400  1
  H  H79  1  0.392500  0.115800  0.747600  1
  H  H80  1  0.607500  0.884200  0.247600  1
  H  H81  1  0.411700  0.937100  0.960700  1
  H  H82  1  0.588300  0.062900  0.460700  1
  H  H83  1  0.911700  0.562900  0.789300  1
  H  H84  1  0.088300  0.437100  0.289300  1
  H  H85  1  0.062900  0.588300  0.539300  1
  H  H86  1  0.937100  0.411700  0.039300  1
  H  H87  1  0.437100  0.088300  0.710700  1
  H  H88  1  0.562900  0.911700  0.210700  1
  H  H89  1  0.390500  0.127600  0.938600  1.0
  H  H90  1  0.609500  0.872400  0.438600  1.0
  H  H91  1  0.890500  0.372400  0.811400  1.0
  H  H92  1  0.109500  0.627600  0.311400  1.0
  H  H93  1  0.872400  0.609500  0.561400  1.0
  H  H94  1  0.127600  0.390500  0.061400  1.0
  H  H95  1  0.627600  0.109500  0.688600  1.0
  H  H96  1  0.372400  0.890500  0.188600  1.0
  H  H97  1  0.506200  0.078800  0.899200  1.0
  H  H98  1  0.493800  0.921200  0.399200  1.0
  H  H99  1  0.006200  0.421200  0.850800  1.0
  H  H100  1  0.993800  0.578800  0.350800  1.0
  H  H101  1  0.921200  0.493800  0.600800  1.0
  H  H102  1  0.078800  0.506200  0.100800  1.0
  H  H103  1  0.578800  0.993800  0.649200  1.0
  H  H104  1  0.421200  0.006200  0.149200  1.0
  H  H105  1  0.778400  0.163700  0.992700  1.0
  H  H106  1  0.221600  0.836300  0.492700  1.0
  H  H107  1  0.278400  0.336300  0.757300  1.0
  H  H108  1  0.721600  0.663700  0.257300  1.0
  H  H109  1  0.836300  0.221600  0.507300  1.0
  H  H110  1  0.163700  0.778400  0.007300  1.0
  H  H111  1  0.663700  0.721600  0.742700  1.0
  H  H112  1  0.336300  0.278400  0.242700  1.0
  H  H113  1  0.891500  0.111300  0.952200  1.0
  H  H114  1  0.108500  0.888700  0.452200  1.0
  H  H115  1  0.391500  0.388700  0.797800  1.0
  H  H116  1  0.608500  0.611300  0.297800  1.0
  H  H117  1  0.888700  0.108500  0.547800  1.0
  H  H118  1  0.111300  0.891500  0.047800  1.0
  H  H119  1  0.611300  0.608500  0.702200  1.0
  H  H120  1  0.388700  0.391500  0.202200  1.0
  H  H121  1  0.843200  0.069600  0.895600  1.0
  H  H122  1  0.156800  0.930400  0.395600  1.0
  H  H123  1  0.343200  0.430400  0.854400  1.0
  H  H124  1  0.656800  0.569600  0.354400  1.0
  H  H125  1  0.930400  0.156800  0.604400  1.0
  H  H126  1  0.069600  0.843200  0.104400  1.0
  H  H127  1  0.569600  0.656800  0.645600  1.0
  H  H128  1  0.430400  0.343200  0.145600  1.0
  H  H129  1  0.681000  0.059300  0.881700  1.0
  H  H130  1  0.319000  0.940700  0.381700  1.0
  H  H131  1  0.181000  0.440700  0.868300  1.0
  H  H132  1  0.819000  0.559300  0.368300  1.0
  H  H133  1  0.940700  0.319000  0.618300  1.0
  H  H134  1  0.059300  0.681000  0.118300  1.0
  H  H135  1  0.559300  0.819000  0.631700  1.0
  H  H136  1  0.440700  0.181000  0.131700  1.0
  H  H137  1  0.631300  0.408700  0.068300  1.0
  H  H138  1  0.368700  0.591300  0.568300  1.0
  H  H139  1  0.131300  0.091300  0.681700  1.0
  H  H140  1  0.868700  0.908700  0.181700  1.0
  H  H141  1  0.591300  0.368700  0.431700  1.0
  H  H142  1  0.408700  0.631300  0.931700  1.0
  H  H143  1  0.908700  0.868700  0.818300  1.0
  H  H144  1  0.091300  0.131300  0.318300  1.0
  H  H145  1  0.659200  0.305300  0.113900  1.0
  H  H146  1  0.340800  0.694700  0.613900  1.0
  H  H147  1  0.159200  0.194700  0.636100  1.0
  H  H148  1  0.840800  0.805300  0.136100  1.0
  H  H149  1  0.694700  0.340800  0.386100  1.0
  H  H150  1  0.305300  0.659200  0.886100  1.0
  H  H151  1  0.805300  0.840800  0.863900  1.0
  H  H152  1  0.194700  0.159200  0.363900  1.0
  H  H153  1  0.618000  0.011400  0.024500  1.0
  H  H154  1  0.382000  0.988600  0.524500  1.0
  H  H155  1  0.118000  0.488600  0.725500  1.0
  H  H156  1  0.882000  0.511400  0.225500  1.0
  H  H157  1  0.988600  0.382000  0.475500  1.0
  H  H158  1  0.011400  0.618000  0.975500  1.0
  H  H159  1  0.511400  0.882000  0.774500  1.0
  H  H160  1  0.488600  0.118000  0.274500  1.0
  H  H161  1  0.639200  0.908100  0.071500  1.0
  H  H162  1  0.360800  0.091900  0.571500  1.0
  H  H163  1  0.139200  0.591900  0.678500  1.0
  H  H164  1  0.860800  0.408100  0.178500  1.0
  H  H165  1  0.091900  0.360800  0.428500  1.0
  H  H166  1  0.908100  0.639200  0.928500  1.0
  H  H167  1  0.408100  0.860800  0.821500  1.0
  H  H168  1  0.591900  0.139200  0.321500  1.0
  H  H169  1  0.661100  0.973600  0.129300  1.0
  H  H170  1  0.338900  0.026400  0.629300  1.0
  H  H171  1  0.161100  0.526400  0.620700  1.0
  H  H172  1  0.838900  0.473600  0.120700  1.0
  H  H173  1  0.026400  0.338900  0.370700  1.0
  H  H174  1  0.973600  0.661100  0.870700  1.0
  H  H175  1  0.473600  0.838900  0.879300  1.0
  H  H176  1  0.526400  0.161100  0.379300  1.0
  H  H177  1  0.670800  0.140200  0.137400  1.0
  H  H178  1  0.329200  0.859800  0.637400  1.0
  H  H179  1  0.170800  0.359800  0.612600  1.0
  H  H180  1  0.829200  0.640200  0.112600  1.0
  H  H181  1  0.859800  0.329200  0.362600  1.0
  H  H182  1  0.140200  0.670800  0.862600  1.0
  H  H183  1  0.640200  0.829200  0.887400  1.0
  H  H184  1  0.359800  0.170800  0.387400  1.0
  H  H185  1  0.372500  0.975900  0.071400  1.0
  H  H186  1  0.627500  0.024100  0.571400  1.0
  H  H187  1  0.872500  0.524100  0.678600  1.0
  H  H188  1  0.127500  0.475900  0.178600  1.0
  H  H189  1  0.024100  0.627500  0.428600  1.0
  H  H190  1  0.975900  0.372500  0.928600  1.0
  H  H191  1  0.475900  0.127500  0.821400  1.0
  H  H192  1  0.524100  0.872500  0.321400  1.0
  H  H193  1  0.257900  0.949600  0.114100  1.0
  H  H194  1  0.742100  0.050400  0.614100  1.0
  H  H195  1  0.757900  0.550400  0.635900  1.0
  H  H196  1  0.242100  0.449600  0.135900  1.0
  H  H197  1  0.050400  0.742100  0.385900  1.0
  H  H198  1  0.949600  0.257900  0.885900  1.0
  H  H199  1  0.449600  0.242100  0.864100  1.0
  H  H200  1  0.550400  0.757900  0.364100  1.0
  H  H201  1  0.137200  0.067300  0.123700  1.0
  H  H202  1  0.862800  0.932700  0.623700  1.0
  H  H203  1  0.637200  0.432700  0.626300  1.0
  H  H204  1  0.362800  0.567300  0.126300  1.0
  H  H205  1  0.932700  0.862800  0.376300  1.0
  H  H206  1  0.067300  0.137200  0.876300  1.0
  H  H207  1  0.567300  0.362800  0.873700  1.0
  H  H208  1  0.432700  0.637200  0.373700  1.0
  H  H209  1  0.133100  0.205500  0.090200  1.0
  H  H210  1  0.866900  0.794500  0.590200  1.0
  H  H211  1  0.633100  0.294500  0.659800  1.0
  H  H212  1  0.366900  0.705500  0.159800  1.0
  H  H213  1  0.794500  0.866900  0.409800  1.0
  H  H214  1  0.205500  0.133100  0.909800  1.0
  H  H215  1  0.705500  0.366900  0.840200  1.0
  H  H216  1  0.294500  0.633100  0.340200  1.0
  H  H217  1  0.799600  0.367100  0.928600  1.0
  H  H218  1  0.200400  0.632900  0.428600  1.0
  H  H219  1  0.299600  0.132900  0.821400  1.0
  H  H220  1  0.700400  0.867100  0.321400  1.0
  H  H221  1  0.632900  0.200400  0.571400  1.0
  H  H222  1  0.367100  0.799600  0.071400  1.0
  H  H223  1  0.867100  0.700400  0.678600  1.0
  H  H224  1  0.132900  0.299600  0.178600  1.0
  H  H225  1  0.832000  0.462900  0.881700  1.0
  H  H226  1  0.168000  0.537100  0.381700  1.0
  H  H227  1  0.332000  0.037100  0.868300  1.0
  H  H228  1  0.668000  0.962900  0.368300  1.0
  H  H229  1  0.537100  0.168000  0.618300  1.0
  H  H230  1  0.462900  0.832000  0.118300  1.0
  H  H231  1  0.962900  0.668000  0.631700  1.0
  H  H232  1  0.037100  0.332000  0.131700  1.0
  H  H233  1  0.729200  0.596200  0.870100  1.0
  H  H234  1  0.270800  0.403800  0.370100  1.0
  H  H235  1  0.229200  0.903800  0.879900  1.0
  H  H236  1  0.770800  0.096200  0.379900  1.0
  H  H237  1  0.403800  0.270800  0.629900  1.0
  H  H238  1  0.596200  0.729200  0.129900  1.0
  H  H239  1  0.096200  0.770800  0.620100  1.0
  H  H240  1  0.903800  0.229200  0.120100  1.0
  H  H241  1  0.601500  0.632700  0.906200  1.0
  H  H242  1  0.398500  0.367300  0.406200  1.0
  H  H243  1  0.101500  0.867300  0.843800  1.0
  H  H244  1  0.898500  0.132700  0.343800  1.0
  H  H245  1  0.367300  0.398500  0.593800  1.0
  H  H246  1  0.632700  0.601500  0.093800  1.0
  H  H247  1  0.132700  0.898500  0.656200  1.0
  H  H248  1  0.867300  0.101500  0.156200  1.0
  H  H249  1  0.438200  0.059500  0.024400  1.0
  H  H250  1  0.561800  0.940500  0.524400  1.0
  H  H251  1  0.938200  0.440500  0.725600  1.0
  H  H252  1  0.061800  0.559500  0.225600  1.0
  H  H253  1  0.940500  0.561800  0.475600  1.0
  H  H254  1  0.059500  0.438200  0.975600  1.0
  H  H255  1  0.559500  0.061800  0.774400  1.0
  H  H256  1  0.440500  0.938200  0.274400  1.0
  H  H257  1  0.721300  0.329600  0.981900  1.0
  H  H258  1  0.278700  0.670400  0.481900  1.0
  H  H259  1  0.221300  0.170400  0.768100  1.0
  H  H260  1  0.778700  0.829600  0.268100  1.0
  H  H261  1  0.670400  0.278700  0.518100  1.0
  H  H262  1  0.329600  0.721300  0.018100  1.0
  H  H263  1  0.829600  0.778700  0.731900  1.0
  H  H264  1  0.170400  0.221300  0.231900  1.0
  H  H265  1  0.410300  0.448600  0.921300  1.0
  H  H266  1  0.589700  0.551400  0.421300  1.0
  H  H267  1  0.910300  0.051400  0.828700  1.0
  H  H268  1  0.089700  0.948600  0.328700  1.0
  H  H269  1  0.551400  0.589700  0.578700  1.0
  H  H270  1  0.448600  0.410300  0.078700  1.0
  H  H271  1  0.948600  0.089700  0.671300  1.0
  H  H272  1  0.051400  0.910300  0.171300  1.0
  H  H273  1  0.341800  0.356000  0.922800  1.0
  H  H274  1  0.658200  0.644000  0.422800  1.0
  H  H275  1  0.841800  0.144000  0.827200  1.0
  H  H276  1  0.158200  0.856000  0.327200  1.0
  H  H277  1  0.644000  0.658200  0.577200  1.0
  H  H278  1  0.356000  0.341800  0.077200  1.0
  H  H279  1  0.856000  0.158200  0.672800  1.0
  H  H280  1  0.144000  0.841800  0.172800  1.0
  H  H281  1  0.456300  0.343200  0.924500  1.0
  H  H282  1  0.543700  0.656800  0.424500  1.0
  H  H283  1  0.956300  0.156800  0.825500  1.0
  H  H284  1  0.043700  0.843200  0.325500  1.0
  H  H285  1  0.656800  0.543700  0.575500  1.0
  H  H286  1  0.343200  0.456300  0.075500  1.0
  H  H287  1  0.843200  0.043700  0.674500  1.0
  H  H288  1  0.156800  0.956300  0.174500  1.0
  C  C289  1  0.959000  0.886400  0.957500  1
  C  C290  1  0.041000  0.113600  0.457500  1
  C  C291  1  0.459000  0.613600  0.792500  1
  C  C292  1  0.541000  0.386400  0.292500  1
  C  C293  1  0.113600  0.041000  0.542500  1
  C  C294  1  0.886400  0.959000  0.042500  1
  C  C295  1  0.386400  0.541000  0.707500  1
  C  C296  1  0.613600  0.459000  0.207500  1
  C  C297  1  0.053900  0.939300  0.954700  1
  C  C298  1  0.946100  0.060700  0.454700  1
  C  C299  1  0.553900  0.560700  0.795300  1
  C  C300  1  0.446100  0.439300  0.295300  1
  C  C301  1  0.060700  0.946100  0.545300  1
  C  C302  1  0.939300  0.053900  0.045300  1
  C  C303  1  0.439300  0.446100  0.704700  1
  C  C304  1  0.560700  0.553900  0.204700  1
  C  C305  1  0.268900  0.946100  0.971600  1
  C  C306  1  0.731100  0.053900  0.471600  1
  C  C307  1  0.768900  0.553900  0.778400  1
  C  C308  1  0.231100  0.446100  0.278400  1
  C  C309  1  0.053900  0.731100  0.528400  1
  C  C310  1  0.946100  0.268900  0.028400  1
  C  C311  1  0.446100  0.231100  0.721600  1
  C  C312  1  0.553900  0.768900  0.221600  1
  C  C313  1  0.364200  0.898400  0.973400  1
  C  C314  1  0.635800  0.101600  0.473400  1
  C  C315  1  0.864200  0.601600  0.776600  1
  C  C316  1  0.135800  0.398400  0.276600  1
  C  C317  1  0.101600  0.635800  0.526600  1
  C  C318  1  0.898400  0.364200  0.026600  1
  C  C319  1  0.398400  0.135800  0.723400  1
  C  C320  1  0.601600  0.864200  0.223400  1
  C  C321  1  0.582300  0.168500  0.987910  1.0
  C  C322  1  0.417700  0.831500  0.487910  1.0
  C  C323  1  0.082300  0.331500  0.762090  1.0
  C  C324  1  0.917700  0.668500  0.262090  1.0
  C  C325  1  0.831500  0.417700  0.512090  1.0
  C  C326  1  0.168500  0.582300  0.012090  1.0
  C  C327  1  0.668500  0.917700  0.737910  1.0
  C  C328  1  0.331500  0.082300  0.237910  1.0
  C  C329  1  0.486000  0.162500  0.978480  1.0
  C  C330  1  0.514000  0.837500  0.478480  1.0
  C  C331  1  0.986000  0.337500  0.771520  1.0
  C  C332  1  0.014000  0.662500  0.271520  1.0
  C  C333  1  0.837500  0.514000  0.521520  1.0
  C  C334  1  0.162500  0.486000  0.021520  1.0
  C  C335  1  0.662500  0.014000  0.728480  1.0
  C  C336  1  0.337500  0.986000  0.228480  1.0
  C  C337  1  0.456800  0.129800  0.944610  1.0
  C  C338  1  0.543200  0.870200  0.444610  1.0
  C  C339  1  0.956800  0.370200  0.805390  1.0
  C  C340  1  0.043200  0.629800  0.305390  1.0
  C  C341  1  0.870200  0.543200  0.555390  1.0
  C  C342  1  0.129800  0.456800  0.055390  1.0
  C  C343  1  0.629800  0.043200  0.694610  1.0
  C  C344  1  0.370200  0.956800  0.194610  1.0
  C  C345  1  0.525700  0.101800  0.921250  1.0
  C  C346  1  0.474300  0.898200  0.421250  1.0
  C  C347  1  0.025700  0.398200  0.828750  1.0
  C  C348  1  0.974300  0.601800  0.328750  1.0
  C  C349  1  0.898200  0.474300  0.578750  1.0
  C  C350  1  0.101800  0.525700  0.078750  1.0
  C  C351  1  0.601800  0.974300  0.671250  1.0
  C  C352  1  0.398200  0.025700  0.171250  1.0
  C  C353  1  0.626200  0.106400  0.929240  1.0
  C  C354  1  0.373800  0.893600  0.429240  1.0
  C  C355  1  0.126200  0.393600  0.820760  1.0
  C  C356  1  0.873800  0.606400  0.320760  1.0
  C  C357  1  0.893600  0.373800  0.570760  1.0
  C  C358  1  0.106400  0.626200  0.070760  1.0
  C  C359  1  0.606400  0.873800  0.679240  1.0
  C  C360  1  0.393600  0.126200  0.179240  1.0
  C  C361  1  0.656400  0.138500  0.962530  1.0
  C  C362  1  0.343600  0.861500  0.462530  1.0
  C  C363  1  0.156400  0.361500  0.787470  1.0
  C  C364  1  0.843600  0.638500  0.287470  1.0
  C  C365  1  0.861500  0.343600  0.537470  1.0
  C  C366  1  0.138500  0.656400  0.037470  1.0
  C  C367  1  0.638500  0.843600  0.712530  1.0
  C  C368  1  0.361500  0.156400  0.212530  1.0
  C  C369  1  0.757800  0.141800  0.970700  1.0
  C  C370  1  0.242200  0.858200  0.470700  1.0
  C  C371  1  0.257800  0.358200  0.779300  1.0
  C  C372  1  0.742200  0.641800  0.279300  1.0
  C  C373  1  0.858200  0.242200  0.529300  1.0
  C  C374  1  0.141800  0.757800  0.029300  1.0
  C  C375  1  0.641800  0.742200  0.720700  1.0
  C  C376  1  0.358200  0.257800  0.220700  1.0
  C  C377  1  0.825200  0.112600  0.946260  1.0
  C  C378  1  0.174800  0.887400  0.446260  1.0
  C  C379  1  0.325200  0.387400  0.803740  1.0
  C  C380  1  0.674800  0.612600  0.303740  1.0
  C  C381  1  0.887400  0.174800  0.553740  1.0
  C  C382  1  0.112600  0.825200  0.053740  1.0
  C  C383  1  0.612600  0.674800  0.696260  1.0
  C  C384  1  0.387400  0.325200  0.196260  1.0
  C  C385  1  0.796000  0.084900  0.912510  1.0
  C  C386  1  0.204000  0.915100  0.412510  1.0
  C  C387  1  0.296000  0.415100  0.837490  1.0
  C  C388  1  0.704000  0.584900  0.337490  1.0
  C  C389  1  0.915100  0.204000  0.587490  1.0
  C  C390  1  0.084900  0.796000  0.087490  1.0
  C  C391  1  0.584900  0.704000  0.662510  1.0
  C  C392  1  0.415100  0.296000  0.162510  1.0
  C  C393  1  0.699700  0.080100  0.904130  1.0
  C  C394  1  0.300300  0.919900  0.404130  1.0
  C  C395  1  0.199700  0.419900  0.845870  1.0
  C  C396  1  0.800300  0.580100  0.345870  1.0
  C  C397  1  0.919900  0.300300  0.595870  1.0
  C  C398  1  0.080100  0.699700  0.095870  1.0
  C  C399  1  0.580100  0.800300  0.654130  1.0
  C  C400  1  0.419900  0.199700  0.154130  1.0
  C  C401  1  0.610100  0.208500  0.023430  1.0
  C  C402  1  0.389900  0.791500  0.523430  1.0
  C  C403  1  0.110100  0.291500  0.726570  1.0
  C  C404  1  0.889900  0.708500  0.226570  1.0
  C  C405  1  0.791500  0.389900  0.476570  1.0
  C  C406  1  0.208500  0.610100  0.976570  1.0
  C  C407  1  0.708500  0.889900  0.773430  1.0
  C  C408  1  0.291500  0.110100  0.273430  1.0
  C  C409  1  0.615100  0.306500  0.029710  1.0
  C  C410  1  0.384900  0.693500  0.529710  1.0
  C  C411  1  0.115100  0.193500  0.720290  1.0
  C  C412  1  0.884900  0.806500  0.220290  1.0
  C  C413  1  0.693500  0.384900  0.470290  1.0
  C  C414  1  0.306500  0.615100  0.970290  1.0
  C  C415  1  0.806500  0.884900  0.779710  1.0
  C  C416  1  0.193500  0.115100  0.279710  1.0
  C  C417  1  0.631200  0.341200  0.064220  1.0
  C  C418  1  0.368800  0.658800  0.564220  1.0
  C  C419  1  0.131200  0.158800  0.685780  1.0
  C  C420  1  0.868800  0.841200  0.185780  1.0
  C  C421  1  0.658800  0.368800  0.435780  1.0
  C  C422  1  0.341200  0.631200  0.935780  1.0
  C  C423  1  0.841200  0.868800  0.814220  1.0
  C  C424  1  0.158800  0.131200  0.314220  1.0
  C  C425  1  0.646600  0.279800  0.091630  1.0
  C  C426  1  0.353400  0.720200  0.591630  1.0
  C  C427  1  0.146600  0.220200  0.658370  1.0
  C  C428  1  0.853400  0.779800  0.158370  1.0
  C  C429  1  0.720200  0.353400  0.408370  1.0
  C  C430  1  0.279800  0.646600  0.908370  1.0
  C  C431  1  0.779800  0.853400  0.841630  1.0
  C  C432  1  0.220200  0.146600  0.341630  1.0
  C  C433  1  0.643700  0.176800  0.086580  1.0
  C  C434  1  0.356300  0.823200  0.586580  1.0
  C  C435  1  0.143700  0.323200  0.663420  1.0
  C  C436  1  0.856300  0.676800  0.163420  1.0
  C  C437  1  0.823200  0.356300  0.413420  1.0
  C  C438  1  0.176800  0.643700  0.913420  1.0
  C  C439  1  0.676800  0.856300  0.836580  1.0
  C  C440  1  0.323200  0.143700  0.336580  1.0
  C  C441  1  0.627200  0.141100  0.052170  1.0
  C  C442  1  0.372800  0.858900  0.552170  1.0
  C  C443  1  0.127200  0.358900  0.697830  1.0
  C  C444  1  0.872800  0.641100  0.197830  1.0
  C  C445  1  0.858900  0.372800  0.447830  1.0
  C  C446  1  0.141100  0.627200  0.947830  1.0
  C  C447  1  0.641100  0.872800  0.802170  1.0
  C  C448  1  0.358900  0.127200  0.302170  1.0
  C  C449  1  0.627000  0.037200  0.047030  1.0
  C  C450  1  0.373000  0.962800  0.547030  1.0
  C  C451  1  0.127000  0.462800  0.702970  1.0
  C  C452  1  0.873000  0.537200  0.202970  1.0
  C  C453  1  0.962800  0.373000  0.452970  1.0
  C  C454  1  0.037200  0.627000  0.952970  1.0
  C  C455  1  0.537200  0.873000  0.797030  1.0
  C  C456  1  0.462800  0.127000  0.297030  1.0
  C  C457  1  0.639800  0.975900  0.074890  1.0
  C  C458  1  0.360200  0.024100  0.574890  1.0
  C  C459  1  0.139800  0.524100  0.675110  1.0
  C  C460  1  0.860200  0.475900  0.175110  1.0
  C  C461  1  0.024100  0.360200  0.425110  1.0
  C  C462  1  0.975900  0.639800  0.925110  1.0
  C  C463  1  0.475900  0.860200  0.824890  1.0
  C  C464  1  0.524100  0.139800  0.324890  1.0
  C  C465  1  0.654400  0.015800  0.110130  1.0
  C  C466  1  0.345600  0.984200  0.610130  1.0
  C  C467  1  0.154400  0.484200  0.639870  1.0
  C  C468  1  0.845600  0.515800  0.139870  1.0
  C  C469  1  0.984200  0.345600  0.389870  1.0
  C  C470  1  0.015800  0.654400  0.889870  1.0
  C  C471  1  0.515800  0.845600  0.860130  1.0
  C  C472  1  0.484200  0.154400  0.360130  1.0
  C  C473  1  0.658400  0.114500  0.115060  1.0
  C  C474  1  0.341600  0.885500  0.615060  1.0
  C  C475  1  0.158400  0.385500  0.634940  1.0
  C  C476  1  0.841600  0.614500  0.134940  1.0
  C  C477  1  0.885500  0.341600  0.384940  1.0
  C  C478  1  0.114500  0.658400  0.884940  1.0
  C  C479  1  0.614500  0.841600  0.865060  1.0
  C  C480  1  0.385500  0.158400  0.365060  1.0
  C  C481  1  0.248600  0.177100  0.058810  1.0
  C  C482  1  0.751400  0.822900  0.558810  1.0
  C  C483  1  0.748600  0.322900  0.691190  1.0
  C  C484  1  0.251400  0.677100  0.191190  1.0
  C  C485  1  0.822900  0.751400  0.441190  1.0
  C  C486  1  0.177100  0.248600  0.941190  1.0
  C  C487  1  0.677100  0.251400  0.808810  1.0
  C  C488  1  0.322900  0.748600  0.308810  1.0
  C  C489  1  0.322300  0.105700  0.053360  1.0
  C  C490  1  0.677700  0.894300  0.553360  1.0
  C  C491  1  0.822300  0.394300  0.696640  1.0
  C  C492  1  0.177700  0.605700  0.196640  1.0
  C  C493  1  0.894300  0.677700  0.446640  1.0
  C  C494  1  0.105700  0.322300  0.946640  1.0
  C  C495  1  0.605700  0.177700  0.803360  1.0
  C  C496  1  0.394300  0.822300  0.303360  1.0
  C  C497  1  0.323400  0.022500  0.074820  1.0
  C  C498  1  0.676600  0.977500  0.574820  1.0
  C  C499  1  0.823400  0.477500  0.675180  1.0
  C  C500  1  0.176600  0.522500  0.175180  1.0
  C  C501  1  0.977500  0.676600  0.425180  1.0
  C  C502  1  0.022500  0.323400  0.925180  1.0
  C  C503  1  0.522500  0.176600  0.824820  1.0
  C  C504  1  0.477500  0.823400  0.324820  1.0
  C  C505  1  0.255900  0.006500  0.100500  1.0
  C  C506  1  0.744100  0.993500  0.600500  1.0
  C  C507  1  0.755900  0.493500  0.649500  1.0
  C  C508  1  0.244100  0.506500  0.149500  1.0
  C  C509  1  0.993500  0.744100  0.399500  1.0
  C  C510  1  0.006500  0.255900  0.899500  1.0
  C  C511  1  0.506500  0.244100  0.850500  1.0
  C  C512  1  0.493500  0.755900  0.350500  1.0
  C  C513  1  0.184000  0.076600  0.106070  1.0
  C  C514  1  0.816000  0.923400  0.606070  1.0
  C  C515  1  0.684000  0.423400  0.643930  1.0
  C  C516  1  0.316000  0.576600  0.143930  1.0
  C  C517  1  0.923400  0.816000  0.393930  1.0
  C  C518  1  0.076600  0.184000  0.893930  1.0
  C  C519  1  0.576600  0.316000  0.856070  1.0
  C  C520  1  0.423400  0.684000  0.356070  1.0
  C  C521  1  0.181700  0.159000  0.085830  1.0
  C  C522  1  0.818300  0.841000  0.585830  1.0
  C  C523  1  0.681700  0.341000  0.664170  1.0
  C  C524  1  0.318300  0.659000  0.164170  1.0
  C  C525  1  0.841000  0.818300  0.414170  1.0
  C  C526  1  0.159000  0.181700  0.914170  1.0
  C  C527  1  0.659000  0.318300  0.835830  1.0
  C  C528  1  0.341000  0.681700  0.335830  1.0
  C  C529  1  0.619100  0.519400  0.941230  1.0
  C  C530  1  0.380900  0.480600  0.441230  1.0
  C  C531  1  0.119100  0.980600  0.808770  1.0
  C  C532  1  0.880900  0.019400  0.308770  1.0
  C  C533  1  0.480600  0.380900  0.558770  1.0
  C  C534  1  0.519400  0.619100  0.058770  1.0
  C  C535  1  0.019400  0.880900  0.691230  1.0
  C  C536  1  0.980600  0.119100  0.191230  1.0
  C  C537  1  0.682100  0.439200  0.947950  1.0
  C  C538  1  0.317900  0.560800  0.447950  1.0
  C  C539  1  0.182100  0.060800  0.802050  1.0
  C  C540  1  0.817900  0.939200  0.302050  1.0
  C  C541  1  0.560800  0.317900  0.552050  1.0
  C  C542  1  0.439200  0.682100  0.052050  1.0
  C  C543  1  0.939200  0.817900  0.697950  1.0
  C  C544  1  0.060800  0.182100  0.197950  1.0
  C  C545  1  0.759400  0.421200  0.924360  1.0
  C  C546  1  0.240600  0.578800  0.424360  1.0
  C  C547  1  0.259400  0.078800  0.825640  1.0
  C  C548  1  0.740600  0.921200  0.325640  1.0
  C  C549  1  0.578800  0.240600  0.575640  1.0
  C  C550  1  0.421200  0.759400  0.075640  1.0
  C  C551  1  0.921200  0.740600  0.674360  1.0
  C  C552  1  0.078800  0.259400  0.174360  1.0
  C  C553  1  0.779000  0.476900  0.896340  1.0
  C  C554  1  0.221000  0.523100  0.396340  1.0
  C  C555  1  0.279000  0.023100  0.853660  1.0
  C  C556  1  0.721000  0.976900  0.353660  1.0
  C  C557  1  0.523100  0.221000  0.603660  1.0
  C  C558  1  0.476900  0.779000  0.103660  1.0
  C  C559  1  0.976900  0.721000  0.646340  1.0
  C  C560  1  0.023100  0.279000  0.146340  1.0
  C  C561  1  0.717300  0.556800  0.889690  1.0
  C  C562  1  0.282700  0.443200  0.389690  1.0
  C  C563  1  0.217300  0.943200  0.860310  1.0
  C  C564  1  0.782700  0.056800  0.360310  1.0
  C  C565  1  0.443200  0.282700  0.610310  1.0
  C  C566  1  0.556800  0.717300  0.110310  1.0
  C  C567  1  0.056800  0.782700  0.639690  1.0
  C  C568  1  0.943200  0.217300  0.139690  1.0
  C  C569  1  0.640700  0.578400  0.911140  1.0
  C  C570  1  0.359300  0.421600  0.411140  1.0
  C  C571  1  0.140700  0.921600  0.838860  1.0
  C  C572  1  0.859300  0.078400  0.338860  1.0
  C  C573  1  0.421600  0.359300  0.588860  1.0
  C  C574  1  0.578400  0.640700  0.088860  1.0
  C  C575  1  0.078400  0.859300  0.661140  1.0
  C  C576  1  0.921600  0.140700  0.161140  1.0
  C  C577  1  0.395000  0.112400  0.026210  1.0
  C  C578  1  0.605000  0.887600  0.526210  1.0
  C  C579  1  0.895000  0.387600  0.723790  1.0
  C  C580  1  0.105000  0.612400  0.223790  1.0
  C  C581  1  0.887600  0.605000  0.473790  1.0
  C  C582  1  0.112400  0.395000  0.973790  1.0
  C  C583  1  0.612400  0.105000  0.776210  1.0
  C  C584  1  0.387600  0.895000  0.276210  1.0
  C  C585  1  0.671800  0.376000  0.978560  1.0
  C  C586  1  0.328200  0.624000  0.478560  1.0
  C  C587  1  0.171800  0.124000  0.771440  1.0
  C  C588  1  0.828200  0.876000  0.271440  1.0
  C  C589  1  0.624000  0.328200  0.521440  1.0
  C  C590  1  0.376000  0.671800  0.021440  1.0
  C  C591  1  0.876000  0.828200  0.728560  1.0
  C  C592  1  0.124000  0.171800  0.228560  1.0
  C  C593  1  0.402000  0.384200  0.931310  1.0
  C  C594  1  0.598000  0.615800  0.431310  1.0
  C  C595  1  0.902000  0.115800  0.818690  1.0
  C  C596  1  0.098000  0.884200  0.318690  1.0
  C  C597  1  0.615800  0.598000  0.568690  1.0
  C  C598  1  0.384200  0.402000  0.068690  1.0
  C  C599  1  0.884200  0.098000  0.681310  1.0
  C  C600  1  0.115800  0.902000  0.181310  1.0
  N  N601  1  0.408200  0.183000  0.003820  1.0
  N  N602  1  0.591800  0.817000  0.503820  1.0
  N  N603  1  0.908200  0.317000  0.746180  1.0
  N  N604  1  0.091800  0.683000  0.246180  1.0
  N  N605  1  0.817000  0.591800  0.496180  1.0
  N  N606  1  0.183000  0.408200  0.996180  1.0
  N  N607  1  0.683000  0.091800  0.753820  1.0
  N  N608  1  0.317000  0.908200  0.253820  1.0
  N  N609  1  0.602100  0.376500  0.001720  1.0
  N  N610  1  0.397900  0.623500  0.501720  1.0
  N  N611  1  0.102100  0.123500  0.748280  1.0
  N  N612  1  0.897900  0.876500  0.248280  1.0
  N  N613  1  0.623500  0.397900  0.498280  1.0
  N  N614  1  0.376500  0.602100  0.998280  1.0
  N  N615  1  0.876500  0.897900  0.751720  1.0
  N  N616  1  0.123500  0.102100  0.251720  1.0
  O  O617  1  0.167400  0.914200  0.954100  1
  O  O618  1  0.832600  0.085800  0.454100  1
  O  O619  1  0.667400  0.585800  0.795900  1
  O  O620  1  0.332600  0.414200  0.295900  1
  O  O621  1  0.085800  0.832600  0.545900  1
  O  O622  1  0.914200  0.167400  0.045900  1
  O  O623  1  0.414200  0.332600  0.704100  1
  O  O624  1  0.585800  0.667400  0.204100  1
  O  O625  1  0.819100  0.637000  0.030900  1
  O  O626  1  0.180900  0.363000  0.530900  1
  O  O627  1  0.319100  0.863000  0.719100  1
  O  O628  1  0.680900  0.137000  0.219100  1
  O  O629  1  0.363000  0.180900  0.469100  1
  O  O630  1  0.637000  0.819100  0.969100  1
  O  O631  1  0.137000  0.680900  0.780900  1
  O  O632  1  0.863000  0.319100  0.280900  1
  O  O633  1  0.776100  0.697000  0.004000  1
  O  O634  1  0.223900  0.303000  0.504000  1
  O  O635  1  0.276100  0.803000  0.746000  1
  O  O636  1  0.723900  0.197000  0.246000  1
  O  O637  1  0.303000  0.223900  0.496000  1
  O  O638  1  0.697000  0.776100  0.996000  1
  O  O639  1  0.197000  0.723900  0.754000  1
  O  O640  1  0.803000  0.276100  0.254000  1
  O  O641  1  0.239800  0.255600  0.038590  1.0
  O  O642  1  0.760200  0.744400  0.538590  1.0
  O  O643  1  0.739800  0.244400  0.711410  1.0
  O  O644  1  0.260200  0.755600  0.211410  1.0
  O  O645  1  0.744400  0.760200  0.461410  1.0
  O  O646  1  0.255600  0.239800  0.961410  1.0
  O  O647  1  0.755600  0.260200  0.788590  1.0
  O  O648  1  0.244400  0.739800  0.288590  1.0
  O  O649  1  0.546100  0.542900  0.961540  1.0
  O  O650  1  0.453900  0.457100  0.461540  1.0
  O  O651  1  0.046100  0.957100  0.788460  1.0
  O  O652  1  0.953900  0.042900  0.288460  1.0
  O  O653  1  0.457100  0.453900  0.538460  1.0
  O  O654  1  0.542900  0.546100  0.038460  1.0
  O  O655  1  0.042900  0.953900  0.711540  1.0
  O  O656  1  0.957100  0.046100  0.211540  1.0
  O  O657  1  0.398400  0.391600  0.968590  1.0
  O  O658  1  0.601600  0.608400  0.468590  1.0
  O  O659  1  0.898400  0.108400  0.781410  1.0
  O  O660  1  0.101600  0.891600  0.281410  1.0
  O  O661  1  0.608400  0.601600  0.531410  1.0
  O  O662  1  0.391600  0.398400  0.031410  1.0
  O  O663  1  0.891600  0.101600  0.718590  1.0
  O  O664  1  0.108400  0.898400  0.218590  1.0
