# generated using pymatgen
data_Cu2H21C33(NO3)3
_symmetry_space_group_name_H-M   'P 1'
_cell_length_a   23.20341154
_cell_length_b   23.20341154
_cell_length_c   23.20341154
_cell_angle_alpha   66.05310123
_cell_angle_beta   66.05310123
_cell_angle_gamma   66.05310123
_symmetry_Int_Tables_number   1
_chemical_formula_structural   Cu2H21C33(NO3)3
_chemical_formula_sum   'Cu12 H126 C198 N18 O54'
_cell_volume   9990.22382492
_cell_formula_units_Z   6
loop_
 _symmetry_equiv_pos_site_id
 _symmetry_equiv_pos_as_xyz
  1  'x, y, z'
loop_
 _atom_site_type_symbol
 _atom_site_label
 _atom_site_symmetry_multiplicity
 _atom_site_fract_x
 _atom_site_fract_y
 _atom_site_fract_z
 _atom_site_occupancy
  C  C1  1  0.585750  0.074550  0.659050  1.0
  C  C2  1  0.659050  0.585750  0.074550  1.0
  C  C3  1  0.074550  0.659050  0.585750  1.0
  C  C4  1  0.414250  0.925450  0.340950  1.0
  C  C5  1  0.340950  0.414250  0.925450  1.0
  C  C6  1  0.925450  0.340950  0.414250  1.0
  C  C7  1  0.580830  0.058730  0.728330  1.0
  C  C8  1  0.728330  0.580830  0.058730  1.0
  C  C9  1  0.058730  0.728330  0.580830  1.0
  C  C10  1  0.419170  0.941270  0.271670  1.0
  C  C11  1  0.271670  0.419170  0.941270  1.0
  C  C12  1  0.941270  0.271670  0.419170  1.0
  C  C13  1  0.596300  0.991000  0.767300  1.0
  C  C14  1  0.767300  0.596300  0.991000  1.0
  C  C15  1  0.991000  0.767300  0.596300  1.0
  C  C16  1  0.403700  0.009000  0.232700  1.0
  C  C17  1  0.232700  0.403700  0.009000  1.0
  C  C18  1  0.009000  0.232700  0.403700  1.0
  C  C19  1  0.591760  0.973360  0.831660  1.0
  C  C20  1  0.831660  0.591760  0.973360  1.0
  C  C21  1  0.973360  0.831660  0.591760  1.0
  C  C22  1  0.408240  0.026640  0.168340  1.0
  C  C23  1  0.168340  0.408240  0.026640  1.0
  C  C24  1  0.026640  0.168340  0.408240  1.0
  C  C25  1  0.572490  0.020790  0.860290  1.0
  C  C26  1  0.860290  0.572490  0.020790  1.0
  C  C27  1  0.020790  0.860290  0.572490  1.0
  C  C28  1  0.427510  0.979210  0.139710  1.0
  C  C29  1  0.139710  0.427510  0.979210  1.0
  C  C30  1  0.979210  0.139710  0.427510  1.0
  C  C31  1  0.556790  0.092190  0.824390  1.0
  C  C32  1  0.824390  0.556790  0.092190  1.0
  C  C33  1  0.092190  0.824390  0.556790  1.0
  C  C34  1  0.443210  0.907810  0.175610  1.0
  C  C35  1  0.175610  0.443210  0.907810  1.0
  C  C36  1  0.907810  0.175610  0.443210  1.0
  C  C37  1  0.559840  0.107540  0.758140  1.0
  C  C38  1  0.758140  0.559840  0.107540  1.0
  C  C39  1  0.107540  0.758140  0.559840  1.0
  C  C40  1  0.440160  0.892460  0.241860  1.0
  C  C41  1  0.241860  0.440160  0.892460  1.0
  C  C42  1  0.892460  0.241860  0.440160  1.0
  C  C43  1  0.521080  0.192380  0.865480  1.0
  C  C44  1  0.865480  0.521080  0.192380  1.0
  C  C45  1  0.192380  0.865480  0.521080  1.0
  C  C46  1  0.478920  0.807620  0.134520  1.0
  C  C47  1  0.134520  0.478920  0.807620  1.0
  C  C48  1  0.807620  0.134520  0.478920  1.0
  C  C49  1  0.539770  0.126870  0.869670  1.0
  C  C50  1  0.869670  0.539770  0.126870  1.0
  C  C51  1  0.126870  0.869670  0.539770  1.0
  C  C52  1  0.460230  0.873130  0.130330  1.0
  C  C53  1  0.130330  0.460230  0.873130  1.0
  C  C54  1  0.873130  0.130330  0.460230  1.0
  C  C55  1  0.546490  0.078790  0.930890  1.0
  C  C56  1  0.930890  0.546490  0.078790  1.0
  C  C57  1  0.078790  0.930890  0.546490  1.0
  C  C58  1  0.453510  0.921210  0.069110  1.0
  C  C59  1  0.069110  0.453510  0.921210  1.0
  C  C60  1  0.921210  0.069110  0.453510  1.0
  C  C61  1  0.535220  0.097720  0.985720  1.0
  C  C62  1  0.985720  0.535220  0.097720  1.0
  C  C63  1  0.097720  0.985720  0.535220  1.0
  C  C64  1  0.464780  0.902280  0.014280  1.0
  C  C65  1  0.014280  0.464780  0.902280  1.0
  C  C66  1  0.902280  0.014280  0.464780  1.0
  C  C67  1  0.516660  0.161260  0.978660  1.0
  C  C68  1  0.978660  0.516660  0.161260  1.0
  C  C69  1  0.161260  0.978660  0.516660  1.0
  C  C70  1  0.483340  0.838740  0.021340  1.0
  C  C71  1  0.021340  0.483340  0.838740  1.0
  C  C72  1  0.838740  0.021340  0.483340  1.0
  C  C73  1  0.510410  0.210310  0.918610  1.0
  C  C74  1  0.918610  0.510410  0.210310  1.0
  C  C75  1  0.210310  0.918610  0.510410  1.0
  C  C76  1  0.489590  0.789690  0.081390  1.0
  C  C77  1  0.081390  0.489590  0.789690  1.0
  C  C78  1  0.789690  0.081390  0.489590  1.0
  C  C79  1  0.716700  0.085900  0.508800  1.0
  C  C80  1  0.508800  0.716700  0.085900  1.0
  C  C81  1  0.085900  0.508800  0.716700  1.0
  C  C82  1  0.283300  0.914100  0.491200  1.0
  C  C83  1  0.491200  0.283300  0.914100  1.0
  C  C84  1  0.914100  0.491200  0.283300  1.0
  C  C85  1  0.475070  0.115670  0.565470  1.0
  C  C86  1  0.565470  0.475070  0.115670  1.0
  C  C87  1  0.115670  0.565470  0.475070  1.0
  C  C88  1  0.524930  0.884330  0.434530  1.0
  C  C89  1  0.434530  0.524930  0.884330  1.0
  C  C90  1  0.884330  0.434530  0.524930  1.0
  C  C91  1  0.403270  0.123770  0.578170  1.0
  C  C92  1  0.578170  0.403270  0.123770  1.0
  C  C93  1  0.123770  0.578170  0.403270  1.0
  C  C94  1  0.596730  0.876230  0.421830  1.0
  C  C95  1  0.421830  0.596730  0.876230  1.0
  C  C96  1  0.876230  0.421830  0.596730  1.0
  C  C97  1  0.386850  0.070150  0.586650  1.0
  C  C98  1  0.586650  0.386850  0.070150  1.0
  C  C99  1  0.070150  0.586650  0.386850  1.0
  C  C100  1  0.613150  0.929850  0.413350  1.0
  C  C101  1  0.413350  0.613150  0.929850  1.0
  C  C102  1  0.929850  0.413350  0.613150  1.0
  C  C103  1  0.319960  0.073860  0.597060  1.0
  C  C104  1  0.597060  0.319960  0.073860  1.0
  C  C105  1  0.073860  0.597060  0.319960  1.0
  C  C106  1  0.680040  0.926140  0.402940  1.0
  C  C107  1  0.402940  0.680040  0.926140  1.0
  C  C108  1  0.926140  0.402940  0.680040  1.0
  C  C109  1  0.272360  0.135360  0.603260  1.0
  C  C110  1  0.603260  0.272360  0.135360  1.0
  C  C111  1  0.135360  0.603260  0.272360  1.0
  C  C112  1  0.727640  0.864640  0.396740  1.0
  C  C113  1  0.396740  0.727640  0.864640  1.0
  C  C114  1  0.864640  0.396740  0.727640  1.0
  C  C115  1  0.291180  0.189780  0.595480  1.0
  C  C116  1  0.595480  0.291180  0.189780  1.0
  C  C117  1  0.189780  0.595480  0.291180  1.0
  C  C118  1  0.708820  0.810220  0.404520  1.0
  C  C119  1  0.404520  0.708820  0.810220  1.0
  C  C120  1  0.810220  0.404520  0.708820  1.0
  C  C121  1  0.357160  0.182360  0.582160  1.0
  C  C122  1  0.582160  0.357160  0.182360  1.0
  C  C123  1  0.182360  0.582160  0.357160  1.0
  C  C124  1  0.642840  0.817640  0.417840  1.0
  C  C125  1  0.417840  0.642840  0.817640  1.0
  C  C126  1  0.817640  0.417840  0.642840  1.0
  C  C127  1  0.214820  0.308420  0.597420  1.0
  C  C128  1  0.597420  0.214820  0.308420  1.0
  C  C129  1  0.308420  0.597420  0.214820  1.0
  C  C130  1  0.785180  0.691580  0.402580  1.0
  C  C131  1  0.402580  0.785180  0.691580  1.0
  C  C132  1  0.691580  0.402580  0.785180  1.0
  C  C133  1  0.230690  0.243690  0.602690  1.0
  C  C134  1  0.602690  0.230690  0.243690  1.0
  C  C135  1  0.243690  0.602690  0.230690  1.0
  C  C136  1  0.769310  0.756310  0.397310  1.0
  C  C137  1  0.397310  0.769310  0.756310  1.0
  C  C138  1  0.756310  0.397310  0.769310  1.0
  C  C139  1  0.180240  0.215740  0.614940  1.0
  C  C140  1  0.614940  0.180240  0.215740  1.0
  C  C141  1  0.215740  0.614940  0.180240  1.0
  C  C142  1  0.819760  0.784260  0.385060  1.0
  C  C143  1  0.385060  0.819760  0.784260  1.0
  C  C144  1  0.784260  0.385060  0.819760  1.0
  C  C145  1  0.113470  0.254070  0.626070  1.0
  C  C146  1  0.626070  0.113470  0.254070  1.0
  C  C147  1  0.254070  0.626070  0.113470  1.0
  C  C148  1  0.886530  0.745930  0.373930  1.0
  C  C149  1  0.373930  0.886530  0.745930  1.0
  C  C150  1  0.745930  0.373930  0.886530  1.0
  C  C151  1  0.101210  0.319210  0.622510  1.0
  C  C152  1  0.622510  0.101210  0.319210  1.0
  C  C153  1  0.319210  0.622510  0.101210  1.0
  C  C154  1  0.898790  0.680790  0.377490  1.0
  C  C155  1  0.377490  0.898790  0.680790  1.0
  C  C156  1  0.680790  0.377490  0.898790  1.0
  C  C157  1  0.150350  0.347450  0.607050  1.0
  C  C158  1  0.607050  0.150350  0.347450  1.0
  C  C159  1  0.347450  0.607050  0.150350  1.0
  C  C160  1  0.849650  0.652550  0.392950  1.0
  C  C161  1  0.392950  0.849650  0.652550  1.0
  C  C162  1  0.652550  0.392950  0.849650  1.0
  C  C163  1  0.603240  0.131740  0.417540  1.0
  C  C164  1  0.417540  0.603240  0.131740  1.0
  C  C165  1  0.131740  0.417540  0.603240  1.0
  C  C166  1  0.396760  0.868260  0.582460  1.0
  C  C167  1  0.582460  0.396760  0.868260  1.0
  C  C168  1  0.868260  0.582460  0.396760  1.0
  C  C169  1  0.582010  0.912710  0.571610  1.0
  C  C170  1  0.571610  0.582010  0.912710  1.0
  C  C171  1  0.912710  0.571610  0.582010  1.0
  C  C172  1  0.417990  0.087290  0.428390  1.0
  C  C173  1  0.428390  0.417990  0.087290  1.0
  C  C174  1  0.087290  0.428390  0.417990  1.0
  C  C175  1  0.587800  0.843700  0.584400  1.0
  C  C176  1  0.584400  0.587800  0.843700  1.0
  C  C177  1  0.843700  0.584400  0.587800  1.0
  C  C178  1  0.412200  0.156300  0.415600  1.0
  C  C179  1  0.415600  0.412200  0.156300  1.0
  C  C180  1  0.156300  0.415600  0.412200  1.0
  C  C181  1  0.649720  0.802320  0.585220  1.0
  C  C182  1  0.585220  0.649720  0.802320  1.0
  C  C183  1  0.802320  0.585220  0.649720  1.0
  C  C184  1  0.350280  0.197680  0.414780  1.0
  C  C185  1  0.414780  0.350280  0.197680  1.0
  C  C186  1  0.197680  0.414780  0.350280  1.0
  C  C187  1  0.702790  0.825190  0.574290  1.0
  C  C188  1  0.574290  0.702790  0.825190  1.0
  C  C189  1  0.825190  0.574290  0.702790  1.0
  C  C190  1  0.297210  0.174810  0.425710  1.0
  C  C191  1  0.425710  0.297210  0.174810  1.0
  C  C192  1  0.174810  0.425710  0.297210  1.0
  C  C193  1  0.686170  0.893770  0.562170  1.0
  C  C194  1  0.562170  0.686170  0.893770  1.0
  C  C195  1  0.893770  0.562170  0.686170  1.0
  C  C196  1  0.313830  0.106230  0.437830  1.0
  C  C197  1  0.437830  0.313830  0.106230  1.0
  C  C198  1  0.106230  0.437830  0.313830  1.0
  Cu  Cu199  1  0.609969  0.039159  0.543529  1.0
  Cu  Cu200  1  0.543529  0.609969  0.039159  1.0
  Cu  Cu201  1  0.039159  0.543529  0.609969  1.0
  Cu  Cu202  1  0.390031  0.960841  0.456471  1.0
  Cu  Cu203  1  0.456471  0.390031  0.960841  1.0
  Cu  Cu204  1  0.960841  0.456471  0.390031  1.0
  Cu  Cu205  1  0.581152  0.164872  0.532052  1.0
  Cu  Cu206  1  0.532052  0.581152  0.164872  1.0
  Cu  Cu207  1  0.164872  0.532052  0.581152  1.0
  Cu  Cu208  1  0.418848  0.835128  0.467948  1.0
  Cu  Cu209  1  0.467948  0.418848  0.835128  1.0
  Cu  Cu210  1  0.835128  0.467948  0.418848  1.0
  H  H211  1  0.576300  0.980800  0.955300  1.0
  H  H212  1  0.955300  0.576300  0.980800  1.0
  H  H213  1  0.980800  0.955300  0.576300  1.0
  H  H214  1  0.423700  0.019200  0.044700  1.0
  H  H215  1  0.044700  0.423700  0.019200  1.0
  H  H216  1  0.019200  0.044700  0.423700  1.0
  H  H217  1  0.184900  0.124800  0.618900  1.0
  H  H218  1  0.618900  0.184900  0.124800  1.0
  H  H219  1  0.124800  0.618900  0.184900  1.0
  H  H220  1  0.815100  0.875200  0.381100  1.0
  H  H221  1  0.381100  0.815100  0.875200  1.0
  H  H222  1  0.875200  0.381100  0.815100  1.0
  H  H223  1  0.610000  0.957800  0.747200  1.0
  H  H224  1  0.747200  0.610000  0.957800  1.0
  H  H225  1  0.957800  0.747200  0.610000  1.0
  H  H226  1  0.390000  0.042200  0.252800  1.0
  H  H227  1  0.252800  0.390000  0.042200  1.0
  H  H228  1  0.042200  0.252800  0.390000  1.0
  H  H229  1  0.601900  0.928700  0.856100  1.0
  H  H230  1  0.856100  0.601900  0.928700  1.0
  H  H231  1  0.928700  0.856100  0.601900  1.0
  H  H232  1  0.398100  0.071300  0.143900  1.0
  H  H233  1  0.143900  0.398100  0.071300  1.0
  H  H234  1  0.071300  0.143900  0.398100  1.0
  H  H235  1  0.547300  0.152000  0.733600  1.0
  H  H236  1  0.733600  0.547300  0.152000  1.0
  H  H237  1  0.152000  0.733600  0.547300  1.0
  H  H238  1  0.452700  0.848000  0.266400  1.0
  H  H239  1  0.266400  0.452700  0.848000  1.0
  H  H240  1  0.848000  0.266400  0.452700  1.0
  H  H241  1  0.515500  0.224800  0.825800  1.0
  H  H242  1  0.825800  0.515500  0.224800  1.0
  H  H243  1  0.224800  0.825800  0.515500  1.0
  H  H244  1  0.484500  0.775200  0.174200  1.0
  H  H245  1  0.174200  0.484500  0.775200  1.0
  H  H246  1  0.775200  0.174200  0.484500  1.0
  H  H247  1  0.540600  0.066300  0.025800  1.0
  H  H248  1  0.025800  0.540600  0.066300  1.0
  H  H249  1  0.066300  0.025800  0.540600  1.0
  H  H250  1  0.459400  0.933700  0.974200  1.0
  H  H251  1  0.974200  0.459400  0.933700  1.0
  H  H252  1  0.933700  0.974200  0.459400  1.0
  H  H253  1  0.507100  0.174700  0.015400  1.0
  H  H254  1  0.015400  0.507100  0.174700  1.0
  H  H255  1  0.174700  0.015400  0.507100  1.0
  H  H256  1  0.492900  0.825300  0.984600  1.0
  H  H257  1  0.984600  0.492900  0.825300  1.0
  H  H258  1  0.825300  0.984600  0.492900  1.0
  H  H259  1  0.419800  0.029900  0.585700  1.0
  H  H260  1  0.585700  0.419800  0.029900  1.0
  H  H261  1  0.029900  0.585700  0.419800  1.0
  H  H262  1  0.580200  0.970100  0.414300  1.0
  H  H263  1  0.414300  0.580200  0.970100  1.0
  H  H264  1  0.970100  0.414300  0.580200  1.0
  H  H265  1  0.308500  0.038200  0.599600  1.0
  H  H266  1  0.599600  0.308500  0.038200  1.0
  H  H267  1  0.038200  0.599600  0.308500  1.0
  H  H268  1  0.691500  0.961800  0.400400  1.0
  H  H269  1  0.400400  0.691500  0.961800  1.0
  H  H270  1  0.961800  0.400400  0.691500  1.0
  H  H271  1  0.370300  0.218400  0.575700  1.0
  H  H272  1  0.575700  0.370300  0.218400  1.0
  H  H273  1  0.218400  0.575700  0.370300  1.0
  H  H274  1  0.629700  0.781600  0.424300  1.0
  H  H275  1  0.424300  0.629700  0.781600  1.0
  H  H276  1  0.781600  0.424300  0.629700  1.0
  H  H277  1  0.248300  0.327000  0.587000  1.0
  H  H278  1  0.587000  0.248300  0.327000  1.0
  H  H279  1  0.327000  0.587000  0.248300  1.0
  H  H280  1  0.751700  0.673000  0.413000  1.0
  H  H281  1  0.413000  0.751700  0.673000  1.0
  H  H282  1  0.673000  0.413000  0.751700  1.0
  H  H283  1  0.079500  0.236600  0.635300  1.0
  H  H284  1  0.635300  0.079500  0.236600  1.0
  H  H285  1  0.236600  0.635300  0.079500  1.0
  H  H286  1  0.920500  0.763400  0.364700  1.0
  H  H287  1  0.364700  0.920500  0.763400  1.0
  H  H288  1  0.763400  0.364700  0.920500  1.0
  H  H289  1  0.057300  0.345600  0.631000  1.0
  H  H290  1  0.631000  0.057300  0.345600  1.0
  H  H291  1  0.345600  0.631000  0.057300  1.0
  H  H292  1  0.942700  0.654400  0.369000  1.0
  H  H293  1  0.369000  0.942700  0.654400  1.0
  H  H294  1  0.654400  0.369000  0.942700  1.0
  H  H295  1  0.540200  0.943300  0.572300  1.0
  H  H296  1  0.572300  0.540200  0.943300  1.0
  H  H297  1  0.943300  0.572300  0.540200  1.0
  H  H298  1  0.459800  0.056700  0.427700  1.0
  H  H299  1  0.427700  0.459800  0.056700  1.0
  H  H300  1  0.056700  0.427700  0.459800  1.0
  H  H301  1  0.552500  0.829100  0.591400  1.0
  H  H302  1  0.591400  0.552500  0.829100  1.0
  H  H303  1  0.829100  0.591400  0.552500  1.0
  H  H304  1  0.447500  0.170900  0.408600  1.0
  H  H305  1  0.408600  0.447500  0.170900  1.0
  H  H306  1  0.170900  0.408600  0.447500  1.0
  H  H307  1  0.657400  0.757100  0.593300  1.0
  H  H308  1  0.593300  0.657400  0.757100  1.0
  H  H309  1  0.757100  0.593300  0.657400  1.0
  H  H310  1  0.342600  0.242900  0.406700  1.0
  H  H311  1  0.406700  0.342600  0.242900  1.0
  H  H312  1  0.242900  0.406700  0.342600  1.0
  H  H313  1  0.745300  0.797000  0.575000  1.0
  H  H314  1  0.575000  0.745300  0.797000  1.0
  H  H315  1  0.797000  0.575000  0.745300  1.0
  H  H316  1  0.254700  0.203000  0.425000  1.0
  H  H317  1  0.425000  0.254700  0.203000  1.0
  H  H318  1  0.203000  0.425000  0.254700  1.0
  H  H319  1  0.719400  0.911100  0.555200  1.0
  H  H320  1  0.555200  0.719400  0.911100  1.0
  H  H321  1  0.911100  0.555200  0.719400  1.0
  H  H322  1  0.280600  0.088900  0.444800  1.0
  H  H323  1  0.444800  0.280600  0.088900  1.0
  H  H324  1  0.088900  0.444800  0.280600  1.0
  H  H325  1  0.524800  0.295100  0.515500  1.0
  H  H326  1  0.515500  0.524800  0.295100  1.0
  H  H327  1  0.295100  0.515500  0.524800  1.0
  H  H328  1  0.475200  0.704900  0.484500  1.0
  H  H329  1  0.484500  0.475200  0.704900  1.0
  H  H330  1  0.704900  0.484500  0.475200  1.0
  H  H331  1  0.587900  0.292800  0.497000  1.0
  H  H332  1  0.497000  0.587900  0.292800  1.0
  H  H333  1  0.292800  0.497000  0.587900  1.0
  H  H334  1  0.412100  0.707200  0.503000  1.0
  H  H335  1  0.503000  0.412100  0.707200  1.0
  H  H336  1  0.707200  0.503000  0.412100  1.0
  N  N337  1  0.567360  0.017260  0.924360  1.0
  N  N338  1  0.924360  0.567360  0.017260  1.0
  N  N339  1  0.017260  0.924360  0.567360  1.0
  N  N340  1  0.432640  0.982740  0.075640  1.0
  N  N341  1  0.075640  0.432640  0.982740  1.0
  N  N342  1  0.982740  0.075640  0.432640  1.0
  N  N343  1  0.206250  0.150650  0.613850  1.0
  N  N344  1  0.613850  0.206250  0.150650  1.0
  N  N345  1  0.150650  0.613850  0.206250  1.0
  N  N346  1  0.793750  0.849350  0.386150  1.0
  N  N347  1  0.386150  0.793750  0.849350  1.0
  N  N348  1  0.849350  0.386150  0.793750  1.0
  N  N349  1  0.629210  0.934330  0.559790  1.0
  N  N350  1  0.559790  0.629210  0.934330  1.0
  N  N351  1  0.934330  0.559790  0.629210  1.0
  N  N352  1  0.370790  0.065670  0.440210  1.0
  N  N353  1  0.440210  0.370790  0.065670  1.0
  N  N354  1  0.065670  0.440210  0.370790  1.0
  O  O355  1  0.602680  0.028210  0.635630  1.0
  O  O356  1  0.635630  0.602680  0.028210  1.0
  O  O357  1  0.028210  0.635630  0.602680  1.0
  O  O358  1  0.397320  0.971790  0.364370  1.0
  O  O359  1  0.364370  0.397320  0.971790  1.0
  O  O360  1  0.971790  0.364370  0.397320  1.0
  O  O361  1  0.571900  0.136210  0.627320  1.0
  O  O362  1  0.627320  0.571900  0.136210  1.0
  O  O363  1  0.136210  0.627320  0.571900  1.0
  O  O364  1  0.428100  0.863790  0.372680  1.0
  O  O365  1  0.372680  0.428100  0.863790  1.0
  O  O366  1  0.863790  0.372680  0.428100  1.0
  O  O367  1  0.702500  0.036530  0.516840  1.0
  O  O368  1  0.516840  0.702500  0.036530  1.0
  O  O369  1  0.036530  0.516840  0.702500  1.0
  O  O370  1  0.297500  0.963470  0.483160  1.0
  O  O371  1  0.483160  0.297500  0.963470  1.0
  O  O372  1  0.963470  0.483160  0.297500  1.0
  O  O373  1  0.675890  0.143140  0.514930  1.0
  O  O374  1  0.514930  0.675890  0.143140  1.0
  O  O375  1  0.143140  0.514930  0.675890  1.0
  O  O376  1  0.324110  0.856860  0.485070  1.0
  O  O377  1  0.485070  0.324110  0.856860  1.0
  O  O378  1  0.856860  0.485070  0.324110  1.0
  O  O379  1  0.514150  0.059020  0.567350  1.0
  O  O380  1  0.567350  0.514150  0.059020  1.0
  O  O381  1  0.059020  0.567350  0.514150  1.0
  O  O382  1  0.485850  0.940980  0.432650  1.0
  O  O383  1  0.432650  0.485850  0.940980  1.0
  O  O384  1  0.940980  0.432650  0.485850  1.0
  O  O385  1  0.489870  0.166950  0.552250  1.0
  O  O386  1  0.552250  0.489870  0.166950  1.0
  O  O387  1  0.166950  0.552250  0.489870  1.0
  O  O388  1  0.510130  0.833050  0.447750  1.0
  O  O389  1  0.447750  0.510130  0.833050  1.0
  O  O390  1  0.833050  0.447750  0.510130  1.0
  O  O391  1  0.612700  0.071460  0.448890  1.0
  O  O392  1  0.448890  0.612700  0.071460  1.0
  O  O393  1  0.071460  0.448890  0.612700  1.0
  O  O394  1  0.387300  0.928540  0.551110  1.0
  O  O395  1  0.551110  0.387300  0.928540  1.0
  O  O396  1  0.928540  0.551110  0.387300  1.0
  O  O397  1  0.592200  0.176690  0.439520  1.0
  O  O398  1  0.439520  0.592200  0.176690  1.0
  O  O399  1  0.176690  0.439520  0.592200  1.0
  O  O400  1  0.407800  0.823310  0.560480  1.0
  O  O401  1  0.560480  0.407800  0.823310  1.0
  O  O402  1  0.823310  0.560480  0.407800  1.0
  O  O403  1  0.561990  0.267990  0.517390  1.0
  O  O404  1  0.517390  0.561990  0.267990  1.0
  O  O405  1  0.267990  0.517390  0.561990  1.0
  O  O406  1  0.438010  0.732010  0.482610  1.0
  O  O407  1  0.482610  0.438010  0.732010  1.0
  O  O408  1  0.732010  0.482610  0.438010  1.0
