# generated using pymatgen
data_ZnH36C51SN9(OF)6
_symmetry_space_group_name_H-M   'P 1'
_cell_length_a   10.05430000
_cell_length_b   14.69200000
_cell_length_c   22.93000000
_cell_angle_alpha   102.03400000
_cell_angle_beta   99.12900000
_cell_angle_gamma   102.86300000
_symmetry_Int_Tables_number   1
_chemical_formula_structural   ZnH36C51SN9(OF)6
_chemical_formula_sum   'Zn2 H72 C102 S2 N18 O12 F12'
_cell_volume   3154.01732459
_cell_formula_units_Z   2
loop_
 _symmetry_equiv_pos_site_id
 _symmetry_equiv_pos_as_xyz
  1  'x, y, z'
loop_
 _atom_site_type_symbol
 _atom_site_label
 _atom_site_symmetry_multiplicity
 _atom_site_fract_x
 _atom_site_fract_y
 _atom_site_fract_z
 _atom_site_occupancy
  Zn  Zn1  1  0.162460  0.968560  0.162690  1.0
  Zn  Zn2  1  0.837540  0.031440  0.837310  1.0
  H  H3  1  0.810500  0.670500  0.324700  1
  H  H4  1  0.189500  0.329500  0.675300  1
  H  H5  1  0.767200  0.756400  0.366100  1
  H  H6  1  0.232800  0.243600  0.633900  1
  H  H7  1  0.928600  0.762300  0.367600  1
  H  H8  1  0.071400  0.237700  0.632400  1
  H  H9  1  0.103800  0.638400  0.043800  1
  H  H10  1  0.896200  0.361600  0.956200  1
  H  H11  1  0.222600  0.723000  0.057700  1
  H  H12  1  0.777400  0.277000  0.942300  1
  H  H13  1  0.471500  0.349900  0.523100  1.0
  H  H14  1  0.528500  0.650100  0.476900  1.0
  H  H15  1  0.421100  0.355300  0.424500  1.0
  H  H16  1  0.578900  0.644700  0.575500  1.0
  H  H17  1  0.941500  0.002500  0.058300  1.0
  H  H18  1  0.058500  0.997500  0.941700  1.0
  H  H19  1  0.915300  0.131700  0.017000  1.0
  H  H20  1  0.084700  0.868300  0.983000  1.0
  H  H21  1  0.085400  0.277000  0.050300  1.0
  H  H22  1  0.914600  0.723000  0.949700  1.0
  H  H23  1  0.282400  0.292900  0.123600  1.0
  H  H24  1  0.717600  0.707100  0.876400  1.0
  H  H25  1  0.420200  0.219600  0.193700  1.0
  H  H26  1  0.579800  0.780400  0.806300  1.0
  H  H27  1  0.487600  0.221100  0.296200  1.0
  H  H28  1  0.512400  0.778900  0.703800  1.0
  H  H29  1  0.776700  0.091500  0.359700  1.0
  H  H30  1  0.223300  0.908500  0.640300  1.0
  H  H31  1  0.690100  0.962500  0.273800  1.0
  H  H32  1  0.309900  0.037500  0.726200  1.0
  H  H33  1  0.501500  0.958800  0.199700  1.0
  H  H34  1  0.498500  0.041200  0.800300  1.0
  H  H35  1  0.691000  0.356800  0.342900  1.0
  H  H36  1  0.309000  0.643200  0.657100  1.0
  H  H37  1  0.725400  0.176600  0.452500  1.0
  H  H38  1  0.274600  0.823400  0.547500  1.0
  H  H39  1  0.929500  0.731500  0.580900  1.0
  H  H40  1  0.070500  0.268500  0.419100  1.0
  H  H41  1  0.960800  0.552400  0.691100  1.0
  H  H42  1  0.039200  0.447600  0.308900  1.0
  H  H43  1  0.775800  0.536000  0.385700  1.0
  H  H44  1  0.224200  0.464000  0.614300  1.0
  H  H45  1  0.857500  0.664300  0.467500  1.0
  H  H46  1  0.142500  0.335700  0.532500  1.0
  H  H47  1  0.811400  0.243200  0.565400  1.0
  H  H48  1  0.188600  0.756800  0.434600  1.0
  H  H49  1  0.891400  0.374300  0.647900  1.0
  H  H50  1  0.108600  0.625700  0.352100  1.0
  H  H51  1  0.863700  0.811200  0.670300  1.0
  H  H52  1  0.136300  0.188800  0.329700  1.0
  H  H53  1  0.128800  0.952300  0.832800  1.0
  H  H54  1  0.871200  0.047700  0.167200  1.0
  H  H55  1  0.235700  0.825900  0.825600  1.0
  H  H56  1  0.764300  0.174100  0.174400  1.0
  H  H57  1  0.156700  0.693600  0.742200  1.0
  H  H58  1  0.843300  0.306400  0.257800  1.0
  H  H59  1  0.905600  0.976900  0.675100  1.0
  H  H60  1  0.094400  0.023100  0.324900  1.0
  H  H61  1  0.793700  0.090500  0.632300  1.0
  H  H62  1  0.206300  0.909500  0.367700  1.0
  H  H63  1  0.662800  0.205200  0.643500  1.0
  H  H64  1  0.337200  0.794800  0.356500  1.0
  H  H65  1  0.633300  0.269000  0.740100  1.0
  H  H66  1  0.366700  0.731000  0.259900  1.0
  H  H67  1  0.702500  0.203600  0.819600  1.0
  H  H68  1  0.297500  0.796400  0.180400  1.0
  H  H69  1  0.743800  0.683700  0.114500  1.0
  H  H70  1  0.256200  0.316300  0.885500  1.0
  H  H71  1  0.684700  0.718000  0.056100  1.0
  H  H72  1  0.315300  0.282000  0.943900  1.0
  H  H73  1  0.663600  0.766700  0.122000  1.0
  H  H74  1  0.336400  0.233300  0.878000  1.0
  C  C75  1  0.829900  0.787200  0.293400  1
  C  C76  1  0.170100  0.212800  0.706600  1
  C  C77  1  0.834400  0.740500  0.341700  1
  C  C78  1  0.165600  0.259500  0.658300  1
  C  C79  1  0.483200  0.410400  0.513200  1.0
  C  C80  1  0.516800  0.589600  0.486800  1.0
  C  C81  1  0.452800  0.413900  0.455700  1.0
  C  C82  1  0.547200  0.586100  0.544300  1.0
  C  C83  1  0.466300  0.502100  0.439500  1.0
  C  C84  1  0.533700  0.497900  0.560500  1.0
  C  C85  1  0.432400  0.497400  0.377800  1.0
  C  C86  1  0.567600  0.502600  0.622200  1.0
  C  C87  1  0.387300  0.408500  0.327300  1.0
  C  C88  1  0.612700  0.591500  0.672700  1.0
  C  C89  1  0.444200  0.582300  0.357300  1.0
  C  C90  1  0.555800  0.417700  0.642700  1.0
  C  C91  1  0.540500  0.178200  0.037500  1.0
  C  C92  1  0.459500  0.821800  0.962500  1.0
  C  C93  1  0.011600  0.062100  0.071920  1.0
  C  C94  1  0.988400  0.937900  0.928080  1.0
  C  C95  1  0.995800  0.138900  0.047300  1.0
  C  C96  1  0.004200  0.861100  0.952700  1.0
  C  C97  1  0.096000  0.224200  0.066800  1.0
  C  C98  1  0.904000  0.775800  0.933200  1.0
  C  C99  1  0.211400  0.233700  0.109800  1.0
  C  C100  1  0.788600  0.766300  0.890200  1.0
  C  C101  1  0.223800  0.156000  0.133270  1.0
  C  C102  1  0.776200  0.844000  0.866730  1.0
  C  C103  1  0.348300  0.161100  0.178330  1.0
  C  C104  1  0.651700  0.838900  0.821670  1.0
  C  C105  1  0.476500  0.089700  0.241070  1.0
  C  C106  1  0.523500  0.910300  0.758930  1.0
  C  C107  1  0.529000  0.168600  0.291950  1.0
  C  C108  1  0.471000  0.831400  0.708050  1.0
  C  C109  1  0.641200  0.170300  0.336260  1.0
  C  C110  1  0.358800  0.829700  0.663740  1.0
  C  C111  1  0.700600  0.091700  0.329400  1.0
  C  C112  1  0.299400  0.908300  0.670600  1.0
  C  C113  1  0.648200  0.014800  0.278400  1.0
  C  C114  1  0.351800  0.985200  0.721600  1.0
  C  C115  1  0.536900  0.012400  0.234300  1.0
  C  C116  1  0.463100  0.987600  0.765700  1.0
  C  C117  1  0.699500  0.254400  0.389830  1.0
  C  C118  1  0.300500  0.745600  0.610170  1.0
  C  C119  1  0.717600  0.347800  0.382520  1.0
  C  C120  1  0.282400  0.652200  0.617480  1.0
  C  C121  1  0.773700  0.428200  0.431810  1.0
  C  C122  1  0.226300  0.571800  0.568190  1.0
  C  C123  1  0.807300  0.413500  0.490640  1.0
  C  C124  1  0.192700  0.586500  0.509360  1.0
  C  C125  1  0.788500  0.318900  0.498360  1.0
  C  C126  1  0.211500  0.681100  0.501640  1.0
  C  C127  1  0.736100  0.240300  0.447530  1.0
  C  C128  1  0.263900  0.759700  0.552470  1.0
  C  C129  1  0.857700  0.494400  0.542270  1.0
  C  C130  1  0.142300  0.505600  0.457730  1.0
  C  C131  1  0.874700  0.589300  0.534370  1.0
  C  C132  1  0.125300  0.410700  0.465630  1.0
  C  C133  1  0.920200  0.667900  0.585650  1.0
  C  C134  1  0.079800  0.332100  0.414350  1.0
  C  C135  1  0.952200  0.653100  0.644240  1.0
  C  C136  1  0.047800  0.346900  0.355760  1.0
  C  C137  1  0.937800  0.561300  0.651250  1.0
  C  C138  1  0.062200  0.438700  0.348750  1.0
  C  C139  1  0.890400  0.480400  0.601550  1.0
  C  C140  1  0.109600  0.519600  0.398450  1.0
  C  C141  1  0.795800  0.525500  0.425350  1.0
  C  C142  1  0.204200  0.474500  0.574650  1.0
  C  C143  1  0.843600  0.601000  0.473490  1.0
  C  C144  1  0.156400  0.399000  0.526510  1.0
  C  C145  1  0.822600  0.306300  0.559450  1.0
  C  C146  1  0.177400  0.693700  0.440550  1.0
  C  C147  1  0.870500  0.384100  0.608220  1.0
  C  C148  1  0.129500  0.615900  0.391780  1.0
  C  C149  1  0.002400  0.738900  0.698000  1.0
  C  C150  1  0.997600  0.261100  0.302000  1.0
  C  C151  1  0.939400  0.814000  0.701810  1.0
  C  C152  1  0.060600  0.186000  0.298190  1.0
  C  C153  1  0.987800  0.894500  0.752510  1.0
  C  C154  1  0.012200  0.105500  0.247490  1.0
  C  C155  1  0.096800  0.898200  0.798320  1.0
  C  C156  1  0.903200  0.101800  0.201680  1.0
  C  C157  1  0.159800  0.823200  0.794160  1.0
  C  C158  1  0.840200  0.176800  0.205840  1.0
  C  C159  1  0.112800  0.744900  0.744610  1.0
  C  C160  1  0.887200  0.255100  0.255390  1.0
  C  C161  1  0.883400  0.001900  0.713000  1.0
  C  C162  1  0.116600  0.998100  0.287000  1.0
  C  C163  1  0.809500  0.077000  0.718370  1.0
  C  C164  1  0.190500  0.923000  0.281630  1.0
  C  C165  1  0.770800  0.112900  0.670400  1.0
  C  C166  1  0.229200  0.887100  0.329600  1.0
  C  C167  1  0.697500  0.182800  0.677300  1.0
  C  C168  1  0.302500  0.817200  0.322700  1.0
  C  C169  1  0.677100  0.217900  0.733200  1.0
  C  C170  1  0.322900  0.782100  0.266800  1.0
  C  C171  1  0.720100  0.179400  0.780600  1.0
  C  C172  1  0.279900  0.820600  0.219400  1.0
  C  C173  1  0.862600  0.813800  0.110500  1.0
  C  C174  1  0.137400  0.186200  0.889500  1.0
  C  C175  1  0.727000  0.739100  0.099800  1.0
  C  C176  1  0.273000  0.260900  0.900200  1.0
  S  S177  1  0.431410  0.066250  0.984520  1.0
  S  S178  1  0.568590  0.933750  0.015480  1.0
  N  N179  1  0.828900  0.825800  0.256300  1
  N  N180  1  0.171100  0.174200  0.743700  1
  N  N181  1  0.350800  0.344800  0.289700  1.0
  N  N182  1  0.649200  0.655200  0.710300  1.0
  N  N183  1  0.463300  0.655400  0.342700  1.0
  N  N184  1  0.536700  0.344600  0.657300  1.0
  N  N185  1  0.542900  0.006800  0.971500  1.0
  N  N186  1  0.457100  0.993200  0.028500  1.0
  N  N187  1  0.125000  0.071400  0.114790  1.0
  N  N188  1  0.875000  0.928600  0.885210  1.0
  N  N189  1  0.359000  0.085900  0.196720  1.0
  N  N190  1  0.641000  0.914100  0.803280  1.0
  N  N191  1  0.918400  0.969700  0.758920  1.0
  N  N192  1  0.081600  0.030300  0.241080  1.0
  N  N193  1  0.784900  0.110100  0.773740  1.0
  N  N194  1  0.215100  0.889900  0.226260  1.0
  N  N195  1  0.961900  0.867200  0.120940  1.0
  N  N196  1  0.038100  0.132800  0.879060  1.0
  O  O197  1  0.130700  0.700800  0.046900  1
  O  O198  1  0.869300  0.299200  0.953100  1
  O  O199  1  0.320400  0.026000  0.009700  1
  O  O200  1  0.679600  0.974000  0.990300  1
  O  O201  1  0.481100  0.055500  0.932500  1
  O  O202  1  0.518900  0.944500  0.067500  1
  O  O203  1  0.299000  0.073300  0.994600  1.0
  O  O204  1  0.701000  0.926700  0.005400  1.0
  O  O205  1  0.384100  0.089700  0.926900  1.0
  O  O206  1  0.615900  0.910300  0.073100  1.0
  O  O207  1  0.248000  0.894500  0.095650  1.0
  O  O208  1  0.752000  0.105500  0.904350  1.0
  F  F209  1  0.559200  0.157000  0.089600  1
  F  F210  1  0.440800  0.843000  0.910400  1
  F  F211  1  0.453500  0.240300  0.036600  1
  F  F212  1  0.546500  0.759700  0.963400  1
  F  F213  1  0.647500  0.217200  0.019900  1
  F  F214  1  0.352500  0.782800  0.980100  1
  F  F215  1  0.528700  0.193100  0.091700  1.0
  F  F216  1  0.471300  0.806900  0.908300  1.0
  F  F217  1  0.528500  0.250800  0.018500  1.0
  F  F218  1  0.471500  0.749200  0.981500  1.0
  F  F219  1  0.680500  0.178400  0.043800  1.0
  F  F220  1  0.319500  0.821600  0.956200  1.0
