# generated using pymatgen
data_ZnAs2H44C54(NF2)8
_symmetry_space_group_name_H-M   'P 1'
_cell_length_a   10.26700000
_cell_length_b   18.45890000
_cell_length_c   28.13790000
_cell_angle_alpha   90.00000000
_cell_angle_beta   90.00000000
_cell_angle_gamma   101.35700000
_symmetry_Int_Tables_number   1
_chemical_formula_structural   ZnAs2H44C54(NF2)8
_chemical_formula_sum   'Zn4 As8 H176 C216 N32 F64'
_cell_volume   5228.20834215
_cell_formula_units_Z   4
loop_
 _symmetry_equiv_pos_site_id
 _symmetry_equiv_pos_as_xyz
  1  'x, y, z'
loop_
 _atom_site_type_symbol
 _atom_site_label
 _atom_site_symmetry_multiplicity
 _atom_site_fract_x
 _atom_site_fract_y
 _atom_site_fract_z
 _atom_site_occupancy
  Zn  Zn1  1  0.564810  0.513710  0.830340  1.0
  Zn  Zn2  1  0.935190  0.986290  0.330340  1.0
  Zn  Zn3  1  0.435190  0.486290  0.169660  1.0
  Zn  Zn4  1  0.064810  0.013710  0.669660  1.0
  As  As5  1  0.774990  0.269280  0.152250  1
  As  As6  1  0.725010  0.230720  0.652250  1
  As  As7  1  0.225010  0.730720  0.847750  1
  As  As8  1  0.274990  0.769280  0.347750  1
  As  As9  1  0.245970  0.362270  0.994580  1
  As  As10  1  0.254030  0.137730  0.494580  1
  As  As11  1  0.754030  0.637730  0.005420  1
  As  As12  1  0.745970  0.862270  0.505420  1
  H  H13  1  0.026900  0.276700  0.905600  1
  H  H14  1  0.473100  0.223300  0.405600  1
  H  H15  1  0.973100  0.723300  0.094400  1
  H  H16  1  0.526900  0.776700  0.594400  1
  H  H17  1  0.885600  0.305400  0.965000  1
  H  H18  1  0.614400  0.194600  0.465000  1
  H  H19  1  0.114400  0.694600  0.035000  1
  H  H20  1  0.385600  0.805400  0.535000  1
  H  H21  1  0.665900  0.311800  0.946600  1
  H  H22  1  0.834100  0.188200  0.446600  1
  H  H23  1  0.334100  0.688200  0.053400  1
  H  H24  1  0.165900  0.811800  0.553400  1
  H  H25  1  0.587500  0.289400  0.868800  1
  H  H26  1  0.912500  0.210600  0.368800  1
  H  H27  1  0.412500  0.710600  0.131200  1
  H  H28  1  0.087500  0.789400  0.631200  1
  H  H29  1  0.728800  0.260800  0.809400  1
  H  H30  1  0.771200  0.239200  0.309400  1
  H  H31  1  0.271200  0.739200  0.190600  1
  H  H32  1  0.228800  0.760800  0.690600  1
  H  H33  1  0.948500  0.254400  0.827900  1
  H  H34  1  0.551500  0.245600  0.327900  1
  H  H35  1  0.051500  0.745600  0.172100  1
  H  H36  1  0.448500  0.754400  0.672100  1
  H  H37  1  0.402500  0.356400  0.443100  1
  H  H38  1  0.097500  0.143600  0.943100  1
  H  H39  1  0.597500  0.643600  0.556900  1
  H  H40  1  0.902500  0.856400  0.056900  1
  H  H41  1  0.382800  0.438100  0.430400  1
  H  H42  1  0.117200  0.061900  0.930400  1
  H  H43  1  0.617200  0.561900  0.569600  1
  H  H44  1  0.882800  0.938100  0.069600  1
  H  H45  1  0.529100  0.420500  0.433100  1
  H  H46  1  0.970900  0.079500  0.933100  1
  H  H47  1  0.470900  0.579500  0.566900  1
  H  H48  1  0.029100  0.920500  0.066900  1
  H  H49  1  0.006700  0.186300  0.054900  1
  H  H50  1  0.493300  0.313700  0.554900  1
  H  H51  1  0.993300  0.813700  0.945100  1
  H  H52  1  0.506700  0.686300  0.445100  1
  H  H53  1  0.037800  0.114200  0.029200  1
  H  H54  1  0.462200  0.385800  0.529200  1
  H  H55  1  0.962200  0.885800  0.970800  1
  H  H56  1  0.537800  0.614200  0.470800  1
  H  H57  1  0.155300  0.171900  0.053800  1
  H  H58  1  0.344700  0.328100  0.553800  1
  H  H59  1  0.844700  0.828100  0.946200  1
  H  H60  1  0.655300  0.671900  0.446200  1
  H  H61  1  0.356200  0.389600  0.880900  1.0
  H  H62  1  0.143800  0.110400  0.380900  1.0
  H  H63  1  0.643800  0.610400  0.119100  1.0
  H  H64  1  0.856200  0.889600  0.619100  1.0
  H  H65  1  0.250000  0.268700  0.865400  1.0
  H  H66  1  0.250000  0.231300  0.365400  1.0
  H  H67  1  0.750000  0.731300  0.134600  1.0
  H  H68  1  0.750000  0.768700  0.634600  1.0
  H  H69  1  0.313700  0.207900  0.799000  1.0
  H  H70  1  0.186300  0.292100  0.299000  1.0
  H  H71  1  0.686300  0.792100  0.201000  1.0
  H  H72  1  0.813700  0.707900  0.701000  1.0
  H  H73  1  0.481000  0.271200  0.749200  1.0
  H  H74  1  0.019000  0.228800  0.249200  1.0
  H  H75  1  0.519000  0.728800  0.250800  1.0
  H  H76  1  0.981000  0.771200  0.750800  1.0
  H  H77  1  0.647800  0.387600  0.729700  1.0
  H  H78  1  0.852200  0.112400  0.229700  1.0
  H  H79  1  0.352200  0.612400  0.270300  1.0
  H  H80  1  0.147800  0.887600  0.770300  1.0
  H  H81  1  0.700600  0.480700  0.675600  1.0
  H  H82  1  0.799400  0.019300  0.175600  1.0
  H  H83  1  0.299400  0.519300  0.324400  1.0
  H  H84  1  0.200600  0.980700  0.824400  1.0
  H  H85  1  0.050700  0.626500  0.670500  1.0
  H  H86  1  0.449300  0.873500  0.170500  1.0
  H  H87  1  0.949300  0.373500  0.329500  1.0
  H  H88  1  0.550700  0.126500  0.829500  1.0
  H  H89  1  0.056800  0.630800  0.753100  1.0
  H  H90  1  0.443200  0.869200  0.253100  1.0
  H  H91  1  0.943200  0.369200  0.246900  1.0
  H  H92  1  0.556800  0.130800  0.746900  1.0
  H  H93  1  0.880800  0.565600  0.797200  1.0
  H  H94  1  0.619200  0.934400  0.297200  1.0
  H  H95  1  0.119200  0.434400  0.202800  1.0
  H  H96  1  0.380800  0.065600  0.702800  1.0
  H  H97  1  0.801300  0.439900  0.606900  1.0
  H  H98  1  0.698700  0.060100  0.106900  1.0
  H  H99  1  0.198700  0.560100  0.393100  1.0
  H  H100  1  0.301300  0.939900  0.893100  1.0
  H  H101  1  0.938900  0.660200  0.600700  1.0
  H  H102  1  0.561100  0.839800  0.100700  1.0
  H  H103  1  0.061100  0.339800  0.399300  1.0
  H  H104  1  0.438900  0.160200  0.899300  1.0
  H  H105  1  0.766700  0.427300  0.372800  1.0
  H  H106  1  0.733300  0.072700  0.872800  1.0
  H  H107  1  0.233300  0.572700  0.627200  1.0
  H  H108  1  0.266700  0.927300  0.127200  1.0
  H  H109  1  0.923500  0.645400  0.366400  1.0
  H  H110  1  0.576500  0.854600  0.866400  1.0
  H  H111  1  0.076500  0.354600  0.633600  1.0
  H  H112  1  0.423500  0.145400  0.133600  1.0
  H  H113  1  0.966900  0.719600  0.441300  1.0
  H  H114  1  0.533100  0.780400  0.941300  1.0
  H  H115  1  0.033100  0.280400  0.558700  1.0
  H  H116  1  0.466900  0.219600  0.058700  1.0
  H  H117  1  0.968700  0.724600  0.522300  1.0
  H  H118  1  0.531300  0.775400  0.022300  1.0
  H  H119  1  0.031300  0.275400  0.477700  1.0
  H  H120  1  0.468700  0.224600  0.977700  1.0
  H  H121  1  0.756000  0.365700  0.531800  1.0
  H  H122  1  0.744000  0.134300  0.031800  1.0
  H  H123  1  0.244000  0.634300  0.468200  1.0
  H  H124  1  0.256000  0.865700  0.968200  1.0
  H  H125  1  0.744500  0.361500  0.451500  1.0
  H  H126  1  0.755500  0.138500  0.951500  1.0
  H  H127  1  0.255500  0.638500  0.548500  1.0
  H  H128  1  0.244500  0.861500  0.048500  1.0
  H  H129  1  0.646300  0.467500  0.307400  1.0
  H  H130  1  0.853700  0.032500  0.807400  1.0
  H  H131  1  0.353700  0.532500  0.692600  1.0
  H  H132  1  0.146300  0.967500  0.192600  1.0
  H  H133  1  0.788800  0.530900  0.176700  1.0
  H  H134  1  0.711200  0.969100  0.676700  1.0
  H  H135  1  0.211200  0.469100  0.823300  1.0
  H  H136  1  0.288800  0.030900  0.323300  1.0
  H  H137  1  0.980700  0.597900  0.211200  1.0
  H  H138  1  0.519300  0.902100  0.711200  1.0
  H  H139  1  0.019300  0.402100  0.788800  1.0
  H  H140  1  0.480700  0.097900  0.288800  1.0
  H  H141  1  0.006900  0.600700  0.292800  1.0
  H  H142  1  0.493100  0.899300  0.792800  1.0
  H  H143  1  0.993100  0.399300  0.707200  1.0
  H  H144  1  0.506900  0.100700  0.207200  1.0
  H  H145  1  0.591100  0.362300  0.253800  1.0
  H  H146  1  0.908900  0.137700  0.753800  1.0
  H  H147  1  0.408900  0.637700  0.746200  1.0
  H  H148  1  0.091100  0.862300  0.246200  1.0
  H  H149  1  0.434200  0.241400  0.240900  1.0
  H  H150  1  0.065800  0.258600  0.740900  1.0
  H  H151  1  0.565800  0.758600  0.759100  1.0
  H  H152  1  0.934200  0.741400  0.259100  1.0
  H  H153  1  0.252000  0.172100  0.200600  1.0
  H  H154  1  0.248000  0.327900  0.700600  1.0
  H  H155  1  0.748000  0.827900  0.799400  1.0
  H  H156  1  0.752000  0.672100  0.299400  1.0
  H  H157  1  0.137200  0.231500  0.146700  1.0
  H  H158  1  0.362800  0.268500  0.646700  1.0
  H  H159  1  0.862800  0.768500  0.853300  1.0
  H  H160  1  0.637200  0.731500  0.353300  1.0
  H  H161  1  0.209100  0.355400  0.132200  1.0
  H  H162  1  0.290900  0.144600  0.632200  1.0
  H  H163  1  0.790900  0.644600  0.867800  1.0
  H  H164  1  0.709100  0.855400  0.367800  1.0
  H  H165  1  0.288900  0.626700  0.946000  1.0
  H  H166  1  0.211100  0.873300  0.446000  1.0
  H  H167  1  0.711100  0.373300  0.054000  1.0
  H  H168  1  0.788900  0.126700  0.554000  1.0
  H  H169  1  0.421400  0.631100  0.976700  1.0
  H  H170  1  0.078600  0.868900  0.476700  1.0
  H  H171  1  0.578600  0.368900  0.023300  1.0
  H  H172  1  0.921400  0.131100  0.523300  1.0
  H  H173  1  0.303200  0.560500  0.981200  1.0
  H  H174  1  0.196800  0.939500  0.481200  1.0
  H  H175  1  0.696800  0.439500  0.018800  1.0
  H  H176  1  0.803200  0.060500  0.518800  1.0
  H  H177  1  0.018300  0.542700  0.907400  1.0
  H  H178  1  0.481700  0.957300  0.407400  1.0
  H  H179  1  0.981700  0.457300  0.092600  1.0
  H  H180  1  0.518300  0.042700  0.592600  1.0
  H  H181  1  0.995600  0.454700  0.902400  1.0
  H  H182  1  0.504400  0.045300  0.402400  1.0
  H  H183  1  0.004400  0.545300  0.097600  1.0
  H  H184  1  0.495600  0.954700  0.597600  1.0
  H  H185  1  0.946700  0.490800  0.949200  1.0
  H  H186  1  0.553300  0.009200  0.449200  1.0
  H  H187  1  0.053300  0.509200  0.050800  1.0
  H  H188  1  0.446700  0.990800  0.550800  1.0
  C  C189  1  0.937700  0.279300  0.898100  1
  C  C190  1  0.562300  0.220700  0.398100  1
  C  C191  1  0.062300  0.720700  0.101900  1
  C  C192  1  0.437700  0.779300  0.601900  1
  C  C193  1  0.853800  0.296300  0.933400  1
  C  C194  1  0.646200  0.203700  0.433400  1
  C  C195  1  0.146200  0.703700  0.066600  1
  C  C196  1  0.353800  0.796300  0.566600  1
  C  C197  1  0.723300  0.300100  0.922460  1
  C  C198  1  0.776700  0.199900  0.422460  1
  C  C199  1  0.276700  0.699900  0.077540  1
  C  C200  1  0.223300  0.800100  0.577540  1
  C  C201  1  0.676700  0.286900  0.876300  1
  C  C202  1  0.823300  0.213100  0.376300  1
  C  C203  1  0.323300  0.713100  0.123700  1
  C  C204  1  0.176700  0.786900  0.623700  1
  C  C205  1  0.760600  0.269800  0.841010  1
  C  C206  1  0.739400  0.230200  0.341010  1
  C  C207  1  0.239400  0.730200  0.158990  1
  C  C208  1  0.260600  0.769800  0.658990  1
  C  C209  1  0.891100  0.266100  0.851950  1
  C  C210  1  0.608900  0.233900  0.351950  1
  C  C211  1  0.108900  0.733900  0.148050  1
  C  C212  1  0.391100  0.766100  0.648050  1
  C  C213  1  0.430100  0.382000  0.374800  1
  C  C214  1  0.069900  0.118000  0.874800  1
  C  C215  1  0.569900  0.618000  0.625200  1
  C  C216  1  0.930100  0.882000  0.125200  1
  C  C217  1  0.436600  0.400700  0.424300  1
  C  C218  1  0.063400  0.099300  0.924300  1
  C  C219  1  0.563400  0.599300  0.575700  1
  C  C220  1  0.936600  0.900700  0.075700  1
  C  C221  1  0.037600  0.108400  0.099700  1
  C  C222  1  0.462400  0.391600  0.599700  1
  C  C223  1  0.962400  0.891600  0.900300  1
  C  C224  1  0.537600  0.608400  0.400300  1
  C  C225  1  0.061200  0.148300  0.056000  1
  C  C226  1  0.438800  0.351700  0.556000  1
  C  C227  1  0.938800  0.851700  0.944000  1
  C  C228  1  0.561200  0.648300  0.444000  1
  C  C229  1  0.380400  0.365400  0.853400  1.0
  C  C230  1  0.119600  0.134600  0.353400  1.0
  C  C231  1  0.619600  0.634600  0.146600  1.0
  C  C232  1  0.880400  0.865400  0.646600  1.0
  C  C233  1  0.317700  0.293200  0.844700  1.0
  C  C234  1  0.182300  0.206800  0.344700  1.0
  C  C235  1  0.682300  0.706800  0.155300  1.0
  C  C236  1  0.817700  0.793200  0.655300  1.0
  C  C237  1  0.354900  0.257600  0.805700  1.0
  C  C238  1  0.145100  0.242400  0.305700  1.0
  C  C239  1  0.645100  0.742400  0.194300  1.0
  C  C240  1  0.854900  0.757600  0.694300  1.0
  C  C241  1  0.453200  0.295100  0.776170  1.0
  C  C242  1  0.046800  0.204900  0.276170  1.0
  C  C243  1  0.546800  0.704900  0.223830  1.0
  C  C244  1  0.953200  0.795100  0.723830  1.0
  C  C245  1  0.510600  0.367300  0.786270  1.0
  C  C246  1  0.989400  0.132700  0.286270  1.0
  C  C247  1  0.489400  0.632700  0.213730  1.0
  C  C248  1  0.010600  0.867300  0.713730  1.0
  C  C249  1  0.617500  0.409400  0.757110  1.0
  C  C250  1  0.882500  0.090600  0.257110  1.0
  C  C251  1  0.382500  0.590600  0.242890  1.0
  C  C252  1  0.117500  0.909400  0.742890  1.0
  C  C253  1  0.775400  0.516500  0.740410  1.0
  C  C254  1  0.724600  0.983500  0.240410  1.0
  C  C255  1  0.224600  0.483500  0.259590  1.0
  C  C256  1  0.275400  0.016500  0.759590  1.0
  C  C257  1  0.772300  0.512200  0.691140  1.0
  C  C258  1  0.727700  0.987800  0.191140  1.0
  C  C259  1  0.227700  0.487800  0.308860  1.0
  C  C260  1  0.272300  0.012200  0.808860  1.0
  C  C261  1  0.874100  0.553800  0.664630  1.0
  C  C262  1  0.625900  0.946200  0.164630  1.0
  C  C263  1  0.125900  0.446200  0.335370  1.0
  C  C264  1  0.374100  0.053800  0.835370  1.0
  C  C265  1  0.980000  0.598200  0.688310  1.0
  C  C266  1  0.520000  0.901800  0.188310  1.0
  C  C267  1  0.020000  0.401800  0.311690  1.0
  C  C268  1  0.480000  0.098200  0.811690  1.0
  C  C269  1  0.983000  0.601200  0.737370  1.0
  C  C270  1  0.517000  0.898800  0.237370  1.0
  C  C271  1  0.017000  0.398800  0.262630  1.0
  C  C272  1  0.483000  0.101200  0.762630  1.0
  C  C273  1  0.880300  0.561900  0.763570  1.0
  C  C274  1  0.619700  0.938100  0.263570  1.0
  C  C275  1  0.119700  0.438100  0.236430  1.0
  C  C276  1  0.380300  0.061900  0.736430  1.0
  C  C277  1  0.869900  0.550400  0.611810  1.0
  C  C278  1  0.630100  0.949600  0.111810  1.0
  C  C279  1  0.130100  0.449600  0.388190  1.0
  C  C280  1  0.369900  0.050400  0.888190  1.0
  C  C281  1  0.827400  0.483600  0.588580  1.0
  C  C282  1  0.672600  0.016400  0.088580  1.0
  C  C283  1  0.172600  0.516400  0.411420  1.0
  C  C284  1  0.327400  0.983600  0.911420  1.0
  C  C285  1  0.822000  0.478600  0.539240  1.0
  C  C286  1  0.678000  0.021400  0.039240  1.0
  C  C287  1  0.178000  0.521400  0.460760  1.0
  C  C288  1  0.322000  0.978600  0.960760  1.0
  C  C289  1  0.860000  0.544500  0.511900  1.0
  C  C290  1  0.640000  0.955500  0.011900  1.0
  C  C291  1  0.140000  0.455500  0.488100  1.0
  C  C292  1  0.360000  0.044500  0.988100  1.0
  C  C293  1  0.904300  0.612900  0.535210  1.0
  C  C294  1  0.595700  0.887100  0.035210  1.0
  C  C295  1  0.095700  0.387100  0.464790  1.0
  C  C296  1  0.404300  0.112900  0.964790  1.0
  C  C297  1  0.908800  0.614500  0.584960  1.0
  C  C298  1  0.591200  0.885500  0.084960  1.0
  C  C299  1  0.091200  0.385500  0.415040  1.0
  C  C300  1  0.408800  0.114500  0.915040  1.0
  C  C301  1  0.856200  0.541600  0.461540  1.0
  C  C302  1  0.643800  0.958400  0.961540  1.0
  C  C303  1  0.143800  0.458400  0.538460  1.0
  C  C304  1  0.356200  0.041600  0.038460  1.0
  C  C305  1  0.809300  0.473400  0.437690  1.0
  C  C306  1  0.690700  0.026600  0.937690  1.0
  C  C307  1  0.190700  0.526600  0.562310  1.0
  C  C308  1  0.309300  0.973400  0.062310  1.0
  C  C309  1  0.801000  0.472600  0.388470  1.0
  C  C310  1  0.699000  0.027400  0.888470  1.0
  C  C311  1  0.199000  0.527400  0.611530  1.0
  C  C312  1  0.301000  0.972600  0.111530  1.0
  C  C313  1  0.841300  0.535800  0.361440  1.0
  C  C314  1  0.658700  0.964200  0.861440  1.0
  C  C315  1  0.158700  0.464200  0.638560  1.0
  C  C316  1  0.341300  0.035800  0.138560  1.0
  C  C317  1  0.892200  0.602200  0.384720  1.0
  C  C318  1  0.607800  0.897800  0.884720  1.0
  C  C319  1  0.107800  0.397800  0.615280  1.0
  C  C320  1  0.392200  0.102200  0.115280  1.0
  C  C321  1  0.898500  0.606800  0.434060  1.0
  C  C322  1  0.601500  0.893200  0.934060  1.0
  C  C323  1  0.101500  0.393200  0.565940  1.0
  C  C324  1  0.398500  0.106800  0.065940  1.0
  C  C325  1  0.940000  0.675300  0.458940  1.0
  C  C326  1  0.560000  0.824700  0.958940  1.0
  C  C327  1  0.060000  0.324700  0.541060  1.0
  C  C328  1  0.440000  0.175300  0.041060  1.0
  C  C329  1  0.941900  0.678200  0.506940  1.0
  C  C330  1  0.558100  0.821800  0.006940  1.0
  C  C331  1  0.058100  0.321800  0.493060  1.0
  C  C332  1  0.441900  0.178200  0.993060  1.0
  C  C333  1  0.779900  0.410300  0.514200  1.0
  C  C334  1  0.720100  0.089700  0.014200  1.0
  C  C335  1  0.220100  0.589700  0.485800  1.0
  C  C336  1  0.279900  0.910300  0.985800  1.0
  C  C337  1  0.773500  0.407800  0.466650  1.0
  C  C338  1  0.726500  0.092200  0.966650  1.0
  C  C339  1  0.226500  0.592200  0.533350  1.0
  C  C340  1  0.273500  0.907800  0.033350  1.0
  C  C341  1  0.828400  0.533700  0.309220  1.0
  C  C342  1  0.671600  0.966300  0.809220  1.0
  C  C343  1  0.171600  0.466300  0.690780  1.0
  C  C344  1  0.328400  0.033700  0.190780  1.0
  C  C345  1  0.715100  0.494000  0.287970  1.0
  C  C346  1  0.784900  0.006000  0.787970  1.0
  C  C347  1  0.284900  0.506000  0.712030  1.0
  C  C348  1  0.215100  0.994000  0.212030  1.0
  C  C349  1  0.699300  0.491800  0.239280  1.0
  C  C350  1  0.800700  0.008200  0.739280  1.0
  C  C351  1  0.300700  0.508200  0.760720  1.0
  C  C352  1  0.199300  0.991800  0.260720  1.0
  C  C353  1  0.799200  0.531400  0.210260  1.0
  C  C354  1  0.700800  0.968600  0.710260  1.0
  C  C355  1  0.200800  0.468600  0.789740  1.0
  C  C356  1  0.299200  0.031400  0.289740  1.0
  C  C357  1  0.912300  0.571200  0.230780  1.0
  C  C358  1  0.587700  0.928800  0.730780  1.0
  C  C359  1  0.087700  0.428800  0.769220  1.0
  C  C360  1  0.412300  0.071200  0.269220  1.0
  C  C361  1  0.928000  0.572800  0.279280  1.0
  C  C362  1  0.572000  0.927200  0.779280  1.0
  C  C363  1  0.072000  0.427200  0.720720  1.0
  C  C364  1  0.428000  0.072800  0.220720  1.0
  C  C365  1  0.543000  0.383200  0.230330  1.0
  C  C366  1  0.957000  0.116800  0.730330  1.0
  C  C367  1  0.457000  0.616800  0.769670  1.0
  C  C368  1  0.043000  0.883200  0.269670  1.0
  C  C369  1  0.424700  0.338100  0.208700  1.0
  C  C370  1  0.075300  0.161900  0.708700  1.0
  C  C371  1  0.575300  0.661900  0.791300  1.0
  C  C372  1  0.924700  0.838100  0.291300  1.0
  C  C373  1  0.386800  0.264300  0.218300  1.0
  C  C374  1  0.113200  0.235700  0.718300  1.0
  C  C375  1  0.613200  0.735700  0.781700  1.0
  C  C376  1  0.886800  0.764300  0.281700  1.0
  C  C377  1  0.279200  0.223600  0.194800  1.0
  C  C378  1  0.220800  0.276400  0.694800  1.0
  C  C379  1  0.720800  0.776400  0.805200  1.0
  C  C380  1  0.779200  0.723600  0.305200  1.0
  C  C381  1  0.212500  0.258300  0.163000  1.0
  C  C382  1  0.287500  0.241700  0.663000  1.0
  C  C383  1  0.787500  0.741700  0.837000  1.0
  C  C384  1  0.712500  0.758300  0.337000  1.0
  C  C385  1  0.255100  0.331900  0.155000  1.0
  C  C386  1  0.244900  0.168100  0.655000  1.0
  C  C387  1  0.744900  0.668100  0.845000  1.0
  C  C388  1  0.755100  0.831900  0.345000  1.0
  C  C389  1  0.409300  0.561900  0.921100  1.0
  C  C390  1  0.090700  0.938100  0.421100  1.0
  C  C391  1  0.590700  0.438100  0.078900  1.0
  C  C392  1  0.909300  0.061900  0.578900  1.0
  C  C393  1  0.351000  0.598000  0.959400  1.0
  C  C394  1  0.149000  0.902000  0.459400  1.0
  C  C395  1  0.649000  0.402000  0.040600  1.0
  C  C396  1  0.851000  0.098000  0.540600  1.0
  C  C397  1  0.827400  0.494900  0.892100  1.0
  C  C398  1  0.672600  0.005100  0.392100  1.0
  C  C399  1  0.172600  0.505100  0.107900  1.0
  C  C400  1  0.327400  0.994900  0.607900  1.0
  C  C401  1  0.958100  0.495900  0.914700  1.0
  C  C402  1  0.541900  0.004100  0.414700  1.0
  C  C403  1  0.041900  0.504100  0.085300  1.0
  C  C404  1  0.458100  0.995900  0.585300  1.0
  N  N405  1  0.424000  0.366400  0.335800  1
  N  N406  1  0.076000  0.133600  0.835800  1
  N  N407  1  0.576000  0.633600  0.664200  1
  N  N408  1  0.924000  0.866400  0.164200  1
  N  N409  1  0.019400  0.079300  0.134800  1
  N  N410  1  0.480600  0.420700  0.634800  1
  N  N411  1  0.980600  0.920700  0.865200  1
  N  N412  1  0.519400  0.579300  0.365200  1
  N  N413  1  0.474200  0.402600  0.824420  1.0
  N  N414  1  0.025800  0.097400  0.324420  1.0
  N  N415  1  0.525800  0.597400  0.175580  1.0
  N  N416  1  0.974200  0.902600  0.675580  1.0
  N  N417  1  0.669300  0.475300  0.768660  1.0
  N  N418  1  0.830700  0.024700  0.268660  1.0
  N  N419  1  0.330700  0.524700  0.231340  1.0
  N  N420  1  0.169300  0.975300  0.731340  1.0
  N  N421  1  0.581700  0.450300  0.217780  1.0
  N  N422  1  0.918300  0.049700  0.717780  1.0
  N  N423  1  0.418300  0.549700  0.782220  1.0
  N  N424  1  0.081700  0.950300  0.282220  1.0
  N  N425  1  0.358900  0.373000  0.177650  1.0
  N  N426  1  0.141100  0.127000  0.677650  1.0
  N  N427  1  0.641100  0.627000  0.822350  1.0
  N  N428  1  0.858900  0.873000  0.322350  1.0
  N  N429  1  0.454500  0.534100  0.891590  1.0
  N  N430  1  0.045500  0.965900  0.391590  1.0
  N  N431  1  0.545500  0.465900  0.108410  1.0
  N  N432  1  0.954500  0.034100  0.608410  1.0
  N  N433  1  0.729900  0.496200  0.874460  1.0
  N  N434  1  0.770100  0.003800  0.374460  1.0
  N  N435  1  0.270100  0.503800  0.125540  1.0
  N  N436  1  0.229900  0.996200  0.625540  1.0
  F  F437  1  0.811300  0.259100  0.095490  1
  F  F438  1  0.688700  0.240900  0.595490  1
  F  F439  1  0.188700  0.740900  0.904510  1
  F  F440  1  0.311300  0.759100  0.404510  1
  F  F441  1  0.735800  0.278400  0.210360  1
  F  F442  1  0.764200  0.221600  0.710360  1
  F  F443  1  0.264200  0.721600  0.789640  1
  F  F444  1  0.235800  0.778400  0.289640  1
  F  F445  1  0.617400  0.276900  0.136180  1
  F  F446  1  0.882600  0.223100  0.636180  1
  F  F447  1  0.382600  0.723100  0.863820  1
  F  F448  1  0.117400  0.776900  0.363820  1
  F  F449  1  0.716400  0.176800  0.158700  1
  F  F450  1  0.783600  0.323200  0.658700  1
  F  F451  1  0.283600  0.823200  0.841300  1
  F  F452  1  0.216400  0.676800  0.341300  1
  F  F453  1  0.924700  0.259500  0.171600  1
  F  F454  1  0.575300  0.240500  0.671600  1
  F  F455  1  0.075300  0.740500  0.828400  1
  F  F456  1  0.424700  0.759500  0.328400  1
  F  F457  1  0.819000  0.361500  0.148900  1
  F  F458  1  0.681000  0.138500  0.648900  1
  F  F459  1  0.181000  0.638500  0.851100  1
  F  F460  1  0.319000  0.861500  0.351100  1
  F  F461  1  0.190500  0.277700  0.971050  1
  F  F462  1  0.309500  0.222300  0.471050  1
  F  F463  1  0.809500  0.722300  0.028950  1
  F  F464  1  0.690500  0.777700  0.528950  1
  F  F465  1  0.099300  0.360800  0.020800  1
  F  F466  1  0.400700  0.139200  0.520800  1
  F  F467  1  0.900700  0.639200  0.979200  1
  F  F468  1  0.599300  0.860800  0.479200  1
  F  F469  1  0.304100  0.323400  0.043170  1
  F  F470  1  0.195900  0.176600  0.543170  1
  F  F471  1  0.695900  0.676600  0.956830  1
  F  F472  1  0.804100  0.823400  0.456830  1
  F  F473  1  0.306100  0.447200  0.017060  1
  F  F474  1  0.193900  0.052800  0.517060  1
  F  F475  1  0.693900  0.552800  0.982940  1
  F  F476  1  0.806100  0.947200  0.482940  1
  F  F477  1  0.393900  0.363500  0.967390  1
  F  F478  1  0.106100  0.136500  0.467390  1
  F  F479  1  0.606100  0.636500  0.032610  1
  F  F480  1  0.893900  0.863500  0.532610  1
  F  F481  1  0.192000  0.402400  0.945050  1
  F  F482  1  0.308000  0.097600  0.445050  1
  F  F483  1  0.808000  0.597600  0.054950  1
  F  F484  1  0.692000  0.902400  0.554950  1
  F  F485  1  0.685000  0.333000  0.140300  1
  F  F486  1  0.815000  0.167000  0.640300  1
  F  F487  1  0.315000  0.667000  0.859700  1
  F  F488  1  0.185000  0.833000  0.359700  1
  F  F489  1  0.626000  0.216000  0.143700  1
  F  F490  1  0.874000  0.284000  0.643700  1
  F  F491  1  0.374000  0.784000  0.856300  1
  F  F492  1  0.126000  0.716000  0.356300  1
  F  F493  1  0.844000  0.193700  0.152500  1
  F  F494  1  0.656000  0.306300  0.652500  1
  F  F495  1  0.156000  0.806300  0.847500  1
  F  F496  1  0.344000  0.693700  0.347500  1
  F  F497  1  0.923000  0.331000  0.149800  1
  F  F498  1  0.577000  0.169000  0.649800  1
  F  F499  1  0.077000  0.669000  0.850200  1
  F  F500  1  0.423000  0.831000  0.350200  1
