# generated using pymatgen
data_CoSb4H44C54(N2F3)4
_symmetry_space_group_name_H-M   'P 1'
_cell_length_a   10.22680000
_cell_length_b   18.67610000
_cell_length_c   28.41700000
_cell_angle_alpha   90.00000000
_cell_angle_beta   90.00000000
_cell_angle_gamma   101.44300000
_symmetry_Int_Tables_number   1
_chemical_formula_structural   CoSb4H44C54(N2F3)4
_chemical_formula_sum   'Co4 Sb16 H176 C216 N32 F48'
_cell_volume   5319.66845128
_cell_formula_units_Z   4
loop_
 _symmetry_equiv_pos_site_id
 _symmetry_equiv_pos_as_xyz
  1  'x, y, z'
loop_
 _atom_site_type_symbol
 _atom_site_label
 _atom_site_symmetry_multiplicity
 _atom_site_fract_x
 _atom_site_fract_y
 _atom_site_fract_z
 _atom_site_occupancy
  Co  Co1  1  0.057310  0.019910  0.173830  1.0
  Co  Co2  1  0.442690  0.480090  0.673830  1.0
  Co  Co3  1  0.942690  0.980090  0.826170  1.0
  Co  Co4  1  0.557310  0.519910  0.326170  1.0
  Sb  Sb5  1  0.752840  0.635220  0.505670  1
  Sb  Sb6  1  0.747160  0.864780  0.005670  1
  Sb  Sb7  1  0.247160  0.364780  0.494330  1
  Sb  Sb8  1  0.252840  0.135220  0.994330  1
  Sb  Sb9  1  0.777490  0.266900  0.652500  1
  Sb  Sb10  1  0.722510  0.233100  0.152500  1
  Sb  Sb11  1  0.222510  0.733100  0.347500  1
  Sb  Sb12  1  0.277490  0.766900  0.847500  1
  Sb  Sb13  1  0.837300  0.643900  0.510900  1
  Sb  Sb14  1  0.662700  0.856100  0.010900  1
  Sb  Sb15  1  0.162700  0.356100  0.489100  1
  Sb  Sb16  1  0.337300  0.143900  0.989100  1
  Sb  Sb17  1  0.784600  0.281100  0.634200  1
  Sb  Sb18  1  0.715400  0.218900  0.134200  1
  Sb  Sb19  1  0.215400  0.718900  0.365800  1
  Sb  Sb20  1  0.284600  0.781100  0.865800  1
  H  H21  1  0.415800  0.696900  0.631500  1
  H  H22  1  0.084200  0.803100  0.131500  1
  H  H23  1  0.584200  0.303100  0.368500  1
  H  H24  1  0.915800  0.196900  0.868500  1
  H  H25  1  0.274000  0.728300  0.689200  1
  H  H26  1  0.226000  0.771700  0.189200  1
  H  H27  1  0.726000  0.271700  0.310800  1
  H  H28  1  0.774000  0.228300  0.810800  1
  H  H29  1  0.061100  0.745900  0.668700  1
  H  H30  1  0.438900  0.754100  0.168700  1
  H  H31  1  0.938900  0.254100  0.331300  1
  H  H32  1  0.561100  0.245900  0.831300  1
  H  H33  1  0.989900  0.732100  0.590300  1
  H  H34  1  0.510100  0.767900  0.090300  1
  H  H35  1  0.010100  0.267900  0.409700  1
  H  H36  1  0.489900  0.232100  0.909700  1
  H  H37  1  0.131600  0.700700  0.532600  1
  H  H38  1  0.368400  0.799300  0.032600  1
  H  H39  1  0.868400  0.299300  0.467400  1
  H  H40  1  0.631600  0.200700  0.967400  1
  H  H41  1  0.344600  0.683100  0.553200  1
  H  H42  1  0.155400  0.816900  0.053200  1
  H  H43  1  0.655400  0.316900  0.446800  1
  H  H44  1  0.844600  0.183100  0.946800  1
  H  H45  1  0.846700  0.823600  0.444100  1
  H  H46  1  0.653300  0.676400  0.944100  1
  H  H47  1  0.153300  0.176400  0.555900  1
  H  H48  1  0.346700  0.323600  0.055900  1
  H  H49  1  0.945500  0.888200  0.470600  1
  H  H50  1  0.554500  0.611800  0.970600  1
  H  H51  1  0.054500  0.111800  0.529400  1
  H  H52  1  0.445500  0.388200  0.029400  1
  H  H53  1  0.002000  0.821700  0.448300  1
  H  H54  1  0.498000  0.678300  0.948300  1
  H  H55  1  0.998000  0.178300  0.551700  1
  H  H56  1  0.502000  0.321700  0.051700  1
  H  H57  1  0.883700  0.937600  0.569200  1
  H  H58  1  0.616300  0.562400  0.069200  1
  H  H59  1  0.116300  0.062400  0.430800  1
  H  H60  1  0.383700  0.437600  0.930800  1
  H  H61  1  0.908400  0.858900  0.554000  1
  H  H62  1  0.591600  0.641100  0.054000  1
  H  H63  1  0.091600  0.141100  0.446000  1
  H  H64  1  0.408400  0.358900  0.946000  1
  H  H65  1  0.032400  0.922900  0.566400  1
  H  H66  1  0.467600  0.577100  0.066400  1
  H  H67  1  0.967600  0.077100  0.433600  1
  H  H68  1  0.532400  0.422900  0.933600  1
  H  H69  1  0.846300  0.897500  0.123300  1.0
  H  H70  1  0.653700  0.602500  0.623300  1.0
  H  H71  1  0.153700  0.102500  0.876700  1.0
  H  H72  1  0.346300  0.397500  0.376700  1.0
  H  H73  1  0.749400  0.775400  0.135400  1.0
  H  H74  1  0.750600  0.724600  0.635400  1.0
  H  H75  1  0.250600  0.224600  0.864600  1.0
  H  H76  1  0.249400  0.275400  0.364600  1.0
  H  H77  1  0.813100  0.714200  0.199700  1.0
  H  H78  1  0.686900  0.785800  0.699700  1.0
  H  H79  1  0.186900  0.285800  0.800300  1.0
  H  H80  1  0.313100  0.214200  0.300300  1.0
  H  H81  1  0.979700  0.776500  0.250900  1.0
  H  H82  1  0.520300  0.723500  0.750900  1.0
  H  H83  1  0.020300  0.223500  0.749100  1.0
  H  H84  1  0.479700  0.276500  0.249100  1.0
  H  H85  1  0.145100  0.893700  0.270800  1.0
  H  H86  1  0.354900  0.606300  0.770800  1.0
  H  H87  1  0.854900  0.106300  0.729200  1.0
  H  H88  1  0.645100  0.393700  0.229200  1.0
  H  H89  1  0.372600  0.072200  0.205000  1.0
  H  H90  1  0.127400  0.427800  0.705000  1.0
  H  H91  1  0.627400  0.927800  0.795000  1.0
  H  H92  1  0.872600  0.572200  0.295000  1.0
  H  H93  1  0.550700  0.136600  0.248500  1.0
  H  H94  1  0.949300  0.363400  0.748500  1.0
  H  H95  1  0.449300  0.863400  0.751500  1.0
  H  H96  1  0.050700  0.636600  0.251500  1.0
  H  H97  1  0.547200  0.130600  0.330000  1.0
  H  H98  1  0.952800  0.369400  0.830000  1.0
  H  H99  1  0.452800  0.869400  0.670000  1.0
  H  H100  1  0.047200  0.630600  0.170000  1.0
  H  H101  1  0.194100  0.986100  0.325600  1.0
  H  H102  1  0.305900  0.513900  0.825600  1.0
  H  H103  1  0.805900  0.013900  0.674400  1.0
  H  H104  1  0.694100  0.486100  0.174400  1.0
  H  H105  1  0.436600  0.162800  0.400500  1.0
  H  H106  1  0.063400  0.337200  0.900500  1.0
  H  H107  1  0.563400  0.837200  0.599500  1.0
  H  H108  1  0.936600  0.662800  0.099500  1.0
  H  H109  1  0.300200  0.944300  0.392600  1.0
  H  H110  1  0.199800  0.555700  0.892600  1.0
  H  H111  1  0.699800  0.055700  0.607400  1.0
  H  H112  1  0.800200  0.444300  0.107400  1.0
  H  H113  1  0.273300  0.926400  0.624100  1.0
  H  H114  1  0.226700  0.573600  0.124100  1.0
  H  H115  1  0.726700  0.073600  0.375900  1.0
  H  H116  1  0.773300  0.426400  0.875900  1.0
  H  H117  1  0.425500  0.143200  0.632100  1.0
  H  H118  1  0.074500  0.356800  0.132100  1.0
  H  H119  1  0.574500  0.856800  0.367900  1.0
  H  H120  1  0.925500  0.643200  0.867900  1.0
  H  H121  1  0.259400  0.869500  0.466000  1.0
  H  H122  1  0.240600  0.630500  0.966000  1.0
  H  H123  1  0.740600  0.130500  0.534000  1.0
  H  H124  1  0.759400  0.369500  0.034000  1.0
  H  H125  1  0.250600  0.863100  0.545800  1.0
  H  H126  1  0.249400  0.636900  0.045800  1.0
  H  H127  1  0.749400  0.136900  0.454200  1.0
  H  H128  1  0.750600  0.363100  0.954200  1.0
  H  H129  1  0.467700  0.225100  0.478900  1.0
  H  H130  1  0.032300  0.274900  0.978900  1.0
  H  H131  1  0.532300  0.774900  0.521100  1.0
  H  H132  1  0.967700  0.725100  0.021100  1.0
  H  H133  1  0.467200  0.217900  0.558900  1.0
  H  H134  1  0.032800  0.282100  0.058900  1.0
  H  H135  1  0.532800  0.782100  0.441100  1.0
  H  H136  1  0.967200  0.717900  0.941100  1.0
  H  H137  1  0.512400  0.095400  0.704400  1.0
  H  H138  1  0.987600  0.404600  0.204400  1.0
  H  H139  1  0.487600  0.904600  0.295600  1.0
  H  H140  1  0.012400  0.595400  0.795600  1.0
  H  H141  1  0.487100  0.090600  0.785800  1.0
  H  H142  1  0.012900  0.409400  0.285800  1.0
  H  H143  1  0.512900  0.909400  0.214200  1.0
  H  H144  1  0.987100  0.590600  0.714200  1.0
  H  H145  1  0.290900  0.025500  0.819300  1.0
  H  H146  1  0.209100  0.474500  0.319300  1.0
  H  H147  1  0.709100  0.974500  0.180700  1.0
  H  H148  1  0.790900  0.525500  0.680700  1.0
  H  H149  1  0.147100  0.965600  0.689300  1.0
  H  H150  1  0.352900  0.534400  0.189300  1.0
  H  H151  1  0.852900  0.034400  0.310700  1.0
  H  H152  1  0.647100  0.465600  0.810700  1.0
  H  H153  1  0.094800  0.861300  0.740600  1.0
  H  H154  1  0.405200  0.638700  0.240600  1.0
  H  H155  1  0.905200  0.138700  0.259400  1.0
  H  H156  1  0.594800  0.361300  0.759400  1.0
  H  H157  1  0.941400  0.739200  0.753700  1.0
  H  H158  1  0.558600  0.760800  0.253700  1.0
  H  H159  1  0.058600  0.260800  0.246300  1.0
  H  H160  1  0.441400  0.239200  0.746300  1.0
  H  H161  1  0.762100  0.668200  0.795800  1.0
  H  H162  1  0.737900  0.831800  0.295800  1.0
  H  H163  1  0.237900  0.331800  0.204200  1.0
  H  H164  1  0.262100  0.168200  0.704200  1.0
  H  H165  1  0.656300  0.724900  0.852900  1.0
  H  H166  1  0.843700  0.775100  0.352900  1.0
  H  H167  1  0.343700  0.275100  0.147100  1.0
  H  H168  1  0.156300  0.224900  0.647100  1.0
  H  H169  1  0.722600  0.848700  0.865800  1.0
  H  H170  1  0.777400  0.651300  0.365800  1.0
  H  H171  1  0.277400  0.151300  0.134200  1.0
  H  H172  1  0.222600  0.348700  0.634200  1.0
  H  H173  1  0.503600  0.035000  0.096100  1.0
  H  H174  1  0.996400  0.465000  0.596100  1.0
  H  H175  1  0.496400  0.965000  0.903900  1.0
  H  H176  1  0.003600  0.535000  0.403900  1.0
  H  H177  1  0.423000  0.984000  0.056200  1.0
  H  H178  1  0.077000  0.516000  0.556200  1.0
  H  H179  1  0.577000  0.016000  0.943800  1.0
  H  H180  1  0.923000  0.484000  0.443800  1.0
  H  H181  1  0.470300  0.948200  0.102700  1.0
  H  H182  1  0.029700  0.551800  0.602700  1.0
  H  H183  1  0.529700  0.051800  0.897300  1.0
  H  H184  1  0.970300  0.448200  0.397300  1.0
  H  H185  1  0.858600  0.152600  0.049000  1.0
  H  H186  1  0.641400  0.347400  0.549000  1.0
  H  H187  1  0.141400  0.847400  0.951000  1.0
  H  H188  1  0.358600  0.652600  0.451000  1.0
  H  H189  1  0.748000  0.079400  0.043200  1.0
  H  H190  1  0.752000  0.420600  0.543200  1.0
  H  H191  1  0.252000  0.920600  0.956800  1.0
  H  H192  1  0.248000  0.579400  0.456800  1.0
  H  H193  1  0.886200  0.088500  0.015300  1.0
  H  H194  1  0.613800  0.411500  0.515300  1.0
  H  H195  1  0.113800  0.911500  0.984700  1.0
  H  H196  1  0.386200  0.588500  0.484700  1.0
  C  C197  1  0.329300  0.704000  0.623100  1
  C  C198  1  0.170700  0.796000  0.123100  1
  C  C199  1  0.670700  0.296000  0.376900  1
  C  C200  1  0.829300  0.204000  0.876900  1
  C  C201  1  0.245100  0.722700  0.657430  1
  C  C202  1  0.254900  0.777300  0.157430  1
  C  C203  1  0.754900  0.277300  0.342570  1
  C  C204  1  0.745100  0.222700  0.842570  1
  C  C205  1  0.118600  0.733100  0.645200  1
  C  C206  1  0.381400  0.766900  0.145200  1
  C  C207  1  0.881400  0.266900  0.354800  1
  C  C208  1  0.618600  0.233100  0.854800  1
  C  C209  1  0.076300  0.724900  0.598700  1
  C  C210  1  0.423700  0.775100  0.098700  1
  C  C211  1  0.923700  0.275100  0.401300  1
  C  C212  1  0.576300  0.224900  0.901300  1
  C  C213  1  0.160500  0.706300  0.564380  1
  C  C214  1  0.339500  0.793700  0.064380  1
  C  C215  1  0.839500  0.293700  0.435620  1
  C  C216  1  0.660500  0.206300  0.935620  1
  C  C217  1  0.287000  0.695800  0.576600  1
  C  C218  1  0.213000  0.804200  0.076600  1
  C  C219  1  0.713000  0.304200  0.423400  1
  C  C220  1  0.787000  0.195800  0.923400  1
  C  C221  1  0.961500  0.892100  0.401400  1
  C  C222  1  0.538500  0.607900  0.901400  1
  C  C223  1  0.038500  0.107900  0.598600  1
  C  C224  1  0.461500  0.392100  0.098600  1
  C  C225  1  0.937100  0.853400  0.444400  1
  C  C226  1  0.562900  0.646600  0.944400  1
  C  C227  1  0.062900  0.146600  0.555600  1
  C  C228  1  0.437100  0.353400  0.055600  1
  C  C229  1  0.931400  0.878700  0.622700  1
  C  C230  1  0.568600  0.621300  0.122700  1
  C  C231  1  0.068600  0.121300  0.377300  1
  C  C232  1  0.431400  0.378700  0.877300  1
  C  C233  1  0.939600  0.901300  0.574200  1
  C  C234  1  0.560400  0.598700  0.074200  1
  C  C235  1  0.060400  0.098700  0.425800  1
  C  C236  1  0.439600  0.401300  0.925800  1
  C  C237  1  0.873900  0.872800  0.149600  1.0
  C  C238  1  0.626100  0.627200  0.649600  1.0
  C  C239  1  0.126100  0.127200  0.850400  1.0
  C  C240  1  0.373900  0.372800  0.350400  1.0
  C  C241  1  0.815200  0.799800  0.156700  1.0
  C  C242  1  0.684800  0.700200  0.656700  1.0
  C  C243  1  0.184800  0.200200  0.843300  1.0
  C  C244  1  0.315200  0.299800  0.343300  1.0
  C  C245  1  0.852900  0.764000  0.194100  1.0
  C  C246  1  0.647100  0.736000  0.694100  1.0
  C  C247  1  0.147100  0.236000  0.805900  1.0
  C  C248  1  0.352900  0.264000  0.305900  1.0
  C  C249  1  0.950900  0.800700  0.224650  1.0
  C  C250  1  0.549100  0.699300  0.724650  1.0
  C  C251  1  0.049100  0.199300  0.775350  1.0
  C  C252  1  0.450900  0.300700  0.275350  1.0
  C  C253  1  0.005000  0.873700  0.215560  1.0
  C  C254  1  0.495000  0.626300  0.715560  1.0
  C  C255  1  0.995000  0.126300  0.784440  1.0
  C  C256  1  0.505000  0.373700  0.284440  1.0
  C  C257  1  0.111800  0.915600  0.244330  1.0
  C  C258  1  0.388200  0.584400  0.744330  1.0
  C  C259  1  0.888200  0.084400  0.755670  1.0
  C  C260  1  0.611800  0.415600  0.255670  1.0
  C  C261  1  0.266800  0.022700  0.261300  1.0
  C  C262  1  0.233200  0.477300  0.761300  1.0
  C  C263  1  0.733200  0.977300  0.738700  1.0
  C  C264  1  0.766800  0.522700  0.238700  1.0
  C  C265  1  0.372700  0.068100  0.238280  1.0
  C  C266  1  0.127300  0.431900  0.738280  1.0
  C  C267  1  0.627300  0.931900  0.761720  1.0
  C  C268  1  0.872700  0.568100  0.261720  1.0
  C  C269  1  0.477300  0.107000  0.264110  1.0
  C  C270  1  0.022700  0.393000  0.764110  1.0
  C  C271  1  0.522700  0.893000  0.735890  1.0
  C  C272  1  0.977300  0.607000  0.235890  1.0
  C  C273  1  0.475500  0.102800  0.312560  1.0
  C  C274  1  0.024500  0.397200  0.812560  1.0
  C  C275  1  0.524500  0.897200  0.687440  1.0
  C  C276  1  0.975500  0.602800  0.187440  1.0
  C  C277  1  0.370500  0.058700  0.336380  1.0
  C  C278  1  0.129500  0.441300  0.836380  1.0
  C  C279  1  0.629500  0.941300  0.663620  1.0
  C  C280  1  0.870500  0.558700  0.163620  1.0
  C  C281  1  0.265600  0.017500  0.310100  1.0
  C  C282  1  0.234400  0.482500  0.810100  1.0
  C  C283  1  0.734400  0.982500  0.689900  1.0
  C  C284  1  0.765600  0.517500  0.189900  1.0
  C  C285  1  0.367600  0.054200  0.388530  1.0
  C  C286  1  0.132400  0.445800  0.888530  1.0
  C  C287  1  0.632400  0.945800  0.611470  1.0
  C  C288  1  0.867600  0.554200  0.111470  1.0
  C  C289  1  0.406900  0.117200  0.415750  1.0
  C  C290  1  0.093100  0.382800  0.915750  1.0
  C  C291  1  0.593100  0.882800  0.584250  1.0
  C  C292  1  0.906900  0.617200  0.084250  1.0
  C  C293  1  0.403300  0.114500  0.464760  1.0
  C  C294  1  0.096700  0.385500  0.964760  1.0
  C  C295  1  0.596700  0.885500  0.535240  1.0
  C  C296  1  0.903300  0.614500  0.035240  1.0
  C  C297  1  0.360900  0.046100  0.487500  1.0
  C  C298  1  0.139100  0.453900  0.987500  1.0
  C  C299  1  0.639100  0.953900  0.512500  1.0
  C  C300  1  0.860900  0.546100  0.012500  1.0
  C  C301  1  0.322500  0.981600  0.459950  1.0
  C  C302  1  0.177500  0.518400  0.959950  1.0
  C  C303  1  0.677500  0.018400  0.540050  1.0
  C  C304  1  0.822500  0.481600  0.040050  1.0
  C  C305  1  0.326300  0.987200  0.411030  1.0
  C  C306  1  0.173700  0.512800  0.911030  1.0
  C  C307  1  0.673700  0.012800  0.588970  1.0
  C  C308  1  0.826300  0.487200  0.088970  1.0
  C  C309  1  0.357200  0.042200  0.537490  1.0
  C  C310  1  0.142800  0.457800  0.037490  1.0
  C  C311  1  0.642800  0.957800  0.462510  1.0
  C  C312  1  0.857200  0.542200  0.962510  1.0
  C  C313  1  0.312700  0.973500  0.560080  1.0
  C  C314  1  0.187300  0.526500  0.060080  1.0
  C  C315  1  0.687300  0.026500  0.439920  1.0
  C  C316  1  0.812700  0.473500  0.939920  1.0
  C  C317  1  0.305900  0.971600  0.608870  1.0
  C  C318  1  0.194100  0.528400  0.108870  1.0
  C  C319  1  0.694100  0.028400  0.391130  1.0
  C  C320  1  0.805900  0.471600  0.891130  1.0
  C  C321  1  0.345700  0.034500  0.636210  1.0
  C  C322  1  0.154300  0.465500  0.136210  1.0
  C  C323  1  0.654300  0.965500  0.363790  1.0
  C  C324  1  0.845700  0.534500  0.863790  1.0
  C  C325  1  0.394400  0.100800  0.613740  1.0
  C  C326  1  0.105600  0.399200  0.113740  1.0
  C  C327  1  0.605600  0.899200  0.386260  1.0
  C  C328  1  0.894400  0.600800  0.886260  1.0
  C  C329  1  0.398500  0.105900  0.564640  1.0
  C  C330  1  0.101500  0.394100  0.064640  1.0
  C  C331  1  0.601500  0.894100  0.435360  1.0
  C  C332  1  0.898500  0.605900  0.935360  1.0
  C  C333  1  0.282700  0.913100  0.483850  1.0
  C  C334  1  0.217300  0.586900  0.983850  1.0
  C  C335  1  0.717300  0.086900  0.516150  1.0
  C  C336  1  0.782700  0.413100  0.016150  1.0
  C  C337  1  0.277800  0.909400  0.531110  1.0
  C  C338  1  0.222200  0.590600  0.031110  1.0
  C  C339  1  0.722200  0.090600  0.468890  1.0
  C  C340  1  0.777800  0.409400  0.968890  1.0
  C  C341  1  0.441300  0.178800  0.493600  1.0
  C  C342  1  0.058700  0.321200  0.993600  1.0
  C  C343  1  0.558700  0.821200  0.506400  1.0
  C  C344  1  0.941300  0.678800  0.006400  1.0
  C  C345  1  0.440100  0.174700  0.540890  1.0
  C  C346  1  0.059900  0.325300  0.040890  1.0
  C  C347  1  0.559900  0.825300  0.459110  1.0
  C  C348  1  0.940100  0.674700  0.959110  1.0
  C  C349  1  0.333100  0.030800  0.688160  1.0
  C  C350  1  0.166900  0.469200  0.188160  1.0
  C  C351  1  0.666900  0.969200  0.311840  1.0
  C  C352  1  0.833100  0.530800  0.811840  1.0
  C  C353  1  0.432900  0.067900  0.717740  1.0
  C  C354  1  0.067100  0.432100  0.217740  1.0
  C  C355  1  0.567100  0.932100  0.282260  1.0
  C  C356  1  0.932900  0.567900  0.782260  1.0
  C  C357  1  0.417800  0.065400  0.766180  1.0
  C  C358  1  0.082200  0.434600  0.266180  1.0
  C  C359  1  0.582200  0.934600  0.233820  1.0
  C  C360  1  0.917800  0.565400  0.733820  1.0
  C  C361  1  0.302200  0.026300  0.786130  1.0
  C  C362  1  0.197800  0.473700  0.286130  1.0
  C  C363  1  0.697800  0.973700  0.213870  1.0
  C  C364  1  0.802200  0.526300  0.713870  1.0
  C  C365  1  0.202300  0.988000  0.757200  1.0
  C  C366  1  0.297700  0.512000  0.257200  1.0
  C  C367  1  0.797700  0.012000  0.242800  1.0
  C  C368  1  0.702300  0.488000  0.742800  1.0
  C  C369  1  0.216700  0.990900  0.708750  1.0
  C  C370  1  0.283300  0.509100  0.208750  1.0
  C  C371  1  0.783300  0.009100  0.291250  1.0
  C  C372  1  0.716700  0.490900  0.791250  1.0
  C  C373  1  0.046900  0.880400  0.764690  1.0
  C  C374  1  0.453100  0.619600  0.264690  1.0
  C  C375  1  0.953100  0.119600  0.235310  1.0
  C  C376  1  0.546900  0.380400  0.735310  1.0
  C  C377  1  0.929600  0.833800  0.786610  1.0
  C  C378  1  0.570400  0.666200  0.286610  1.0
  C  C379  1  0.070400  0.166200  0.213390  1.0
  C  C380  1  0.429600  0.333800  0.713390  1.0
  C  C381  1  0.894800  0.760900  0.776900  1.0
  C  C382  1  0.605200  0.739100  0.276900  1.0
  C  C383  1  0.105200  0.239100  0.223100  1.0
  C  C384  1  0.394800  0.260900  0.723100  1.0
  C  C385  1  0.789700  0.719000  0.801900  1.0
  C  C386  1  0.710300  0.781000  0.301900  1.0
  C  C387  1  0.210300  0.281000  0.198100  1.0
  C  C388  1  0.289700  0.219000  0.698100  1.0
  C  C389  1  0.727400  0.752400  0.835000  1.0
  C  C390  1  0.772600  0.747600  0.335000  1.0
  C  C391  1  0.272600  0.247600  0.165000  1.0
  C  C392  1  0.227400  0.252400  0.665000  1.0
  C  C393  1  0.767700  0.826200  0.842600  1.0
  C  C394  1  0.732300  0.673800  0.342600  1.0
  C  C395  1  0.232300  0.173800  0.157400  1.0
  C  C396  1  0.267700  0.326200  0.657400  1.0
  C  C397  1  0.313200  0.995300  0.112900  1.0
  C  C398  1  0.186800  0.504700  0.612900  1.0
  C  C399  1  0.686800  0.004700  0.887100  1.0
  C  C400  1  0.813200  0.495300  0.387100  1.0
  C  C401  1  0.437600  0.990300  0.090100  1.0
  C  C402  1  0.062400  0.509700  0.590100  1.0
  C  C403  1  0.562400  0.009700  0.909900  1.0
  C  C404  1  0.937600  0.490300  0.409900  1.0
  C  C405  1  0.902500  0.066900  0.084200  1.0
  C  C406  1  0.597500  0.433100  0.584200  1.0
  C  C407  1  0.097500  0.933100  0.915800  1.0
  C  C408  1  0.402500  0.566900  0.415800  1.0
  C  C409  1  0.844000  0.099500  0.044700  1.0
  C  C410  1  0.656000  0.400500  0.544700  1.0
  C  C411  1  0.156000  0.900500  0.955300  1.0
  C  C412  1  0.344000  0.599500  0.455300  1.0
  N  N413  1  0.980000  0.920900  0.366400  1
  N  N414  1  0.520000  0.579100  0.866400  1
  N  N415  1  0.020000  0.079100  0.633600  1
  N  N416  1  0.480000  0.420900  0.133600  1
  N  N417  1  0.926200  0.860600  0.661000  1
  N  N418  1  0.573800  0.639400  0.161000  1
  N  N419  1  0.073800  0.139400  0.339000  1
  N  N420  1  0.426200  0.360600  0.839000  1
  N  N421  1  0.967100  0.909300  0.178020  1.0
  N  N422  1  0.532900  0.590700  0.678020  1.0
  N  N423  1  0.032900  0.090700  0.821980  1.0
  N  N424  1  0.467100  0.409300  0.321980  1.0
  N  N425  1  0.159900  0.982100  0.233520  1.0
  N  N426  1  0.340100  0.517900  0.733520  1.0
  N  N427  1  0.840100  0.017900  0.766480  1.0
  N  N428  1  0.659900  0.482100  0.266480  1.0
  N  N429  1  0.083700  0.946200  0.778160  1.0
  N  N430  1  0.416300  0.553800  0.278160  1.0
  N  N431  1  0.916300  0.053800  0.221840  1.0
  N  N432  1  0.583700  0.446200  0.721840  1.0
  N  N433  1  0.866400  0.867400  0.818910  1.0
  N  N434  1  0.633600  0.632600  0.318910  1.0
  N  N435  1  0.133600  0.132600  0.181090  1.0
  N  N436  1  0.366400  0.367400  0.681090  1.0
  N  N437  1  0.218700  0.002000  0.130850  1.0
  N  N438  1  0.281300  0.498000  0.630850  1.0
  N  N439  1  0.781300  0.998000  0.869150  1.0
  N  N440  1  0.718700  0.502000  0.369150  1.0
  N  N441  1  0.948100  0.042800  0.114620  1.0
  N  N442  1  0.551900  0.457200  0.614620  1.0
  N  N443  1  0.051900  0.957200  0.885380  1.0
  N  N444  1  0.448100  0.542800  0.385380  1.0
  F  F445  1  0.689200  0.543400  0.480900  1
  F  F446  1  0.810800  0.956600  0.980900  1
  F  F447  1  0.310800  0.456600  0.519100  1
  F  F448  1  0.189200  0.043400  0.019100  1
  F  F449  1  0.591900  0.634200  0.534940  1
  F  F450  1  0.908100  0.865800  0.034940  1
  F  F451  1  0.408100  0.365800  0.465060  1
  F  F452  1  0.091900  0.134200  0.965060  1
  F  F453  1  0.690500  0.676800  0.453360  1
  F  F454  1  0.809500  0.823200  0.953360  1
  F  F455  1  0.309500  0.323200  0.546640  1
  F  F456  1  0.190500  0.176800  0.046640  1
  F  F457  1  0.817800  0.728000  0.531600  1
  F  F458  1  0.682200  0.772000  0.031600  1
  F  F459  1  0.182200  0.272000  0.468400  1
  F  F460  1  0.317800  0.228000  0.968400  1
  F  F461  1  0.812400  0.592000  0.559520  1
  F  F462  1  0.687600  0.908000  0.059520  1
  F  F463  1  0.187600  0.408000  0.440480  1
  F  F464  1  0.312400  0.092000  0.940480  1
  F  F465  1  0.919700  0.636500  0.476700  1
  F  F466  1  0.580300  0.863500  0.976700  1
  F  F467  1  0.080300  0.363500  0.523300  1
  F  F468  1  0.419700  0.136500  0.023300  1
  F  F469  1  0.947400  0.261400  0.671540  1
  F  F470  1  0.552600  0.238600  0.171540  1
  F  F471  1  0.052600  0.738600  0.328460  1
  F  F472  1  0.447400  0.761400  0.828460  1
  F  F473  1  0.816100  0.251200  0.590060  1
  F  F474  1  0.683900  0.248800  0.090060  1
  F  F475  1  0.183900  0.748800  0.409940  1
  F  F476  1  0.316100  0.751200  0.909940  1
  F  F477  1  0.829700  0.367200  0.644600  1
  F  F478  1  0.670300  0.132800  0.144600  1
  F  F479  1  0.170300  0.632800  0.355400  1
  F  F480  1  0.329700  0.867200  0.855400  1
  F  F481  1  0.603700  0.273300  0.635380  1
  F  F482  1  0.896300  0.226700  0.135380  1
  F  F483  1  0.396300  0.726700  0.364620  1
  F  F484  1  0.103700  0.773300  0.864620  1
  F  F485  1  0.722100  0.167300  0.661330  1
  F  F486  1  0.777900  0.332700  0.161330  1
  F  F487  1  0.277900  0.832700  0.338670  1
  F  F488  1  0.222100  0.667300  0.838670  1
  F  F489  1  0.736600  0.280600  0.714970  1
  F  F490  1  0.763400  0.219400  0.214970  1
  F  F491  1  0.263400  0.719400  0.285030  1
  F  F492  1  0.236600  0.780600  0.785030  1
