# generated using pymatgen
data_FeNiBPH42C48N15OF6
_symmetry_space_group_name_H-M   'P 1'
_cell_length_a   9.21200000
_cell_length_b   13.53500000
_cell_length_c   20.11500000
_cell_angle_alpha   101.84000000
_cell_angle_beta   92.84600000
_cell_angle_gamma   100.06300000
_symmetry_Int_Tables_number   1
_chemical_formula_structural   FeNiBPH42C48N15OF6
_chemical_formula_sum   'Fe2 Ni2 B2 P2 H84 C96 N30 O2 F12'
_cell_volume   2407.37303303
_cell_formula_units_Z   2
loop_
 _symmetry_equiv_pos_site_id
 _symmetry_equiv_pos_as_xyz
  1  'x, y, z'
loop_
 _atom_site_type_symbol
 _atom_site_label
 _atom_site_symmetry_multiplicity
 _atom_site_fract_x
 _atom_site_fract_y
 _atom_site_fract_z
 _atom_site_occupancy
  Fe  Fe1  1  0.967200  0.281180  0.543840  1.0
  Fe  Fe2  1  0.032800  0.718820  0.456160  1.0
  Ni  Ni3  1  0.067120  0.372840  0.319250  1.0
  Ni  Ni4  1  0.932880  0.627160  0.680750  1.0
  B  B5  1  0.236500  0.204600  0.601700  1.0
  B  B6  1  0.763500  0.795400  0.398300  1.0
  P  P7  1  0.426200  0.706300  0.199200  1
  P  P8  1  0.573800  0.293700  0.800800  1
  H  H9  1  0.415400  0.030000  0.362200  1
  H  H10  1  0.584600  0.970000  0.637800  1
  H  H11  1  0.510800  0.992900  0.417800  1
  H  H12  1  0.489200  0.007100  0.582200  1
  H  H13  1  0.450600  0.916200  0.346300  1
  H  H14  1  0.549400  0.083800  0.653700  1
  H  H15  1  0.854400  0.742700  0.124800  1
  H  H16  1  0.145600  0.257300  0.875200  1
  H  H17  1  0.841500  0.752900  0.052800  1
  H  H18  1  0.158500  0.247100  0.947200  1
  H  H19  1  0.700600  0.730400  0.094700  1
  H  H20  1  0.299400  0.269600  0.905300  1
  H  H21  1  0.208500  0.490400  0.248300  1.0
  H  H22  1  0.791500  0.509600  0.751700  1.0
  H  H23  1  0.950900  0.178800  0.290000  1.0
  H  H24  1  0.049100  0.821200  0.710000  1.0
  H  H25  1  0.322600  0.179300  0.620000  1.0
  H  H26  1  0.677400  0.820700  0.380000  1.0
  H  H27  1  0.096700  0.529200  0.163500  1.0
  H  H28  1  0.903300  0.470800  0.836500  1.0
  H  H29  1  0.959000  0.484800  0.060700  1.0
  H  H30  1  0.041000  0.515200  0.939300  1.0
  H  H31  1  0.993900  0.095100  0.056400  1.0
  H  H32  1  0.006100  0.904900  0.943600  1.0
  H  H33  1  0.829900  0.051000  0.960000  1.0
  H  H34  1  0.170100  0.949000  0.040000  1.0
  H  H35  1  0.754800  0.174200  0.909300  1.0
  H  H36  1  0.245200  0.825800  0.090700  1.0
  H  H37  1  0.815500  0.347700  0.962900  1.0
  H  H38  1  0.184500  0.652300  0.037100  1.0
  H  H39  1  0.105800  0.073000  0.288000  1.0
  H  H40  1  0.894200  0.927000  0.712000  1.0
  H  H41  1  0.296900  0.000400  0.242900  1.0
  H  H42  1  0.703100  0.999600  0.757100  1.0
  H  H43  1  0.303000  0.236700  0.059500  1.0
  H  H44  1  0.697000  0.763300  0.940500  1.0
  H  H45  1  0.491400  0.161100  0.013700  1.0
  H  H46  1  0.508600  0.838900  0.986300  1.0
  H  H47  1  0.589900  0.044400  0.064500  1.0
  H  H48  1  0.410100  0.955600  0.935500  1.0
  H  H49  1  0.493200  0.994500  0.157700  1.0
  H  H50  1  0.506800  0.005500  0.842300  1.0
  H  H51  1  0.420200  0.465900  0.257700  1.0
  H  H52  1  0.579800  0.534100  0.742300  1.0
  H  H53  1  0.373000  0.358400  0.204300  1.0
  H  H54  1  0.627000  0.641600  0.795700  1.0
  H  H55  1  0.582500  0.319200  0.283900  1.0
  H  H56  1  0.417500  0.680800  0.716100  1.0
  H  H57  1  0.625000  0.246400  0.377300  1.0
  H  H58  1  0.375000  0.753600  0.622700  1.0
  H  H59  1  0.437000  0.224300  0.450700  1.0
  H  H60  1  0.563000  0.775700  0.549300  1.0
  H  H61  1  0.213200  0.277500  0.428500  1.0
  H  H62  1  0.786800  0.722500  0.571500  1.0
  H  H63  1  0.758000  0.177500  0.232800  1.0
  H  H64  1  0.242000  0.822500  0.767200  1.0
  H  H65  1  0.851900  0.183200  0.168500  1.0
  H  H66  1  0.148100  0.816800  0.831500  1.0
  H  H67  1  0.669700  0.285900  0.130200  1.0
  H  H68  1  0.330300  0.714100  0.869800  1.0
  H  H69  1  0.611700  0.450100  0.139100  1.0
  H  H70  1  0.388300  0.549900  0.860900  1.0
  H  H71  1  0.719600  0.582400  0.231600  1.0
  H  H72  1  0.280400  0.417600  0.768400  1.0
  H  H73  1  0.895900  0.551200  0.308000  1.0
  H  H74  1  0.104100  0.448800  0.692000  1.0
  H  H75  1  0.803700  0.252200  0.684600  1.0
  H  H76  1  0.196300  0.747800  0.315400  1.0
  H  H77  1  0.922600  0.172300  0.771500  1.0
  H  H78  1  0.077400  0.827700  0.228500  1.0
  H  H79  1  0.170100  0.148000  0.731900  1.0
  H  H80  1  0.829900  0.852000  0.268100  1.0
  H  H81  1  0.931200  0.088600  0.408400  1.0
  H  H82  1  0.068800  0.911400  0.591600  1.0
  H  H83  1  0.123300  0.972400  0.394200  1.0
  H  H84  1  0.876700  0.027600  0.605800  1.0
  H  H85  1  0.293500  0.029000  0.501400  1.0
  H  H86  1  0.706500  0.971000  0.498600  1.0
  H  H87  1  0.198400  0.496200  0.533400  1.0
  H  H88  1  0.801600  0.503800  0.466600  1.0
  H  H89  1  0.469300  0.520400  0.566500  1.0
  H  H90  1  0.530700  0.479600  0.433500  1.0
  H  H91  1  0.506300  0.367100  0.611900  1.0
  H  H92  1  0.493700  0.632900  0.388100  1.0
  C  C93  1  0.489300  0.988000  0.368900  1
  C  C94  1  0.510700  0.012000  0.631100  1
  C  C95  1  0.628300  0.026200  0.339000  1
  C  C96  1  0.371700  0.973800  0.661000  1
  C  C97  1  0.803700  0.766200  0.098000  1
  C  C98  1  0.196300  0.233800  0.902000  1
  C  C99  1  0.820000  0.877100  0.122400  1
  C  C100  1  0.180000  0.122900  0.877600  1
  C  C101  1  0.953300  0.316300  0.454900  1.0
  C  C102  1  0.046700  0.683700  0.545100  1.0
  C  C103  1  0.100300  0.597400  0.411300  1.0
  C  C104  1  0.899700  0.402600  0.588700  1.0
  C  C105  1  0.765700  0.208700  0.525900  1.0
  C  C106  1  0.234300  0.791300  0.474100  1.0
  C  C107  1  0.093400  0.284200  0.137200  1.0
  C  C108  1  0.906600  0.715800  0.862800  1.0
  C  C109  1  0.123700  0.385100  0.170500  1.0
  C  C110  1  0.876300  0.614900  0.829500  1.0
  C  C111  1  0.072900  0.459000  0.140500  1.0
  C  C112  1  0.927100  0.541000  0.859500  1.0
  C  C113  1  0.991000  0.432700  0.079600  1.0
  C  C114  1  0.009000  0.567300  0.920400  1.0
  C  C115  1  0.952000  0.329300  0.043800  1.0
  C  C116  1  0.048000  0.670700  0.956200  1.0
  C  C117  1  0.003800  0.251600  0.072400  1.0
  C  C118  1  0.996200  0.748400  0.927600  1.0
  C  C119  1  0.958500  0.147300  0.038700  1.0
  C  C120  1  0.041500  0.852700  0.961300  1.0
  C  C121  1  0.863500  0.121600  0.980700  1.0
  C  C122  1  0.136500  0.878400  0.019300  1.0
  C  C123  1  0.815200  0.194800  0.951300  1.0
  C  C124  1  0.184800  0.805200  0.048700  1.0
  C  C125  1  0.853600  0.298000  0.982100  1.0
  C  C126  1  0.146400  0.702000  0.017900  1.0
  C  C127  1  0.151700  0.203700  0.167900  1.0
  C  C128  1  0.848300  0.796300  0.832100  1.0
  C  C129  1  0.095500  0.171400  0.223200  1.0
  C  C130  1  0.904500  0.828600  0.776800  1.0
  C  C131  1  0.149600  0.094700  0.250400  1.0
  C  C132  1  0.850400  0.905300  0.749600  1.0
  C  C133  1  0.262200  0.051700  0.224000  1.0
  C  C134  1  0.737800  0.948300  0.776000  1.0
  C  C135  1  0.327900  0.084100  0.167600  1.0
  C  C136  1  0.672100  0.915900  0.832400  1.0
  C  C137  1  0.269400  0.159000  0.137800  1.0
  C  C138  1  0.730600  0.841000  0.862200  1.0
  C  C139  1  0.337600  0.186800  0.079800  1.0
  C  C140  1  0.662400  0.813200  0.920200  1.0
  C  C141  1  0.451400  0.143000  0.053100  1.0
  C  C142  1  0.548600  0.857000  0.946900  1.0
  C  C143  1  0.509100  0.072300  0.083000  1.0
  C  C144  1  0.490900  0.927700  0.917000  1.0
  C  C145  1  0.452100  0.042700  0.138000  1.0
  C  C146  1  0.547900  0.957300  0.862000  1.0
  C  C147  1  0.349800  0.399400  0.247700  1.0
  C  C148  1  0.650200  0.600600  0.752300  1.0
  C  C149  1  0.372800  0.342700  0.304500  1.0
  C  C150  1  0.627200  0.657300  0.695500  1.0
  C  C151  1  0.508600  0.310800  0.314700  1.0
  C  C152  1  0.491400  0.689200  0.685300  1.0
  C  C153  1  0.533500  0.267200  0.369400  1.0
  C  C154  1  0.466500  0.732800  0.630600  1.0
  C  C155  1  0.423200  0.254400  0.412700  1.0
  C  C156  1  0.576800  0.745600  0.587300  1.0
  C  C157  1  0.289700  0.287000  0.399100  1.0
  C  C158  1  0.710300  0.713000  0.600900  1.0
  C  C159  1  0.843300  0.217800  0.216100  1.0
  C  C160  1  0.156700  0.782200  0.783900  1.0
  C  C161  1  0.813900  0.324200  0.217100  1.0
  C  C162  1  0.186100  0.675800  0.782900  1.0
  C  C163  1  0.713500  0.340600  0.167100  1.0
  C  C164  1  0.286500  0.659400  0.832900  1.0
  C  C165  1  0.679400  0.437800  0.172300  1.0
  C  C166  1  0.320600  0.562200  0.827700  1.0
  C  C167  1  0.744700  0.516200  0.226100  1.0
  C  C168  1  0.255300  0.483800  0.773900  1.0
  C  C169  1  0.847700  0.496600  0.271900  1.0
  C  C170  1  0.152300  0.503400  0.728100  1.0
  C  C171  1  0.897400  0.232000  0.682700  1.0
  C  C172  1  0.102600  0.768000  0.317300  1.0
  C  C173  1  0.962800  0.188500  0.731600  1.0
  C  C174  1  0.037200  0.811500  0.268400  1.0
  C  C175  1  0.098500  0.174700  0.708900  1.0
  C  C176  1  0.901500  0.825300  0.291100  1.0
  C  C177  1  0.012700  0.092000  0.440200  1.0
  C  C178  1  0.987300  0.908000  0.559800  1.0
  C  C179  1  0.118200  0.026600  0.432000  1.0
  C  C180  1  0.881800  0.973400  0.568000  1.0
  C  C181  1  0.211800  0.059200  0.491200  1.0
  C  C182  1  0.788200  0.940800  0.508800  1.0
  C  C183  1  0.245100  0.449000  0.551600  1.0
  C  C184  1  0.754900  0.551000  0.448400  1.0
  C  C185  1  0.395300  0.463700  0.570000  1.0
  C  C186  1  0.604700  0.536300  0.430000  1.0
  C  C187  1  0.414600  0.379000  0.594600  1.0
  C  C188  1  0.585400  0.621000  0.405400  1.0
  N  N189  1  0.732800  0.053200  0.313400  1
  N  N190  1  0.267200  0.946800  0.686600  1
  N  N191  1  0.822900  0.963100  0.141100  1
  N  N192  1  0.177100  0.036900  0.858900  1
  N  N193  1  0.956900  0.332500  0.400200  1.0
  N  N194  1  0.043100  0.667500  0.599800  1.0
  N  N195  1  0.127200  0.522100  0.379100  1.0
  N  N196  1  0.872800  0.477900  0.620900  1.0
  N  N197  1  0.642500  0.162700  0.516900  1.0
  N  N198  1  0.357500  0.837300  0.483100  1.0
  N  N199  1  0.197200  0.419100  0.239200  1.0
  N  N200  1  0.802800  0.580900  0.760800  1.0
  N  N201  1  0.980700  0.218600  0.258700  1.0
  N  N202  1  0.019300  0.781400  0.741300  1.0
  N  N203  1  0.265600  0.330900  0.346500  1.0
  N  N204  1  0.734400  0.669100  0.653500  1.0
  N  N205  1  0.882000  0.401900  0.267000  1.0
  N  N206  1  0.118000  0.598100  0.733000  1.0
  N  N207  1  0.989900  0.240800  0.631800  1.0
  N  N208  1  0.010100  0.759200  0.368200  1.0
  N  N209  1  0.047500  0.160700  0.501100  1.0
  N  N210  1  0.952500  0.839300  0.498900  1.0
  N  N211  1  0.173400  0.358900  0.563000  1.0
  N  N212  1  0.826600  0.641100  0.437000  1.0
  N  N213  1  0.114400  0.204600  0.649400  1.0
  N  N214  1  0.885600  0.795400  0.350600  1.0
  N  N215  1  0.171900  0.138900  0.532000  1.0
  N  N216  1  0.828100  0.861100  0.468000  1.0
  N  N217  1  0.282600  0.315100  0.590100  1.0
  N  N218  1  0.717400  0.684900  0.409900  1.0
  O  O219  1  0.331500  0.454000  0.996400  1
  O  O220  1  0.668500  0.546000  0.003600  1
  F  F221  1  0.254500  0.689400  0.173100  1
  F  F222  1  0.745500  0.310600  0.826900  1
  F  F223  1  0.387300  0.658700  0.262800  1
  F  F224  1  0.612700  0.341300  0.737200  1
  F  F225  1  0.468900  0.747600  0.133000  1
  F  F226  1  0.531100  0.252400  0.867000  1
  F  F227  1  0.433300  0.590400  0.160400  1
  F  F228  1  0.566700  0.409600  0.839600  1
  F  F229  1  0.419000  0.821500  0.235900  1
  F  F230  1  0.581000  0.178500  0.764100  1
  F  F231  1  0.598500  0.724200  0.227300  1
  F  F232  1  0.401500  0.275800  0.772700  1
