# generated using pymatgen
data_Cu2H52C86N4(Cl4O3)3
_symmetry_space_group_name_H-M   'P 1'
_cell_length_a   12.65280000
_cell_length_b   20.12180000
_cell_length_c   30.26300000
_cell_angle_alpha   90.00000000
_cell_angle_beta   100.81500000
_cell_angle_gamma   90.00000000
_symmetry_Int_Tables_number   1
_chemical_formula_structural   Cu2H52C86N4(Cl4O3)3
_chemical_formula_sum   'Cu8 H208 C344 N16 Cl48 O36'
_cell_volume   7568.01966693
_cell_formula_units_Z   4
loop_
 _symmetry_equiv_pos_site_id
 _symmetry_equiv_pos_as_xyz
  1  'x, y, z'
loop_
 _atom_site_type_symbol
 _atom_site_label
 _atom_site_symmetry_multiplicity
 _atom_site_fract_x
 _atom_site_fract_y
 _atom_site_fract_z
 _atom_site_occupancy
  Cu  Cu1  1  0.376750  0.329122  0.817065  1
  Cu  Cu2  1  0.376750  0.170878  0.317065  1
  Cu  Cu3  1  0.623250  0.670878  0.182935  1
  Cu  Cu4  1  0.623250  0.829122  0.682935  1
  Cu  Cu5  1  0.445260  0.362469  0.363590  1
  Cu  Cu6  1  0.445260  0.137531  0.863590  1
  Cu  Cu7  1  0.554740  0.637531  0.636410  1
  Cu  Cu8  1  0.554740  0.862469  0.136410  1
  H  H9  1  0.717300  0.345800  0.883000  1
  H  H10  1  0.717300  0.154200  0.383000  1
  H  H11  1  0.282700  0.654200  0.117000  1
  H  H12  1  0.282700  0.845800  0.617000  1
  H  H13  1  0.869600  0.328500  0.855900  1
  H  H14  1  0.869600  0.171500  0.355900  1
  H  H15  1  0.130400  0.671500  0.144100  1
  H  H16  1  0.130400  0.828500  0.644100  1
  H  H17  1  0.964100  0.297400  0.794600  1
  H  H18  1  0.964100  0.202600  0.294600  1
  H  H19  1  0.035900  0.702600  0.205400  1
  H  H20  1  0.035900  0.797400  0.705400  1
  H  H21  1  0.959000  0.258200  0.722900  1
  H  H22  1  0.959000  0.241800  0.222900  1
  H  H23  1  0.041000  0.741800  0.277100  1
  H  H24  1  0.041000  0.758200  0.777100  1
  H  H25  1  0.795100  0.234900  0.676800  1
  H  H26  1  0.795100  0.265100  0.176800  1
  H  H27  1  0.204900  0.765100  0.323200  1
  H  H28  1  0.204900  0.734900  0.823200  1
  H  H29  1  0.637400  0.251800  0.701400  1
  H  H30  1  0.637400  0.248200  0.201400  1
  H  H31  1  0.362600  0.748200  0.298600  1
  H  H32  1  0.362600  0.751800  0.798600  1
  H  H33  1  0.507800  0.247000  0.730900  1
  H  H34  1  0.507800  0.253000  0.230900  1
  H  H35  1  0.492200  0.753000  0.269100  1
  H  H36  1  0.492200  0.747000  0.769100  1
  H  H37  1  0.366500  0.273800  0.675600  1
  H  H38  1  0.366500  0.226200  0.175600  1
  H  H39  1  0.633500  0.726200  0.324400  1
  H  H40  1  0.633500  0.773800  0.824400  1
  H  H41  1  0.235100  0.213300  0.628400  1
  H  H42  1  0.235100  0.286700  0.128400  1
  H  H43  1  0.764900  0.786700  0.371600  1
  H  H44  1  0.764900  0.713300  0.871600  1
  H  H45  1  0.110700  0.155300  0.733900  1
  H  H46  1  0.110700  0.344700  0.233900  1
  H  H47  1  0.889300  0.844700  0.266100  1
  H  H48  1  0.889300  0.655300  0.766100  1
  H  H49  1  0.242600  0.214000  0.781800  1
  H  H50  1  0.242600  0.286000  0.281800  1
  H  H51  1  0.757400  0.786000  0.218200  1
  H  H52  1  0.757400  0.714000  0.718200  1
  H  H53  1  0.957300  0.073700  0.594600  1
  H  H54  1  0.957300  0.426300  0.094600  1
  H  H55  1  0.042700  0.926300  0.405400  1
  H  H56  1  0.042700  0.573700  0.905400  1
  H  H57  1  0.800300  0.107600  0.548300  1
  H  H58  1  0.800300  0.392400  0.048300  1
  H  H59  1  0.199700  0.892400  0.451700  1
  H  H60  1  0.199700  0.607600  0.951700  1
  H  H61  1  0.855400  0.293500  0.592300  1
  H  H62  1  0.855400  0.206500  0.092300  1
  H  H63  1  0.144600  0.706500  0.407700  1
  H  H64  1  0.144600  0.793500  0.907700  1
  H  H65  1  0.014400  0.259900  0.638000  1
  H  H66  1  0.014400  0.240100  0.138000  1
  H  H67  1  0.985600  0.740100  0.362000  1
  H  H68  1  0.985600  0.759900  0.862000  1
  H  H69  1  0.548500  0.199900  0.483800  1
  H  H70  1  0.548500  0.300100  0.983800  1
  H  H71  1  0.451500  0.800100  0.516200  1
  H  H72  1  0.451500  0.699900  0.016200  1
  H  H73  1  0.499600  0.246900  0.413500  1
  H  H74  1  0.499600  0.253100  0.913500  1
  H  H75  1  0.500400  0.753100  0.586500  1
  H  H76  1  0.500400  0.746900  0.086500  1
  H  H77  1  0.783400  0.342500  0.430800  1
  H  H78  1  0.783400  0.157500  0.930800  1
  H  H79  1  0.216600  0.657500  0.569200  1
  H  H80  1  0.216600  0.842500  0.069200  1
  H  H81  1  0.833100  0.294600  0.501300  1
  H  H82  1  0.833100  0.205400  0.001300  1
  H  H83  1  0.166900  0.705400  0.498700  1
  H  H84  1  0.166900  0.794600  0.998700  1
  H  H85  1  0.731400  0.331500  0.354600  1
  H  H86  1  0.731400  0.168500  0.854600  1
  H  H87  1  0.268600  0.668500  0.645400  1
  H  H88  1  0.268600  0.831500  0.145400  1
  H  H89  1  0.852000  0.371800  0.326600  1
  H  H90  1  0.852000  0.128200  0.826600  1
  H  H91  1  0.148000  0.628200  0.673400  1
  H  H92  1  0.148000  0.871800  0.173400  1
  H  H93  1  0.982300  0.397500  0.286500  1
  H  H94  1  0.982300  0.102500  0.786500  1
  H  H95  1  0.017700  0.602500  0.713500  1
  H  H96  1  0.017700  0.897500  0.213500  1
  H  H97  1  0.936800  0.435600  0.212700  1
  H  H98  1  0.936800  0.064400  0.712700  1
  H  H99  1  0.063200  0.564400  0.787300  1
  H  H100  1  0.063200  0.935600  0.287300  1
  H  H101  1  0.758100  0.448600  0.180500  1
  H  H102  1  0.758100  0.051400  0.680500  1
  H  H103  1  0.241900  0.551400  0.819500  1
  H  H104  1  0.241900  0.948600  0.319500  1
  H  H105  1  0.567300  0.442500  0.185000  1
  H  H106  1  0.567300  0.057500  0.685000  1
  H  H107  1  0.432700  0.557500  0.815000  1
  H  H108  1  0.432700  0.942500  0.315000  1
  H  H109  1  0.434200  0.423900  0.223900  1
  H  H110  1  0.434200  0.076100  0.723900  1
  H  H111  1  0.565800  0.576100  0.776100  1
  H  H112  1  0.565800  0.923900  0.276100  1
  H  H113  1  0.327900  0.339200  0.956900  1
  H  H114  1  0.327900  0.160800  0.456900  1
  H  H115  1  0.672100  0.660800  0.043100  1
  H  H116  1  0.672100  0.839200  0.543100  1
  H  H117  1  0.195100  0.382700  0.987600  1
  H  H118  1  0.195100  0.117300  0.487600  1
  H  H119  1  0.804900  0.617300  0.012400  1
  H  H120  1  0.804900  0.882700  0.512400  1
  H  H121  1  0.014800  0.433000  0.980100  1
  H  H122  1  0.014800  0.067000  0.480100  1
  H  H123  1  0.985200  0.567000  0.019900  1
  H  H124  1  0.985200  0.933000  0.519900  1
  H  H125  1  0.862500  0.477200  0.936800  1
  H  H126  1  0.862500  0.022800  0.436800  1
  H  H127  1  0.137500  0.522800  0.063200  1
  H  H128  1  0.137500  0.977200  0.563200  1
  H  H129  1  0.851700  0.487000  0.859900  1
  H  H130  1  0.851700  0.013000  0.359900  1
  H  H131  1  0.148300  0.513000  0.140100  1
  H  H132  1  0.148300  0.987000  0.640100  1
  H  H133  1  0.987800  0.449400  0.825900  1
  H  H134  1  0.987800  0.050600  0.325900  1
  H  H135  1  0.012200  0.550600  0.174100  1
  H  H136  1  0.012200  0.949400  0.674100  1
  H  H137  1  0.115500  0.421000  0.799600  1
  H  H138  1  0.115500  0.079000  0.299600  1
  H  H139  1  0.884500  0.579000  0.200400  1
  H  H140  1  0.884500  0.921000  0.700400  1
  H  H141  1  0.066100  0.365400  0.732600  1
  H  H142  1  0.066100  0.134600  0.232600  1
  H  H143  1  0.933900  0.634600  0.267400  1
  H  H144  1  0.933900  0.865400  0.767400  1
  H  H145  1  0.032500  0.386200  0.656400  1
  H  H146  1  0.032500  0.113800  0.156400  1
  H  H147  1  0.967500  0.613800  0.343600  1
  H  H148  1  0.967500  0.886200  0.843600  1
  H  H149  1  0.339100  0.446600  0.664800  1
  H  H150  1  0.339100  0.053400  0.164800  1
  H  H151  1  0.660900  0.553400  0.335200  1
  H  H152  1  0.660900  0.946600  0.835200  1
  H  H153  1  0.371800  0.424300  0.741300  1
  H  H154  1  0.371800  0.075700  0.241300  1
  H  H155  1  0.628200  0.575700  0.258700  1
  H  H156  1  0.628200  0.924300  0.758700  1
  H  H157  1  0.045900  0.382100  0.537400  1
  H  H158  1  0.045900  0.117900  0.037400  1
  H  H159  1  0.954100  0.617900  0.462600  1
  H  H160  1  0.954100  0.882100  0.962600  1
  H  H161  1  0.885200  0.425700  0.498200  1
  H  H162  1  0.885200  0.074300  0.998200  1
  H  H163  1  0.114800  0.574300  0.501800  1
  H  H164  1  0.114800  0.925700  0.001800  1
  H  H165  1  0.902900  0.572600  0.588500  1
  H  H166  1  0.902900  0.927400  0.088500  1
  H  H167  1  0.097100  0.427400  0.411500  1
  H  H168  1  0.097100  0.072600  0.911500  1
  H  H169  1  0.064800  0.530000  0.626600  1
  H  H170  1  0.064800  0.970000  0.126600  1
  H  H171  1  0.935200  0.470000  0.373400  1
  H  H172  1  0.935200  0.030000  0.873400  1
  H  H173  1  0.684700  0.437000  0.548300  1
  H  H174  1  0.684700  0.063000  0.048300  1
  H  H175  1  0.315300  0.563000  0.451700  1
  H  H176  1  0.315300  0.937000  0.951700  1
  H  H177  1  0.539100  0.376100  0.511000  1
  H  H178  1  0.539100  0.123900  0.011000  1
  H  H179  1  0.460900  0.623900  0.489000  1
  H  H180  1  0.460900  0.876100  0.989000  1
  H  H181  1  0.544000  0.482100  0.399000  1
  H  H182  1  0.544000  0.017900  0.899000  1
  H  H183  1  0.456000  0.517900  0.601000  1
  H  H184  1  0.456000  0.982100  0.101000  1
  H  H185  1  0.692200  0.540500  0.435900  1
  H  H186  1  0.692200  0.959500  0.935900  1
  H  H187  1  0.307800  0.459500  0.564100  1
  H  H188  1  0.307800  0.040500  0.064100  1
  H  H189  1  0.367800  0.376200  0.476200  1
  H  H190  1  0.367800  0.123800  0.976200  1
  H  H191  1  0.632200  0.623800  0.523800  1
  H  H192  1  0.632200  0.876200  0.023800  1
  H  H193  1  0.294100  0.313100  0.515100  1
  H  H194  1  0.294100  0.186900  0.015100  1
  H  H195  1  0.705900  0.686900  0.484900  1
  H  H196  1  0.705900  0.813100  0.984900  1
  H  H197  1  0.181100  0.266900  0.557400  1
  H  H198  1  0.181100  0.233100  0.057400  1
  H  H199  1  0.818900  0.733100  0.442600  1
  H  H200  1  0.818900  0.766900  0.942600  1
  H  H201  1  0.013600  0.225400  0.523400  1
  H  H202  1  0.013600  0.274600  0.023400  1
  H  H203  1  0.986400  0.774600  0.476600  1
  H  H204  1  0.986400  0.725400  0.976600  1
  H  H205  1  0.958500  0.233700  0.447800  1
  H  H206  1  0.958500  0.266300  0.947800  1
  H  H207  1  0.041500  0.766300  0.552200  1
  H  H208  1  0.041500  0.733700  0.052200  1
  H  H209  1  0.992900  0.268500  0.372600  1
  H  H210  1  0.992900  0.231500  0.872600  1
  H  H211  1  0.007100  0.731500  0.627400  1
  H  H212  1  0.007100  0.768500  0.127400  1
  H  H213  1  0.104500  0.305900  0.328800  1
  H  H214  1  0.104500  0.194100  0.828800  1
  H  H215  1  0.895500  0.694100  0.671200  1
  H  H216  1  0.895500  0.805900  0.171200  1
  C  C217  1  0.608300  0.319870  0.826260  1
  C  C218  1  0.608300  0.180130  0.326260  1
  C  C219  1  0.391700  0.680130  0.173740  1
  C  C220  1  0.391700  0.819870  0.673740  1
  C  C221  1  0.712400  0.330970  0.853580  1
  C  C222  1  0.712400  0.169030  0.353580  1
  C  C223  1  0.287600  0.669030  0.146420  1
  C  C224  1  0.287600  0.830970  0.646420  1
  C  C225  1  0.803500  0.320280  0.837300  1
  C  C226  1  0.803500  0.179720  0.337300  1
  C  C227  1  0.196500  0.679720  0.162700  1
  C  C228  1  0.196500  0.820280  0.662700  1
  C  C229  1  0.802000  0.297030  0.793020  1
  C  C230  1  0.802000  0.202970  0.293020  1
  C  C231  1  0.198000  0.702970  0.206980  1
  C  C232  1  0.198000  0.797030  0.706980  1
  C  C233  1  0.898300  0.287740  0.776300  1
  C  C234  1  0.898300  0.212260  0.276300  1
  C  C235  1  0.101700  0.712260  0.223700  1
  C  C236  1  0.101700  0.787740  0.723700  1
  C  C237  1  0.895300  0.264700  0.733480  1
  C  C238  1  0.895300  0.235300  0.233480  1
  C  C239  1  0.104700  0.735300  0.266520  1
  C  C240  1  0.104700  0.764700  0.766520  1
  C  C241  1  0.796700  0.250800  0.705750  1
  C  C242  1  0.796700  0.249200  0.205750  1
  C  C243  1  0.203300  0.749200  0.294250  1
  C  C244  1  0.203300  0.750800  0.794250  1
  C  C245  1  0.702300  0.260420  0.720710  1
  C  C246  1  0.702300  0.239580  0.220710  1
  C  C247  1  0.297700  0.739580  0.279290  1
  C  C248  1  0.297700  0.760420  0.779290  1
  C  C249  1  0.701000  0.283140  0.764910  1
  C  C250  1  0.701000  0.216860  0.264910  1
  C  C251  1  0.299000  0.716860  0.235090  1
  C  C252  1  0.299000  0.783140  0.735090  1
  C  C253  1  0.602700  0.293580  0.782550  1
  C  C254  1  0.602700  0.206420  0.282550  1
  C  C255  1  0.397300  0.706420  0.217450  1
  C  C256  1  0.397300  0.793580  0.717450  1
  C  C257  1  0.503100  0.271040  0.756760  1
  C  C258  1  0.503100  0.228960  0.256760  1
  C  C259  1  0.496900  0.728960  0.243240  1
  C  C260  1  0.496900  0.771040  0.743240  1
  C  C261  1  0.320300  0.248110  0.733910  1
  C  C262  1  0.320300  0.251890  0.233910  1
  C  C263  1  0.679700  0.751890  0.266090  1
  C  C264  1  0.679700  0.748110  0.766090  1
  C  C265  1  0.316300  0.249260  0.687540  1
  C  C266  1  0.316300  0.250740  0.187540  1
  C  C267  1  0.683700  0.750740  0.312460  1
  C  C268  1  0.683700  0.749260  0.812460  1
  C  C269  1  0.237000  0.213500  0.659240  1
  C  C270  1  0.237000  0.286500  0.159240  1
  C  C271  1  0.763000  0.786500  0.340760  1
  C  C272  1  0.763000  0.713500  0.840760  1
  C  C273  1  0.160800  0.178300  0.676960  1
  C  C274  1  0.160800  0.321700  0.176960  1
  C  C275  1  0.839200  0.821700  0.323040  1
  C  C276  1  0.839200  0.678300  0.823040  1
  C  C277  1  0.162700  0.178630  0.722240  1
  C  C278  1  0.162700  0.321370  0.222240  1
  C  C279  1  0.837300  0.821370  0.277760  1
  C  C280  1  0.837300  0.678630  0.777760  1
  C  C281  1  0.242100  0.213670  0.751010  1
  C  C282  1  0.242100  0.286330  0.251010  1
  C  C283  1  0.757900  0.786330  0.248990  1
  C  C284  1  0.757900  0.713670  0.748990  1
  C  C285  1  0.000100  0.163530  0.621380  1
  C  C286  1  0.000100  0.336470  0.121380  1
  C  C287  1  0.999900  0.836470  0.378620  1
  C  C288  1  0.999900  0.663530  0.878620  1
  C  C289  1  0.936600  0.118000  0.594280  1
  C  C290  1  0.936600  0.382000  0.094280  1
  C  C291  1  0.063400  0.882000  0.405720  1
  C  C292  1  0.063400  0.618000  0.905720  1
  C  C293  1  0.842700  0.138200  0.566700  1
  C  C294  1  0.842700  0.361800  0.066700  1
  C  C295  1  0.157300  0.861800  0.433300  1
  C  C296  1  0.157300  0.638200  0.933300  1
  C  C297  1  0.812200  0.203590  0.566600  1
  C  C298  1  0.812200  0.296410  0.066600  1
  C  C299  1  0.187800  0.796410  0.433400  1
  C  C300  1  0.187800  0.703590  0.933400  1
  C  C301  1  0.875900  0.249090  0.592890  1
  C  C302  1  0.875900  0.250910  0.092890  1
  C  C303  1  0.124100  0.750910  0.407110  1
  C  C304  1  0.124100  0.749090  0.907110  1
  C  C305  1  0.970800  0.229020  0.620360  1
  C  C306  1  0.970800  0.270980  0.120360  1
  C  C307  1  0.029200  0.770980  0.379640  1
  C  C308  1  0.029200  0.729020  0.879640  1
  C  C309  1  0.693800  0.244090  0.500050  1
  C  C310  1  0.693800  0.255910  0.000050  1
  C  C311  1  0.306200  0.755910  0.499950  1
  C  C312  1  0.306200  0.744090  0.999950  1
  C  C313  1  0.595200  0.229070  0.473310  1
  C  C314  1  0.595200  0.270930  0.973310  1
  C  C315  1  0.404800  0.770930  0.526690  1
  C  C316  1  0.404800  0.729070  0.026690  1
  C  C317  1  0.565800  0.257110  0.431210  1
  C  C318  1  0.565800  0.242890  0.931210  1
  C  C319  1  0.434200  0.742890  0.568790  1
  C  C320  1  0.434200  0.757110  0.068790  1
  C  C321  1  0.635700  0.300900  0.415280  1
  C  C322  1  0.635700  0.199100  0.915280  1
  C  C323  1  0.364300  0.699100  0.584720  1
  C  C324  1  0.364300  0.800900  0.084720  1
  C  C325  1  0.736000  0.314270  0.441650  1
  C  C326  1  0.736000  0.185730  0.941650  1
  C  C327  1  0.264000  0.685730  0.558350  1
  C  C328  1  0.264000  0.814270  0.058350  1
  C  C329  1  0.765800  0.285840  0.483880  1
  C  C330  1  0.765800  0.214160  0.983880  1
  C  C331  1  0.234200  0.714160  0.516120  1
  C  C332  1  0.234200  0.785840  0.016120  1
  C  C333  1  0.660900  0.346250  0.345840  1
  C  C334  1  0.660900  0.153750  0.845840  1
  C  C335  1  0.339100  0.653750  0.654160  1
  C  C336  1  0.339100  0.846250  0.154160  1
  C  C337  1  0.635600  0.379250  0.303440  1
  C  C338  1  0.635600  0.120750  0.803440  1
  C  C339  1  0.364400  0.620750  0.696560  1
  C  C340  1  0.364400  0.879250  0.196560  1
  C  C341  1  0.721600  0.394080  0.278940  1
  C  C342  1  0.721600  0.105920  0.778940  1
  C  C343  1  0.278400  0.605920  0.721060  1
  C  C344  1  0.278400  0.894080  0.221060  1
  C  C345  1  0.831700  0.387220  0.297220  1
  C  C346  1  0.831700  0.112780  0.797220  1
  C  C347  1  0.168300  0.612780  0.702780  1
  C  C348  1  0.168300  0.887220  0.202780  1
  C  C349  1  0.910300  0.402560  0.273160  1
  C  C350  1  0.910300  0.097440  0.773160  1
  C  C351  1  0.089700  0.597440  0.726840  1
  C  C352  1  0.089700  0.902560  0.226840  1
  C  C353  1  0.883400  0.425650  0.229000  1
  C  C354  1  0.883400  0.074350  0.729000  1
  C  C355  1  0.116600  0.574350  0.771000  1
  C  C356  1  0.116600  0.925650  0.271000  1
  C  C357  1  0.776700  0.433410  0.209970  1
  C  C358  1  0.776700  0.066590  0.709970  1
  C  C359  1  0.223300  0.566590  0.790030  1
  C  C360  1  0.223300  0.933410  0.290030  1
  C  C361  1  0.694600  0.418650  0.234370  1
  C  C362  1  0.694600  0.081350  0.734370  1
  C  C363  1  0.305400  0.581350  0.765630  1
  C  C364  1  0.305400  0.918650  0.265630  1
  C  C365  1  0.584900  0.427970  0.214640  1
  C  C366  1  0.584900  0.072030  0.714640  1
  C  C367  1  0.415100  0.572030  0.785360  1
  C  C368  1  0.415100  0.927970  0.285360  1
  C  C369  1  0.505100  0.416300  0.237770  1
  C  C370  1  0.505100  0.083700  0.737770  1
  C  C371  1  0.494900  0.583700  0.762230  1
  C  C372  1  0.494900  0.916300  0.262230  1
  C  C373  1  0.527500  0.392510  0.283190  1
  C  C374  1  0.527500  0.107490  0.783190  1
  C  C375  1  0.472500  0.607490  0.716810  1
  C  C376  1  0.472500  0.892510  0.216810  1
  C  C377  1  0.266400  0.359580  0.890650  1
  C  C378  1  0.266400  0.140420  0.390650  1
  C  C379  1  0.733600  0.640420  0.109350  1
  C  C380  1  0.733600  0.859580  0.609350  1
  C  C381  1  0.269100  0.358300  0.938190  1
  C  C382  1  0.269100  0.141700  0.438190  1
  C  C383  1  0.730900  0.641700  0.061810  1
  C  C384  1  0.730900  0.858300  0.561810  1
  C  C385  1  0.189400  0.383770  0.956510  1
  C  C386  1  0.189400  0.116230  0.456510  1
  C  C387  1  0.810600  0.616230  0.043490  1
  C  C388  1  0.810600  0.883770  0.543490  1
  C  C389  1  0.095500  0.412640  0.929300  1
  C  C390  1  0.095500  0.087360  0.429300  1
  C  C391  1  0.904500  0.587360  0.070700  1
  C  C392  1  0.904500  0.912640  0.570700  1
  C  C393  1  0.009500  0.435970  0.949100  1
  C  C394  1  0.009500  0.064030  0.449100  1
  C  C395  1  0.990500  0.564030  0.050900  1
  C  C396  1  0.990500  0.935970  0.550900  1
  C  C397  1  0.918900  0.462760  0.923510  1
  C  C398  1  0.918900  0.037240  0.423510  1
  C  C399  1  0.081100  0.537240  0.076490  1
  C  C400  1  0.081100  0.962760  0.576490  1
  C  C401  1  0.912400  0.468010  0.877380  1
  C  C402  1  0.912400  0.031990  0.377380  1
  C  C403  1  0.087600  0.531990  0.122620  1
  C  C404  1  0.087600  0.968010  0.622620  1
  C  C405  1  0.994600  0.445520  0.856910  1
  C  C406  1  0.994600  0.054480  0.356910  1
  C  C407  1  0.005400  0.554480  0.143090  1
  C  C408  1  0.005400  0.945520  0.643090  1
  C  C409  1  0.089100  0.416570  0.882360  1
  C  C410  1  0.089100  0.083430  0.382360  1
  C  C411  1  0.910900  0.583430  0.117640  1
  C  C412  1  0.910900  0.916570  0.617640  1
  C  C413  1  0.177000  0.390420  0.862340  1
  C  C414  1  0.177000  0.109580  0.362340  1
  C  C415  1  0.823000  0.609580  0.137660  1
  C  C416  1  0.823000  0.890420  0.637660  1
  C  C417  1  0.174600  0.398320  0.815540  1
  C  C418  1  0.174600  0.101680  0.315540  1
  C  C419  1  0.825400  0.601680  0.184460  1
  C  C420  1  0.825400  0.898320  0.684460  1
  C  C421  1  0.222600  0.392400  0.744840  1
  C  C422  1  0.222600  0.107600  0.244840  1
  C  C423  1  0.777400  0.607600  0.255160  1
  C  C424  1  0.777400  0.892400  0.755160  1
  C  C425  1  0.121000  0.381330  0.718900  1
  C  C426  1  0.121000  0.118670  0.218900  1
  C  C427  1  0.879000  0.618670  0.281100  1
  C  C428  1  0.879000  0.881330  0.781100  1
  C  C429  1  0.100600  0.393600  0.673470  1
  C  C430  1  0.100600  0.106400  0.173470  1
  C  C431  1  0.899400  0.606400  0.326530  1
  C  C432  1  0.899400  0.893600  0.826530  1
  C  C433  1  0.183200  0.417280  0.653300  1
  C  C434  1  0.183200  0.082720  0.153300  1
  C  C435  1  0.816800  0.582720  0.346700  1
  C  C436  1  0.816800  0.917280  0.846700  1
  C  C437  1  0.284700  0.429740  0.678430  1
  C  C438  1  0.284700  0.070260  0.178430  1
  C  C439  1  0.715300  0.570260  0.321570  1
  C  C440  1  0.715300  0.929740  0.821570  1
  C  C441  1  0.303800  0.416700  0.724190  1
  C  C442  1  0.303800  0.083300  0.224190  1
  C  C443  1  0.696200  0.583300  0.275810  1
  C  C444  1  0.696200  0.916700  0.775810  1
  C  C445  1  0.069800  0.452130  0.585310  1
  C  C446  1  0.069800  0.047870  0.085310  1
  C  C447  1  0.930200  0.547870  0.414690  1
  C  C448  1  0.930200  0.952130  0.914690  1
  C  C449  1  0.017300  0.420530  0.547510  1
  C  C450  1  0.017300  0.079470  0.047510  1
  C  C451  1  0.982700  0.579470  0.452490  1
  C  C452  1  0.982700  0.920530  0.952490  1
  C  C453  1  0.920900  0.446360  0.524230  1
  C  C454  1  0.920900  0.053640  0.024230  1
  C  C455  1  0.079100  0.553640  0.475770  1
  C  C456  1  0.079100  0.946360  0.975770  1
  C  C457  1  0.878500  0.502800  0.540020  1
  C  C458  1  0.878500  0.997200  0.040020  1
  C  C459  1  0.121500  0.497200  0.459980  1
  C  C460  1  0.121500  0.002800  0.959980  1
  C  C461  1  0.931700  0.534370  0.578110  1
  C  C462  1  0.931700  0.965630  0.078110  1
  C  C463  1  0.068300  0.465630  0.421890  1
  C  C464  1  0.068300  0.034370  0.921890  1
  C  C465  1  0.028200  0.508910  0.600900  1
  C  C466  1  0.028200  0.991090  0.100900  1
  C  C467  1  0.971800  0.491090  0.399100  1
  C  C468  1  0.971800  0.008910  0.899100  1
  C  C469  1  0.701600  0.493710  0.495570  1
  C  C470  1  0.701600  0.006290  0.995570  1
  C  C471  1  0.298400  0.506290  0.504430  1
  C  C472  1  0.298400  0.993710  0.004430  1
  C  C473  1  0.656600  0.445520  0.518190  1
  C  C474  1  0.656600  0.054480  0.018190  1
  C  C475  1  0.343400  0.554480  0.481810  1
  C  C476  1  0.343400  0.945520  0.981810  1
  C  C477  1  0.568900  0.409470  0.495940  1
  C  C478  1  0.568900  0.090530  0.995940  1
  C  C479  1  0.431100  0.590530  0.504060  1
  C  C480  1  0.431100  0.909470  0.004060  1
  C  C481  1  0.525200  0.423290  0.450950  1
  C  C482  1  0.525200  0.076710  0.950950  1
  C  C483  1  0.474800  0.576710  0.549050  1
  C  C484  1  0.474800  0.923290  0.049050  1
  C  C485  1  0.572300  0.472570  0.428990  1
  C  C486  1  0.572300  0.027430  0.928990  1
  C  C487  1  0.427700  0.527430  0.571010  1
  C  C488  1  0.427700  0.972570  0.071010  1
  C  C489  1  0.660800  0.507830  0.450950  1
  C  C490  1  0.660800  0.992170  0.950950  1
  C  C491  1  0.339200  0.492170  0.549050  1
  C  C492  1  0.339200  0.007830  0.049050  1
  C  C493  1  0.360500  0.366320  0.445760  1
  C  C494  1  0.360500  0.133680  0.945760  1
  C  C495  1  0.639500  0.633680  0.554240  1
  C  C496  1  0.639500  0.866320  0.054240  1
  C  C497  1  0.266100  0.330880  0.425540  1
  C  C498  1  0.266100  0.169120  0.925540  1
  C  C499  1  0.733900  0.669120  0.574460  1
  C  C500  1  0.733900  0.830880  0.074460  1
  C  C501  1  0.196700  0.303590  0.453800  1
  C  C502  1  0.196700  0.196410  0.953800  1
  C  C503  1  0.803300  0.696410  0.546200  1
  C  C504  1  0.803300  0.803590  0.046200  1
  C  C505  1  0.226900  0.297660  0.500900  1
  C  C506  1  0.226900  0.202340  0.000900  1
  C  C507  1  0.773100  0.702340  0.499100  1
  C  C508  1  0.773100  0.797660  0.999100  1
  C  C509  1  0.159500  0.269600  0.526380  1
  C  C510  1  0.159500  0.230400  0.026380  1
  C  C511  1  0.840500  0.730400  0.473620  1
  C  C512  1  0.840500  0.769600  0.973620  1
  C  C513  1  0.058200  0.244950  0.505980  1
  C  C514  1  0.058200  0.255050  0.005980  1
  C  C515  1  0.941800  0.755050  0.494020  1
  C  C516  1  0.941800  0.744950  0.994020  1
  C  C517  1  0.025900  0.249710  0.461010  1
  C  C518  1  0.025900  0.250290  0.961010  1
  C  C519  1  0.974100  0.750290  0.538990  1
  C  C520  1  0.974100  0.749710  0.038990  1
  C  C521  1  0.093200  0.278820  0.433380  1
  C  C522  1  0.093200  0.221180  0.933380  1
  C  C523  1  0.906800  0.721180  0.566620  1
  C  C524  1  0.906800  0.778820  0.066620  1
  C  C525  1  0.061600  0.282390  0.385910  1
  C  C526  1  0.061600  0.217610  0.885910  1
  C  C527  1  0.938400  0.717610  0.614090  1
  C  C528  1  0.938400  0.782390  0.114090  1
  C  C529  1  0.128100  0.305150  0.359830  1
  C  C530  1  0.128100  0.194850  0.859830  1
  C  C531  1  0.871900  0.694850  0.640170  1
  C  C532  1  0.871900  0.805150  0.140170  1
  C  C533  1  0.234600  0.328460  0.378060  1
  C  C534  1  0.234600  0.171540  0.878060  1
  C  C535  1  0.765400  0.671540  0.621940  1
  C  C536  1  0.765400  0.828460  0.121940  1
  C  C537  1  0.462400  0.544800  0.089250  1
  C  C538  1  0.462400  0.955200  0.589250  1
  C  C539  1  0.537600  0.455200  0.910750  1
  C  C540  1  0.537600  0.044800  0.410750  1
  C  C541  1  0.268800  0.497400  0.293860  1
  C  C542  1  0.268800  0.002600  0.793860  1
  C  C543  1  0.731200  0.502600  0.706140  1
  C  C544  1  0.731200  0.997400  0.206140  1
  C  C545  1  0.508900  0.173600  0.610500  1
  C  C546  1  0.508900  0.326400  0.110500  1
  C  C547  1  0.491100  0.826400  0.389500  1
  C  C548  1  0.491100  0.673600  0.889500  1
  C  C549  1  0.405600  0.164300  0.558380  1
  C  C550  1  0.405600  0.335700  0.058380  1
  C  C551  1  0.594400  0.835700  0.441620  1
  C  C552  1  0.594400  0.664300  0.941620  1
  C  C553  1  0.510900  0.293000  0.596650  1
  C  C554  1  0.510900  0.207000  0.096650  1
  C  C555  1  0.489100  0.707000  0.403350  1
  C  C556  1  0.489100  0.793000  0.903350  1
  C  C557  1  0.486500  0.352200  0.612300  1
  C  C558  1  0.486500  0.147800  0.112300  1
  C  C559  1  0.513500  0.647800  0.387700  1
  C  C560  1  0.513500  0.852200  0.887700  1
  N  N561  1  0.405950  0.279810  0.764750  1
  N  N562  1  0.405950  0.220190  0.264750  1
  N  N563  1  0.594050  0.720190  0.235250  1
  N  N564  1  0.594050  0.779810  0.735250  1
  N  N565  1  0.596160  0.334490  0.373680  1
  N  N566  1  0.596160  0.165510  0.873680  1
  N  N567  1  0.403840  0.665510  0.626320  1
  N  N568  1  0.403840  0.834490  0.126320  1
  N  N569  1  0.245000  0.377630  0.792020  1
  N  N570  1  0.245000  0.122370  0.292020  1
  N  N571  1  0.755000  0.622370  0.207980  1
  N  N572  1  0.755000  0.877630  0.707980  1
  N  N573  1  0.437720  0.386310  0.425700  1
  N  N574  1  0.437720  0.113690  0.925700  1
  N  N575  1  0.562280  0.613690  0.574300  1
  N  N576  1  0.562280  0.886310  0.074300  1
  Cl  Cl577  1  0.583820  0.499800  0.091710  1
  Cl  Cl578  1  0.583820  0.000200  0.591710  1
  Cl  Cl579  1  0.416180  0.500200  0.908290  1
  Cl  Cl580  1  0.416180  0.999800  0.408290  1
  Cl  Cl581  1  0.383690  0.504730  0.123920  1
  Cl  Cl582  1  0.383690  0.995270  0.623920  1
  Cl  Cl583  1  0.616310  0.495270  0.876080  1
  Cl  Cl584  1  0.616310  0.004730  0.376080  1
  Cl  Cl585  1  0.390350  0.547770  0.033880  1
  Cl  Cl586  1  0.390350  0.952230  0.533880  1
  Cl  Cl587  1  0.609650  0.452230  0.966120  1
  Cl  Cl588  1  0.609650  0.047770  0.466120  1
  Cl  Cl589  1  0.383400  0.547700  0.304900  1
  Cl  Cl590  1  0.383400  0.952300  0.804900  1
  Cl  Cl591  1  0.616600  0.452300  0.695100  1
  Cl  Cl592  1  0.616600  0.047700  0.195100  1
  Cl  Cl593  1  0.181700  0.509300  0.328200  1
  Cl  Cl594  1  0.181700  0.990700  0.828200  1
  Cl  Cl595  1  0.818300  0.490700  0.671800  1
  Cl  Cl596  1  0.818300  0.009300  0.171800  1
  Cl  Cl597  1  0.209600  0.513800  0.240500  1
  Cl  Cl598  1  0.209600  0.986200  0.740500  1
  Cl  Cl599  1  0.790400  0.486200  0.759500  1
  Cl  Cl600  1  0.790400  0.013800  0.259500  1
  Cl  Cl601  1  0.352500  0.554900  0.274800  1
  Cl  Cl602  1  0.352500  0.945100  0.774800  1
  Cl  Cl603  1  0.647500  0.445100  0.725200  1
  Cl  Cl604  1  0.647500  0.054900  0.225200  1
  Cl  Cl605  1  0.128400  0.498600  0.287800  1
  Cl  Cl606  1  0.128400  0.001400  0.787800  1
  Cl  Cl607  1  0.871600  0.501400  0.712200  1
  Cl  Cl608  1  0.871600  0.998600  0.212200  1
  Cl  Cl609  1  0.261300  0.519100  0.350600  1
  Cl  Cl610  1  0.261300  0.980900  0.850600  1
  Cl  Cl611  1  0.738700  0.480900  0.649400  1
  Cl  Cl612  1  0.738700  0.019100  0.149400  1
  Cl  Cl613  1  0.287700  0.535300  0.243200  1
  Cl  Cl614  1  0.287700  0.964700  0.743200  1
  Cl  Cl615  1  0.712300  0.464700  0.756800  1
  Cl  Cl616  1  0.712300  0.035300  0.256800  1
  Cl  Cl617  1  0.153500  0.499600  0.256100  1
  Cl  Cl618  1  0.153500  0.000400  0.756100  1
  Cl  Cl619  1  0.846500  0.500400  0.743900  1
  Cl  Cl620  1  0.846500  0.999600  0.243900  1
  Cl  Cl621  1  0.335600  0.532000  0.339700  1
  Cl  Cl622  1  0.335600  0.968000  0.839700  1
  Cl  Cl623  1  0.664400  0.468000  0.660300  1
  Cl  Cl624  1  0.664400  0.032000  0.160300  1
  O  O625  1  0.524960  0.332630  0.844040  1
  O  O626  1  0.524960  0.167370  0.344040  1
  O  O627  1  0.475040  0.667370  0.155960  1
  O  O628  1  0.475040  0.832630  0.655960  1
  O  O629  1  0.089000  0.136820  0.649320  1
  O  O630  1  0.089000  0.363180  0.149320  1
  O  O631  1  0.911000  0.863180  0.350680  1
  O  O632  1  0.911000  0.636820  0.850680  1
  O  O633  1  0.709330  0.219380  0.543160  1
  O  O634  1  0.709330  0.280620  0.043160  1
  O  O635  1  0.290670  0.780620  0.456840  1
  O  O636  1  0.290670  0.719380  0.956840  1
  O  O637  1  0.444310  0.383340  0.302490  1
  O  O638  1  0.444310  0.116660  0.802490  1
  O  O639  1  0.555690  0.616660  0.697510  1
  O  O640  1  0.555690  0.883340  0.197510  1
  O  O641  1  0.293700  0.348280  0.349680  1
  O  O642  1  0.293700  0.151720  0.849680  1
  O  O643  1  0.706300  0.651720  0.650320  1
  O  O644  1  0.706300  0.848280  0.150320  1
  O  O645  1  0.348220  0.334180  0.876540  1
  O  O646  1  0.348220  0.165820  0.376540  1
  O  O647  1  0.651780  0.665820  0.123460  1
  O  O648  1  0.651780  0.834180  0.623460  1
  O  O649  1  0.169500  0.426550  0.607060  1
  O  O650  1  0.169500  0.073450  0.107060  1
  O  O651  1  0.830500  0.573450  0.392940  1
  O  O652  1  0.830500  0.926550  0.892940  1
  O  O653  1  0.786100  0.533330  0.517060  1
  O  O654  1  0.786100  0.966670  0.017060  1
  O  O655  1  0.213900  0.466670  0.482940  1
  O  O656  1  0.213900  0.033330  0.982940  1
  O  O657  1  0.477200  0.238110  0.618450  1
  O  O658  1  0.477200  0.261890  0.118450  1
  O  O659  1  0.522800  0.761890  0.381550  1
  O  O660  1  0.522800  0.738110  0.881550  1
