# generated using pymatgen
data_Si2P2H62PdC59S2N2(O3F2)3
_symmetry_space_group_name_H-M   'P 1'
_cell_length_a   15.73100000
_cell_length_b   15.85400000
_cell_length_c   28.11000000
_cell_angle_alpha   90.00000000
_cell_angle_beta   90.00000000
_cell_angle_gamma   106.87000000
_symmetry_Int_Tables_number   1
_chemical_formula_structural   Si2P2H62PdC59S2N2(O3F2)3
_chemical_formula_sum   'Si8 P8 H248 Pd4 C236 S8 N8 O36 F24'
_cell_volume   6708.91649269
_cell_formula_units_Z   4
loop_
 _symmetry_equiv_pos_site_id
 _symmetry_equiv_pos_as_xyz
  1  'x, y, z'
loop_
 _atom_site_type_symbol
 _atom_site_label
 _atom_site_symmetry_multiplicity
 _atom_site_fract_x
 _atom_site_fract_y
 _atom_site_fract_z
 _atom_site_occupancy
  Si  Si1  1  0.927700  0.152580  0.453390  1.0
  Si  Si2  1  0.572300  0.847420  0.953390  1.0
  Si  Si3  1  0.072300  0.847420  0.546610  1.0
  Si  Si4  1  0.427700  0.152580  0.046610  1.0
  Si  Si5  1  0.766430  0.977910  0.442190  1.0
  Si  Si6  1  0.733570  0.022090  0.942190  1.0
  Si  Si7  1  0.233570  0.022090  0.557810  1.0
  Si  Si8  1  0.266430  0.977910  0.057810  1.0
  P  P9  1  0.449740  0.336030  0.420820  1.0
  P  P10  1  0.050260  0.663970  0.920820  1.0
  P  P11  1  0.550260  0.663970  0.579180  1.0
  P  P12  1  0.949740  0.336030  0.079180  1.0
  P  P13  1  0.298740  0.415130  0.378570  1.0
  P  P14  1  0.201260  0.584870  0.878570  1.0
  P  P15  1  0.701260  0.584870  0.621430  1.0
  P  P16  1  0.798740  0.415130  0.121430  1.0
  H  H17  1  0.395700  0.822600  0.336600  1
  H  H18  1  0.104300  0.177400  0.836600  1
  H  H19  1  0.604300  0.177400  0.663400  1
  H  H20  1  0.895700  0.822600  0.163400  1
  H  H21  1  0.417500  0.911500  0.306000  1
  H  H22  1  0.082500  0.088500  0.806000  1
  H  H23  1  0.582500  0.088500  0.694000  1
  H  H24  1  0.917500  0.911500  0.194000  1
  H  H25  1  0.489200  0.857900  0.309900  1
  H  H26  1  0.010800  0.142100  0.809900  1
  H  H27  1  0.510800  0.142100  0.690100  1
  H  H28  1  0.989200  0.857900  0.190100  1
  H  H29  1  0.397600  0.803500  0.193900  1
  H  H30  1  0.102400  0.196500  0.693900  1
  H  H31  1  0.602400  0.196500  0.806100  1
  H  H32  1  0.897600  0.803500  0.306100  1
  H  H33  1  0.490300  0.846300  0.220300  1
  H  H34  1  0.009700  0.153700  0.720300  1
  H  H35  1  0.509700  0.153700  0.779700  1
  H  H36  1  0.990300  0.846300  0.279700  1
  H  H37  1  0.418400  0.899600  0.217000  1
  H  H38  1  0.081600  0.100400  0.717000  1
  H  H39  1  0.581600  0.100400  0.783000  1
  H  H40  1  0.918400  0.899600  0.283000  1
  H  H41  1  0.271700  0.674700  0.386800  1
  H  H42  1  0.228300  0.325300  0.886800  1
  H  H43  1  0.728300  0.325300  0.613200  1
  H  H44  1  0.771700  0.674700  0.113200  1
  H  H45  1  0.222900  0.662800  0.336300  1
  H  H46  1  0.277100  0.337200  0.836300  1
  H  H47  1  0.777100  0.337200  0.663700  1
  H  H48  1  0.722900  0.662800  0.163700  1
  H  H49  1  0.172700  0.610700  0.381800  1
  H  H50  1  0.327300  0.389300  0.881800  1
  H  H51  1  0.827300  0.389300  0.618200  1
  H  H52  1  0.672700  0.610700  0.118200  1
  H  H53  1  0.074800  0.783300  0.369400  1
  H  H54  1  0.425200  0.216700  0.869400  1
  H  H55  1  0.925200  0.216700  0.630600  1
  H  H56  1  0.574800  0.783300  0.130600  1
  H  H57  1  0.050700  0.678300  0.373300  1
  H  H58  1  0.449300  0.321700  0.873300  1
  H  H59  1  0.949300  0.321700  0.626700  1
  H  H60  1  0.550700  0.678300  0.126700  1
  H  H61  1  0.097800  0.727500  0.326400  1
  H  H62  1  0.402200  0.272500  0.826400  1
  H  H63  1  0.902200  0.272500  0.673600  1
  H  H64  1  0.597800  0.727500  0.173600  1
  H  H65  1  0.451800  0.446700  0.475600  1.0
  H  H66  1  0.048200  0.553300  0.975600  1.0
  H  H67  1  0.548200  0.553300  0.524400  1.0
  H  H68  1  0.951800  0.446700  0.024400  1.0
  H  H69  1  0.547200  0.464200  0.451500  1.0
  H  H70  1  0.952800  0.535800  0.951500  1.0
  H  H71  1  0.452800  0.535800  0.548500  1.0
  H  H72  1  0.047200  0.464200  0.048500  1.0
  H  H73  1  0.496400  0.576400  0.424900  1.0
  H  H74  1  0.003600  0.423600  0.924900  1.0
  H  H75  1  0.503600  0.423600  0.575100  1.0
  H  H76  1  0.996400  0.576400  0.075100  1.0
  H  H77  1  0.484900  0.511200  0.380400  1.0
  H  H78  1  0.015100  0.488800  0.880400  1.0
  H  H79  1  0.515100  0.488800  0.619600  1.0
  H  H80  1  0.984900  0.511200  0.119600  1.0
  H  H81  1  0.358300  0.564400  0.395300  1.0
  H  H82  1  0.141700  0.435600  0.895300  1.0
  H  H83  1  0.641700  0.435600  0.604700  1.0
  H  H84  1  0.858300  0.564400  0.104700  1.0
  H  H85  1  0.342100  0.508600  0.443600  1.0
  H  H86  1  0.157900  0.491400  0.943600  1.0
  H  H87  1  0.657900  0.491400  0.556400  1.0
  H  H88  1  0.842100  0.508600  0.056400  1.0
  H  H89  1  0.613300  0.454000  0.382900  1.0
  H  H90  1  0.886700  0.546000  0.882900  1.0
  H  H91  1  0.386700  0.546000  0.617100  1.0
  H  H92  1  0.113300  0.454000  0.117100  1.0
  H  H93  1  0.700600  0.448000  0.316200  1.0
  H  H94  1  0.799400  0.552000  0.816200  1.0
  H  H95  1  0.299400  0.552000  0.683800  1.0
  H  H96  1  0.200600  0.448000  0.183800  1.0
  H  H97  1  0.658800  0.335100  0.263200  1.0
  H  H98  1  0.841200  0.664900  0.763200  1.0
  H  H99  1  0.341200  0.664900  0.736800  1.0
  H  H100  1  0.158800  0.335100  0.236800  1.0
  H  H101  1  0.527600  0.220500  0.273900  1.0
  H  H102  1  0.972400  0.779500  0.773900  1.0
  H  H103  1  0.472400  0.779500  0.726100  1.0
  H  H104  1  0.027600  0.220500  0.226100  1.0
  H  H105  1  0.436800  0.225200  0.339600  1.0
  H  H106  1  0.063200  0.774800  0.839600  1.0
  H  H107  1  0.563200  0.774800  0.660400  1.0
  H  H108  1  0.936800  0.225200  0.160400  1.0
  H  H109  1  0.582100  0.242200  0.423900  1.0
  H  H110  1  0.917900  0.757800  0.923900  1.0
  H  H111  1  0.417900  0.757800  0.576100  1.0
  H  H112  1  0.082100  0.242200  0.076100  1.0
  H  H113  1  0.647700  0.184200  0.485500  1.0
  H  H114  1  0.852300  0.815800  0.985500  1.0
  H  H115  1  0.352300  0.815800  0.514500  1.0
  H  H116  1  0.147700  0.184200  0.014500  1.0
  H  H117  1  0.599300  0.187700  0.563800  1.0
  H  H118  1  0.900700  0.812300  0.063800  1.0
  H  H119  1  0.400700  0.812300  0.436200  1.0
  H  H120  1  0.099300  0.187700  0.936200  1.0
  H  H121  1  0.479800  0.240100  0.580500  1.0
  H  H122  1  0.020200  0.759900  0.080500  1.0
  H  H123  1  0.520200  0.759900  0.419500  1.0
  H  H124  1  0.979800  0.240100  0.919500  1.0
  H  H125  1  0.413300  0.297800  0.519600  1.0
  H  H126  1  0.086700  0.702200  0.019600  1.0
  H  H127  1  0.586700  0.702200  0.480400  1.0
  H  H128  1  0.913300  0.297800  0.980400  1.0
  H  H129  1  0.332500  0.563300  0.313100  1.0
  H  H130  1  0.167500  0.436700  0.813100  1.0
  H  H131  1  0.667500  0.436700  0.686900  1.0
  H  H132  1  0.832500  0.563300  0.186900  1.0
  H  H133  1  0.364600  0.583000  0.232800  1.0
  H  H134  1  0.135400  0.417000  0.732800  1.0
  H  H135  1  0.635400  0.417000  0.767200  1.0
  H  H136  1  0.864600  0.583000  0.267200  1.0
  H  H137  1  0.381000  0.467700  0.186600  1.0
  H  H138  1  0.119000  0.532300  0.686600  1.0
  H  H139  1  0.619000  0.532300  0.813400  1.0
  H  H140  1  0.881000  0.467700  0.313400  1.0
  H  H141  1  0.364400  0.330800  0.221000  1.0
  H  H142  1  0.135600  0.669200  0.721000  1.0
  H  H143  1  0.635600  0.669200  0.779000  1.0
  H  H144  1  0.864400  0.330800  0.279000  1.0
  H  H145  1  0.333600  0.308800  0.303000  1.0
  H  H146  1  0.166400  0.691200  0.803000  1.0
  H  H147  1  0.666400  0.691200  0.697000  1.0
  H  H148  1  0.833600  0.308800  0.197000  1.0
  H  H149  1  0.154500  0.401700  0.313900  1.0
  H  H150  1  0.345500  0.598300  0.813900  1.0
  H  H151  1  0.845500  0.598300  0.686100  1.0
  H  H152  1  0.654500  0.401700  0.186100  1.0
  H  H153  1  0.011800  0.415300  0.321700  1.0
  H  H154  1  0.488200  0.584700  0.821700  1.0
  H  H155  1  0.988200  0.584700  0.678300  1.0
  H  H156  1  0.511800  0.415300  0.178300  1.0
  H  H157  1  0.958200  0.439200  0.395300  1.0
  H  H158  1  0.541800  0.560800  0.895300  1.0
  H  H159  1  0.041800  0.560800  0.604700  1.0
  H  H160  1  0.458200  0.439200  0.104700  1.0
  H  H161  1  0.049200  0.457600  0.461600  1.0
  H  H162  1  0.450800  0.542400  0.961600  1.0
  H  H163  1  0.950800  0.542400  0.538400  1.0
  H  H164  1  0.549200  0.457600  0.038400  1.0
  H  H165  1  0.191600  0.443300  0.455400  1.0
  H  H166  1  0.308400  0.556700  0.955400  1.0
  H  H167  1  0.808400  0.556700  0.544600  1.0
  H  H168  1  0.691600  0.443300  0.044600  1.0
  H  H169  1  0.118900  0.239500  0.447500  1.0
  H  H170  1  0.381100  0.760500  0.947500  1.0
  H  H171  1  0.881100  0.760500  0.552500  1.0
  H  H172  1  0.618900  0.239500  0.052500  1.0
  H  H173  1  0.939900  0.098700  0.353900  1.0
  H  H174  1  0.560100  0.901300  0.853900  1.0
  H  H175  1  0.060100  0.901300  0.646100  1.0
  H  H176  1  0.439900  0.098700  0.146100  1.0
  H  H177  1  0.053700  0.116100  0.298000  1.0
  H  H178  1  0.446300  0.883900  0.798000  1.0
  H  H179  1  0.946300  0.883900  0.702000  1.0
  H  H180  1  0.553700  0.116100  0.202000  1.0
  H  H181  1  0.197400  0.191200  0.319700  1.0
  H  H182  1  0.302600  0.808800  0.819700  1.0
  H  H183  1  0.802600  0.808800  0.680300  1.0
  H  H184  1  0.697400  0.191200  0.180300  1.0
  H  H185  1  0.927300  0.144100  0.537800  1.0
  H  H186  1  0.572700  0.855900  0.037800  1.0
  H  H187  1  0.072700  0.855900  0.462200  1.0
  H  H188  1  0.427300  0.144100  0.962200  1.0
  H  H189  1  0.021600  0.205300  0.519800  1.0
  H  H190  1  0.478400  0.794700  0.019800  1.0
  H  H191  1  0.978400  0.794700  0.480200  1.0
  H  H192  1  0.521600  0.205300  0.980200  1.0
  H  H193  1  0.999000  0.100300  0.516700  1.0
  H  H194  1  0.501000  0.899700  0.016700  1.0
  H  H195  1  0.001000  0.899700  0.483300  1.0
  H  H196  1  0.499000  0.100300  0.983300  1.0
  H  H197  1  0.897300  0.294600  0.513000  1.0
  H  H198  1  0.602700  0.705400  0.013000  1.0
  H  H199  1  0.102700  0.705400  0.487000  1.0
  H  H200  1  0.397300  0.294600  0.987000  1.0
  H  H201  1  0.818000  0.400500  0.500600  1.0
  H  H202  1  0.682000  0.599500  0.000600  1.0
  H  H203  1  0.182000  0.599500  0.499400  1.0
  H  H204  1  0.318000  0.400500  0.999400  1.0
  H  H205  1  0.747900  0.406700  0.428300  1.0
  H  H206  1  0.752100  0.593300  0.928300  1.0
  H  H207  1  0.252100  0.593300  0.571700  1.0
  H  H208  1  0.247900  0.406700  0.071700  1.0
  H  H209  1  0.754100  0.310900  0.368600  1.0
  H  H210  1  0.745900  0.689100  0.868600  1.0
  H  H211  1  0.245900  0.689100  0.631400  1.0
  H  H212  1  0.254100  0.310900  0.131400  1.0
  H  H213  1  0.833700  0.209400  0.378100  1.0
  H  H214  1  0.666300  0.790600  0.878100  1.0
  H  H215  1  0.166300  0.790600  0.621900  1.0
  H  H216  1  0.333700  0.209400  0.121900  1.0
  H  H217  1  0.799400  0.899400  0.377100  1.0
  H  H218  1  0.700600  0.100600  0.877100  1.0
  H  H219  1  0.200600  0.100600  0.622900  1.0
  H  H220  1  0.299400  0.899400  0.122900  1.0
  H  H221  1  0.733400  0.833000  0.412800  1.0
  H  H222  1  0.766600  0.167000  0.912800  1.0
  H  H223  1  0.266600  0.167000  0.587200  1.0
  H  H224  1  0.233400  0.833000  0.087200  1.0
  H  H225  1  0.836900  0.869200  0.425100  1.0
  H  H226  1  0.663100  0.130800  0.925100  1.0
  H  H227  1  0.163100  0.130800  0.574900  1.0
  H  H228  1  0.336900  0.869200  0.074900  1.0
  H  H229  1  0.583700  0.964300  0.471000  1.0
  H  H230  1  0.916300  0.035700  0.971000  1.0
  H  H231  1  0.416300  0.035700  0.529000  1.0
  H  H232  1  0.083700  0.964300  0.029000  1.0
  H  H233  1  0.464500  0.002300  0.437300  1.0
  H  H234  1  0.035500  0.997700  0.937300  1.0
  H  H235  1  0.535500  0.997700  0.562700  1.0
  H  H236  1  0.964500  0.002300  0.062700  1.0
  H  H237  1  0.477400  0.066100  0.362400  1.0
  H  H238  1  0.022600  0.933900  0.862400  1.0
  H  H239  1  0.522600  0.933900  0.637600  1.0
  H  H240  1  0.977400  0.066100  0.137600  1.0
  H  H241  1  0.611500  0.098500  0.321800  1.0
  H  H242  1  0.888500  0.901500  0.821800  1.0
  H  H243  1  0.388500  0.901500  0.678200  1.0
  H  H244  1  0.111500  0.098500  0.178200  1.0
  H  H245  1  0.732000  0.060900  0.355600  1.0
  H  H246  1  0.768000  0.939100  0.855600  1.0
  H  H247  1  0.268000  0.939100  0.644400  1.0
  H  H248  1  0.232000  0.060900  0.144400  1.0
  H  H249  1  0.728400  0.821500  0.503600  1.0
  H  H250  1  0.771600  0.178500  0.003600  1.0
  H  H251  1  0.271600  0.178500  0.496400  1.0
  H  H252  1  0.228400  0.821500  0.996400  1.0
  H  H253  1  0.684500  0.894900  0.633400  1.0
  H  H254  1  0.815500  0.105100  0.133400  1.0
  H  H255  1  0.315500  0.105100  0.366600  1.0
  H  H256  1  0.184500  0.894900  0.866600  1.0
  H  H257  1  0.710700  0.039700  0.608300  1.0
  H  H258  1  0.789300  0.960300  0.108300  1.0
  H  H259  1  0.289300  0.960300  0.391700  1.0
  H  H260  1  0.210700  0.039700  0.891700  1.0
  H  H261  1  0.746600  0.075400  0.528200  1.0
  H  H262  1  0.753400  0.924600  0.028200  1.0
  H  H263  1  0.253400  0.924600  0.471800  1.0
  H  H264  1  0.246600  0.075400  0.971800  1.0
  Pd  Pd265  1  0.303390  0.280980  0.404595  1.0
  Pd  Pd266  1  0.196610  0.719020  0.904595  1.0
  Pd  Pd267  1  0.696610  0.719020  0.595405  1.0
  Pd  Pd268  1  0.803390  0.280980  0.095405  1.0
  C  C269  1  0.427300  0.841100  0.219900  1
  C  C270  1  0.072700  0.158900  0.719900  1
  C  C271  1  0.572700  0.158900  0.780100  1
  C  C272  1  0.927300  0.841100  0.280100  1
  C  C273  1  0.387500  0.801300  0.265600  1
  C  C274  1  0.112500  0.198700  0.765600  1
  C  C275  1  0.612500  0.198700  0.734400  1
  C  C276  1  0.887500  0.801300  0.234400  1
  C  C277  1  0.425700  0.852600  0.308100  1
  C  C278  1  0.074300  0.147400  0.808100  1
  C  C279  1  0.574300  0.147400  0.691900  1
  C  C280  1  0.925700  0.852600  0.191900  1
  C  C281  1  0.179200  0.739800  0.381700  1
  C  C282  1  0.320800  0.260200  0.881700  1
  C  C283  1  0.820800  0.260200  0.618300  1
  C  C284  1  0.679200  0.739800  0.118300  1
  C  C285  1  0.214600  0.665800  0.370700  1
  C  C286  1  0.285400  0.334200  0.870700  1
  C  C287  1  0.785400  0.334200  0.629300  1
  C  C288  1  0.714600  0.665800  0.129300  1
  C  C289  1  0.093900  0.731500  0.361100  1
  C  C290  1  0.406100  0.268500  0.861100  1
  C  C291  1  0.906100  0.268500  0.638900  1
  C  C292  1  0.593900  0.731500  0.138900  1
  C  C293  1  0.239500  0.987900  0.260100  1
  C  C294  1  0.260500  0.012100  0.760100  1
  C  C295  1  0.760500  0.012100  0.739900  1
  C  C296  1  0.739500  0.987900  0.239900  1
  C  C297  1  0.167800  0.375400  0.580700  1
  C  C298  1  0.332200  0.624600  0.080700  1
  C  C299  1  0.832200  0.624600  0.419300  1
  C  C300  1  0.667800  0.375400  0.919300  1
  C  C301  1  0.482700  0.447100  0.444900  1.0
  C  C302  1  0.017300  0.552900  0.944900  1.0
  C  C303  1  0.517300  0.552900  0.555100  1.0
  C  C304  1  0.982700  0.447100  0.055100  1.0
  C  C305  1  0.463300  0.517300  0.412900  1.0
  C  C306  1  0.036700  0.482700  0.912900  1.0
  C  C307  1  0.536700  0.482700  0.587100  1.0
  C  C308  1  0.963300  0.517300  0.087100  1.0
  C  C309  1  0.365200  0.510500  0.410700  1.0
  C  C310  1  0.134800  0.489500  0.910700  1.0
  C  C311  1  0.634800  0.489500  0.589300  1.0
  C  C312  1  0.865200  0.510500  0.089300  1.0
  C  C313  1  0.516700  0.338300  0.368400  1.0
  C  C314  1  0.983300  0.661700  0.868400  1.0
  C  C315  1  0.483300  0.661700  0.631600  1.0
  C  C316  1  0.016700  0.338300  0.131600  1.0
  C  C317  1  0.595400  0.406300  0.361100  1.0
  C  C318  1  0.904600  0.593700  0.861100  1.0
  C  C319  1  0.404600  0.593700  0.638900  1.0
  C  C320  1  0.095400  0.406300  0.138900  1.0
  C  C321  1  0.646800  0.402500  0.321300  1.0
  C  C322  1  0.853200  0.597500  0.821300  1.0
  C  C323  1  0.353200  0.597500  0.678700  1.0
  C  C324  1  0.146800  0.402500  0.178700  1.0
  C  C325  1  0.622200  0.335800  0.290000  1.0
  C  C326  1  0.877800  0.664200  0.790000  1.0
  C  C327  1  0.377800  0.664200  0.710000  1.0
  C  C328  1  0.122200  0.335800  0.210000  1.0
  C  C329  1  0.544300  0.267800  0.296000  1.0
  C  C330  1  0.955700  0.732200  0.796000  1.0
  C  C331  1  0.455700  0.732200  0.704000  1.0
  C  C332  1  0.044300  0.267800  0.204000  1.0
  C  C333  1  0.491200  0.270400  0.335300  1.0
  C  C334  1  0.008800  0.729600  0.835300  1.0
  C  C335  1  0.508800  0.729600  0.664700  1.0
  C  C336  1  0.991200  0.270400  0.164700  1.0
  C  C337  1  0.492400  0.277200  0.466000  1.0
  C  C338  1  0.007600  0.722800  0.966000  1.0
  C  C339  1  0.507600  0.722800  0.534000  1.0
  C  C340  1  0.992400  0.277200  0.034000  1.0
  C  C341  1  0.561600  0.242500  0.455700  1.0
  C  C342  1  0.938400  0.757500  0.955700  1.0
  C  C343  1  0.438400  0.757500  0.544300  1.0
  C  C344  1  0.061600  0.242500  0.044300  1.0
  C  C345  1  0.600400  0.208500  0.492300  1.0
  C  C346  1  0.899600  0.791500  0.992300  1.0
  C  C347  1  0.399600  0.791500  0.507700  1.0
  C  C348  1  0.100400  0.208500  0.007700  1.0
  C  C349  1  0.570800  0.209400  0.538800  1.0
  C  C350  1  0.929200  0.790600  0.038800  1.0
  C  C351  1  0.429200  0.790600  0.461200  1.0
  C  C352  1  0.070800  0.209400  0.961200  1.0
  C  C353  1  0.501200  0.241300  0.548800  1.0
  C  C354  1  0.998800  0.758700  0.048800  1.0
  C  C355  1  0.498800  0.758700  0.451200  1.0
  C  C356  1  0.001200  0.241300  0.951200  1.0
  C  C357  1  0.461800  0.275400  0.512700  1.0
  C  C358  1  0.038200  0.724600  0.012700  1.0
  C  C359  1  0.538200  0.724600  0.487300  1.0
  C  C360  1  0.961800  0.275400  0.987300  1.0
  C  C361  1  0.329300  0.433900  0.316300  1.0
  C  C362  1  0.170700  0.566100  0.816300  1.0
  C  C363  1  0.670700  0.566100  0.683700  1.0
  C  C364  1  0.829300  0.433900  0.183700  1.0
  C  C365  1  0.339100  0.515300  0.294700  1.0
  C  C366  1  0.160900  0.484700  0.794700  1.0
  C  C367  1  0.660900  0.484700  0.705300  1.0
  C  C368  1  0.839100  0.515300  0.205300  1.0
  C  C369  1  0.358100  0.527100  0.246900  1.0
  C  C370  1  0.141900  0.472900  0.746900  1.0
  C  C371  1  0.641900  0.472900  0.753100  1.0
  C  C372  1  0.858100  0.527100  0.253100  1.0
  C  C373  1  0.367800  0.459100  0.219500  1.0
  C  C374  1  0.132200  0.540900  0.719500  1.0
  C  C375  1  0.632200  0.540900  0.780500  1.0
  C  C376  1  0.867800  0.459100  0.280500  1.0
  C  C377  1  0.358200  0.378200  0.240000  1.0
  C  C378  1  0.141800  0.621800  0.740000  1.0
  C  C379  1  0.641800  0.621800  0.760000  1.0
  C  C380  1  0.858200  0.378200  0.260000  1.0
  C  C381  1  0.339400  0.364600  0.289000  1.0
  C  C382  1  0.160600  0.635400  0.789000  1.0
  C  C383  1  0.660600  0.635400  0.711000  1.0
  C  C384  1  0.839400  0.364600  0.211000  1.0
  C  C385  1  0.188000  0.425400  0.383200  1.0
  C  C386  1  0.312000  0.574600  0.883200  1.0
  C  C387  1  0.812000  0.574600  0.616800  1.0
  C  C388  1  0.688000  0.425400  0.116800  1.0
  C  C389  1  0.133700  0.414100  0.344100  1.0
  C  C390  1  0.366300  0.585900  0.844100  1.0
  C  C391  1  0.866300  0.585900  0.655900  1.0
  C  C392  1  0.633700  0.414100  0.155900  1.0
  C  C393  1  0.048800  0.421000  0.349000  1.0
  C  C394  1  0.451200  0.579000  0.849000  1.0
  C  C395  1  0.951200  0.579000  0.651000  1.0
  C  C396  1  0.548800  0.421000  0.151000  1.0
  C  C397  1  0.017300  0.435800  0.392300  1.0
  C  C398  1  0.482700  0.564200  0.892300  1.0
  C  C399  1  0.982700  0.564200  0.607700  1.0
  C  C400  1  0.517300  0.435800  0.107700  1.0
  C  C401  1  0.070900  0.445800  0.431500  1.0
  C  C402  1  0.429100  0.554200  0.931500  1.0
  C  C403  1  0.929100  0.554200  0.568500  1.0
  C  C404  1  0.570900  0.445800  0.068500  1.0
  C  C405  1  0.155500  0.438900  0.427900  1.0
  C  C406  1  0.344500  0.561100  0.927900  1.0
  C  C407  1  0.844500  0.561100  0.572100  1.0
  C  C408  1  0.655500  0.438900  0.072100  1.0
  C  C409  1  0.104600  0.213600  0.416900  1.0
  C  C410  1  0.395400  0.786400  0.916900  1.0
  C  C411  1  0.895400  0.786400  0.583100  1.0
  C  C412  1  0.604600  0.213600  0.083100  1.0
  C  C413  1  0.017500  0.167300  0.407600  1.0
  C  C414  1  0.482500  0.832700  0.907600  1.0
  C  C415  1  0.982500  0.832700  0.592400  1.0
  C  C416  1  0.517500  0.167300  0.092400  1.0
  C  C417  1  0.999100  0.130700  0.362100  1.0
  C  C418  1  0.500900  0.869300  0.862100  1.0
  C  C419  1  0.000900  0.869300  0.637900  1.0
  C  C420  1  0.499100  0.130700  0.137900  1.0
  C  C421  1  0.066100  0.140400  0.329000  1.0
  C  C422  1  0.433900  0.859600  0.829000  1.0
  C  C423  1  0.933900  0.859600  0.671000  1.0
  C  C424  1  0.566100  0.140400  0.171000  1.0
  C  C425  1  0.150700  0.185900  0.341900  1.0
  C  C426  1  0.349300  0.814100  0.841900  1.0
  C  C427  1  0.849300  0.814100  0.658100  1.0
  C  C428  1  0.650700  0.185900  0.158100  1.0
  C  C429  1  0.974400  0.150300  0.514100  1.0
  C  C430  1  0.525600  0.849700  0.014100  1.0
  C  C431  1  0.025600  0.849700  0.485900  1.0
  C  C432  1  0.474400  0.150300  0.985900  1.0
  C  C433  1  0.872000  0.240500  0.446800  1.0
  C  C434  1  0.628000  0.759500  0.946800  1.0
  C  C435  1  0.128000  0.759500  0.553200  1.0
  C  C436  1  0.372000  0.240500  0.053200  1.0
  C  C437  1  0.868700  0.297400  0.483500  1.0
  C  C438  1  0.631300  0.702600  0.983500  1.0
  C  C439  1  0.131300  0.702600  0.516500  1.0
  C  C440  1  0.368700  0.297400  0.016500  1.0
  C  C441  1  0.821000  0.360600  0.475800  1.0
  C  C442  1  0.679000  0.639400  0.975800  1.0
  C  C443  1  0.179000  0.639400  0.524200  1.0
  C  C444  1  0.321000  0.360600  0.024200  1.0
  C  C445  1  0.779400  0.364500  0.433000  1.0
  C  C446  1  0.720600  0.635500  0.933000  1.0
  C  C447  1  0.220600  0.635500  0.567000  1.0
  C  C448  1  0.279400  0.364500  0.067000  1.0
  C  C449  1  0.783500  0.308500  0.397800  1.0
  C  C450  1  0.716500  0.691500  0.897800  1.0
  C  C451  1  0.216500  0.691500  0.602200  1.0
  C  C452  1  0.283500  0.308500  0.102200  1.0
  C  C453  1  0.830100  0.247300  0.403700  1.0
  C  C454  1  0.669900  0.752700  0.903700  1.0
  C  C455  1  0.169900  0.752700  0.596300  1.0
  C  C456  1  0.330100  0.247300  0.096300  1.0
  C  C457  1  0.786400  0.883900  0.410600  1.0
  C  C458  1  0.713600  0.116100  0.910600  1.0
  C  C459  1  0.213600  0.116100  0.589400  1.0
  C  C460  1  0.286400  0.883900  0.089400  1.0
  C  C461  1  0.670700  0.009200  0.417100  1.0
  C  C462  1  0.829300  0.990800  0.917100  1.0
  C  C463  1  0.329300  0.990800  0.582900  1.0
  C  C464  1  0.170700  0.009200  0.082900  1.0
  C  C465  1  0.590300  0.991700  0.440600  1.0
  C  C466  1  0.909700  0.008300  0.940600  1.0
  C  C467  1  0.409700  0.008300  0.559400  1.0
  C  C468  1  0.090300  0.991700  0.059400  1.0
  C  C469  1  0.519000  0.013900  0.420400  1.0
  C  C470  1  0.981000  0.986100  0.920400  1.0
  C  C471  1  0.481000  0.986100  0.579600  1.0
  C  C472  1  0.019000  0.013900  0.079600  1.0
  C  C473  1  0.526800  0.052400  0.376200  1.0
  C  C474  1  0.973200  0.947600  0.876200  1.0
  C  C475  1  0.473200  0.947600  0.623800  1.0
  C  C476  1  0.026800  0.052400  0.123800  1.0
  C  C477  1  0.605600  0.070900  0.352100  1.0
  C  C478  1  0.894400  0.929100  0.852100  1.0
  C  C479  1  0.394400  0.929100  0.647900  1.0
  C  C480  1  0.105600  0.070900  0.147900  1.0
  C  C481  1  0.677500  0.048700  0.372500  1.0
  C  C482  1  0.822500  0.951300  0.872500  1.0
  C  C483  1  0.322500  0.951300  0.627500  1.0
  C  C484  1  0.177500  0.048700  0.127500  1.0
  C  C485  1  0.741800  0.951200  0.507100  1.0
  C  C486  1  0.758200  0.048800  0.007100  1.0
  C  C487  1  0.258200  0.048800  0.492900  1.0
  C  C488  1  0.241800  0.951200  0.992900  1.0
  C  C489  1  0.724800  0.867100  0.524700  1.0
  C  C490  1  0.775200  0.132900  0.024700  1.0
  C  C491  1  0.275200  0.132900  0.475300  1.0
  C  C492  1  0.224800  0.867100  0.975300  1.0
  C  C493  1  0.698800  0.909700  0.601000  1.0
  C  C494  1  0.801200  0.090300  0.101000  1.0
  C  C495  1  0.301200  0.090300  0.399000  1.0
  C  C496  1  0.198800  0.909700  0.899000  1.0
  C  C497  1  0.714500  0.995400  0.586400  1.0
  C  C498  1  0.785500  0.004600  0.086400  1.0
  C  C499  1  0.285500  0.004600  0.413600  1.0
  C  C500  1  0.214500  0.995400  0.913600  1.0
  C  C501  1  0.735900  0.016300  0.538900  1.0
  C  C502  1  0.764100  0.983700  0.038900  1.0
  C  C503  1  0.264100  0.983700  0.461100  1.0
  C  C504  1  0.235900  0.016300  0.961100  1.0
  S  S505  1  0.331210  0.089500  0.253440  1
  S  S506  1  0.168790  0.910500  0.753440  1
  S  S507  1  0.668790  0.910500  0.746560  1
  S  S508  1  0.831210  0.089500  0.246560  1
  S  S509  1  0.267000  0.380870  0.545920  1
  S  S510  1  0.233000  0.619130  0.045920  1
  S  S511  1  0.733000  0.619130  0.454080  1
  S  S512  1  0.767000  0.380870  0.954080  1
  N  N513  1  0.170200  0.223800  0.385090  1.0
  N  N514  1  0.329800  0.776200  0.885090  1.0
  N  N515  1  0.829800  0.776200  0.614910  1.0
  N  N516  1  0.670200  0.223800  0.114910  1.0
  N  N517  1  0.703500  0.846400  0.570380  1.0
  N  N518  1  0.796500  0.153600  0.070380  1.0
  N  N519  1  0.296500  0.153600  0.429620  1.0
  N  N520  1  0.203500  0.846400  0.929620  1.0
  O  O521  1  0.325500  0.730800  0.267700  1
  O  O522  1  0.174500  0.269200  0.767700  1
  O  O523  1  0.674500  0.269200  0.732300  1
  O  O524  1  0.825500  0.730800  0.232300  1
  O  O525  1  0.217100  0.800300  0.406300  1
  O  O526  1  0.282900  0.199700  0.906300  1
  O  O527  1  0.782900  0.199700  0.593700  1
  O  O528  1  0.717100  0.800300  0.093700  1
  O  O529  1  0.312000  0.149900  0.284700  1
  O  O530  1  0.188000  0.850100  0.784700  1
  O  O531  1  0.688000  0.850100  0.715300  1
  O  O532  1  0.812000  0.149900  0.215300  1
  O  O533  1  0.332500  0.130600  0.205000  1
  O  O534  1  0.167500  0.869400  0.705000  1
  O  O535  1  0.667500  0.869400  0.795000  1
  O  O536  1  0.832500  0.130600  0.295000  1
  O  O537  1  0.403600  0.070200  0.270800  1
  O  O538  1  0.096400  0.929800  0.770800  1
  O  O539  1  0.596400  0.929800  0.729200  1
  O  O540  1  0.903600  0.070200  0.229200  1
  O  O541  1  0.294100  0.469600  0.528550  1
  O  O542  1  0.205900  0.530400  0.028550  1
  O  O543  1  0.705900  0.530400  0.471450  1
  O  O544  1  0.794100  0.469600  0.971450  1
  O  O545  1  0.235000  0.314600  0.509420  1
  O  O546  1  0.265000  0.685400  0.009420  1
  O  O547  1  0.765000  0.685400  0.490580  1
  O  O548  1  0.735000  0.314600  0.990580  1
  O  O549  1  0.326300  0.361100  0.580000  1
  O  O550  1  0.173700  0.638900  0.080000  1
  O  O551  1  0.673700  0.638900  0.420000  1
  O  O552  1  0.826300  0.361100  0.920000  1
  O  O553  1  0.856700  0.059000  0.439160  1.0
  O  O554  1  0.643300  0.941000  0.939160  1.0
  O  O555  1  0.143300  0.941000  0.560840  1.0
  O  O556  1  0.356700  0.059000  0.060840  1.0
  F  F557  1  0.231100  0.961200  0.300400  1
  F  F558  1  0.268900  0.038800  0.800400  1
  F  F559  1  0.768900  0.038800  0.699600  1
  F  F560  1  0.731100  0.961200  0.199600  1
  F  F561  1  0.165400  0.995200  0.245000  1
  F  F562  1  0.334600  0.004800  0.745000  1
  F  F563  1  0.834600  0.004800  0.755000  1
  F  F564  1  0.665400  0.995200  0.255000  1
  F  F565  1  0.256400  0.941700  0.221900  1
  F  F566  1  0.243600  0.058300  0.721900  1
  F  F567  1  0.743600  0.058300  0.778100  1
  F  F568  1  0.756400  0.941700  0.278100  1
  F  F569  1  0.185500  0.431700  0.616590  1
  F  F570  1  0.314500  0.568300  0.116590  1
  F  F571  1  0.814500  0.568300  0.383410  1
  F  F572  1  0.685500  0.431700  0.883410  1
  F  F573  1  0.107400  0.395400  0.553800  1
  F  F574  1  0.392600  0.604600  0.053800  1
  F  F575  1  0.892600  0.604600  0.446200  1
  F  F576  1  0.607400  0.395400  0.946200  1
  F  F577  1  0.133000  0.295300  0.598500  1
  F  F578  1  0.367000  0.704700  0.098500  1
  F  F579  1  0.867000  0.704700  0.401500  1
  F  F580  1  0.633000  0.295300  0.901500  1
