# generated using pymatgen
data_In3H82C65N11O32
_symmetry_space_group_name_H-M   'P 1'
_cell_length_a   14.41110000
_cell_length_b   16.04660000
_cell_length_c   16.73880000
_cell_angle_alpha   114.21600000
_cell_angle_beta   95.44100000
_cell_angle_gamma   91.59500000
_symmetry_Int_Tables_number   1
_chemical_formula_structural   In3H82C65N11O32
_chemical_formula_sum   'In6 H164 C130 N22 O64'
_cell_volume   3504.81117420
_cell_formula_units_Z   2
loop_
 _symmetry_equiv_pos_site_id
 _symmetry_equiv_pos_as_xyz
  1  'x, y, z'
loop_
 _atom_site_type_symbol
 _atom_site_label
 _atom_site_symmetry_multiplicity
 _atom_site_fract_x
 _atom_site_fract_y
 _atom_site_fract_z
 _atom_site_occupancy
  In  In1  1  0.759480  0.497970  0.795330  1.0
  In  In2  1  0.240520  0.502030  0.204670  1.0
  In  In3  1  0.690120  0.192500  0.254860  1.0
  In  In4  1  0.309880  0.807500  0.745140  1.0
  In  In5  1  0.762550  0.750430  0.433660  1.0
  In  In6  1  0.237450  0.249570  0.566340  1.0
  H  H7  1  0.785900  0.081800  0.939000  1
  H  H8  1  0.214100  0.918200  0.061000  1
  H  H9  1  0.711000  0.869700  0.777400  1
  H  H10  1  0.289000  0.130300  0.222600  1
  H  H11  1  0.619800  0.859300  0.821200  1
  H  H12  1  0.380200  0.140700  0.178800  1
  H  H13  1  0.718800  0.835200  0.854800  1
  H  H14  1  0.281200  0.164800  0.145200  1
  H  H15  1  0.644700  0.979600  0.003600  1
  H  H16  1  0.355300  0.020400  0.996400  1
  H  H17  1  0.574900  0.993000  0.930200  1
  H  H18  1  0.425100  0.007000  0.069800  1
  H  H19  1  0.651400  0.073500  0.991800  1
  H  H20  1  0.348600  0.926500  0.008200  1
  H  H21  1  0.816000  0.032500  0.578500  1
  H  H22  1  0.184000  0.967500  0.421500  1
  H  H23  1  0.659900  0.190900  0.664000  1
  H  H24  1  0.340100  0.809100  0.336000  1
  H  H25  1  0.576300  0.123500  0.596600  1
  H  H26  1  0.423700  0.876500  0.403400  1
  H  H27  1  0.630200  0.196800  0.572000  1
  H  H28  1  0.369800  0.803200  0.428000  1
  H  H29  1  0.710000  0.973300  0.452200  1
  H  H30  1  0.290000  0.026700  0.547800  1
  H  H31  1  0.715900  0.063900  0.434400  1
  H  H32  1  0.284100  0.936100  0.565600  1
  H  H33  1  0.617700  0.025100  0.447700  1
  H  H34  1  0.382300  0.974900  0.552300  1
  H  H35  1  0.052000  0.090200  0.565800  1
  H  H36  1  0.948000  0.909800  0.434200  1
  H  H37  1  0.029800  0.023700  0.615600  1
  H  H38  1  0.970200  0.976300  0.384400  1
  H  H39  1  0.002200  0.124100  0.652100  1
  H  H40  1  0.997800  0.875900  0.347900  1
  H  H41  1  0.764000  0.576800  0.101700  1
  H  H42  1  0.236000  0.423200  0.898300  1
  H  H43  1  0.686800  0.432800  0.032500  1
  H  H44  1  0.313200  0.567200  0.967500  1
  H  H45  1  0.623700  0.516300  0.042900  1
  H  H46  1  0.376300  0.483700  0.957100  1
  H  H47  1  0.541300  0.409300  0.075900  1
  H  H48  1  0.458700  0.590700  0.924100  1
  H  H49  1  0.562400  0.502400  0.163300  1
  H  H50  1  0.437600  0.497600  0.836700  1
  H  H51  1  0.623800  0.417100  0.150300  1
  H  H52  1  0.376200  0.582900  0.849700  1
  H  H53  1  0.727000  0.178100  0.789300  1
  H  H54  1  0.273000  0.821900  0.210700  1
  H  H55  1  0.759700  0.311200  0.892500  1
  H  H56  1  0.240300  0.688800  0.107500  1
  H  H57  1  0.810600  0.252300  0.938700  1
  H  H58  1  0.189400  0.747700  0.061300  1
  H  H59  1  0.729600  0.363900  0.040300  1
  H  H60  1  0.270400  0.636100  0.959700  1
  H  H61  1  0.682600  0.264900  0.020800  1
  H  H62  1  0.317400  0.735100  0.979200  1
  H  H63  1  0.634100  0.326100  0.975800  1
  H  H64  1  0.365900  0.673900  0.024200  1
  H  H65  1  0.831900  0.036200  0.217900  1
  H  H66  1  0.168100  0.963800  0.782100  1
  H  H67  1  0.908500  0.029700  0.280700  1
  H  H68  1  0.091500  0.970300  0.719300  1
  H  H69  1  0.828700  0.958900  0.245100  1
  H  H70  1  0.171300  0.041100  0.754900  1
  H  H71  1  0.886300  0.772200  0.163400  1
  H  H72  1  0.113700  0.227800  0.836600  1
  H  H73  1  0.893400  0.850100  0.251800  1
  H  H74  1  0.106600  0.149900  0.748200  1
  H  H75  1  0.968500  0.785300  0.229200  1
  H  H76  1  0.031500  0.214700  0.770800  1
  H  H77  1  0.959900  0.985600  0.146400  1
  H  H78  1  0.040100  0.014400  0.853600  1
  H  H79  1  0.026200  0.908300  0.222200  1
  H  H80  1  0.973800  0.091700  0.777800  1
  H  H81  1  0.064800  0.776900  0.104100  1
  H  H82  1  0.935200  0.223100  0.895900  1
  H  H83  1  0.065600  0.865600  0.082800  1
  H  H84  1  0.934400  0.134400  0.917200  1
  H  H85  1  0.912600  0.726300  0.023700  1
  H  H86  1  0.087400  0.273700  0.976300  1
  H  H87  1  0.984300  0.737800  0.960600  1
  H  H88  1  0.015700  0.262200  0.039400  1
  H  H89  1  0.928900  0.883900  0.981100  1
  H  H90  1  0.071100  0.116100  0.018900  1
  H  H91  1  0.841200  0.809500  0.946400  1
  H  H92  1  0.158800  0.190500  0.053600  1
  H  H93  1  0.807900  0.945500  0.070600  1
  H  H94  1  0.192100  0.054500  0.929400  1
  H  H95  1  0.799700  0.856900  0.091700  1
  H  H96  1  0.200300  0.143100  0.908300  1
  H  H97  1  0.969300  0.579800  0.075800  1
  H  H98  1  0.030700  0.420200  0.924200  1
  H  H99  1  0.910300  0.537800  0.980300  1
  H  H100  1  0.089700  0.462200  0.019700  1
  H  H101  1  0.054400  0.602500  0.972300  1
  H  H102  1  0.945600  0.397500  0.027700  1
  H  H103  1  0.050100  0.494100  0.915400  1
  H  H104  1  0.949900  0.505900  0.084600  1
  H  H105  1  0.108300  0.539000  0.011300  1
  H  H106  1  0.891700  0.461000  0.988700  1
  H  H107  1  0.981300  0.444600  0.069000  1
  H  H108  1  0.018700  0.555400  0.931000  1
  H  H109  1  0.052400  0.429200  0.527000  1
  H  H110  1  0.947600  0.570800  0.473000  1
  H  H111  1  0.921000  0.597200  0.501400  1
  H  H112  1  0.079000  0.402800  0.498600  1
  H  H113  1  0.993800  0.590800  0.431500  1
  H  H114  1  0.006200  0.409200  0.568500  1
  H  H115  1  0.016300  0.656800  0.509600  1
  H  H116  1  0.983700  0.343200  0.490400  1
  H  H117  1  0.170700  0.502400  0.530500  1
  H  H118  1  0.829300  0.497600  0.469500  1
  H  H119  1  0.156300  0.545400  0.458700  1
  H  H120  1  0.843700  0.454600  0.541300  1
  H  H121  1  0.158800  0.614100  0.553200  1
  H  H122  1  0.841200  0.385900  0.446800  1
  H  H123  1  0.475500  0.403900  0.551400  1.0
  H  H124  1  0.524500  0.596100  0.448600  1.0
  H  H125  1  0.422400  0.501400  0.473600  1.0
  H  H126  1  0.577600  0.498600  0.526400  1.0
  H  H127  1  0.444400  0.396000  0.428300  1.0
  H  H128  1  0.555600  0.604000  0.571700  1.0
  H  H129  1  0.461100  0.518300  0.620600  1.0
  H  H130  1  0.538900  0.481700  0.379400  1.0
  H  H131  1  0.396200  0.558600  0.564000  1.0
  H  H132  1  0.603800  0.441400  0.436000  1.0
  H  H133  1  0.420100  0.453500  0.521200  1.0
  H  H134  1  0.579900  0.546500  0.478800  1.0
  H  H135  1  0.969500  0.238200  0.634800  1.0
  H  H136  1  0.030500  0.761800  0.365200  1.0
  H  H137  1  0.898300  0.183300  0.488400  1.0
  H  H138  1  0.101700  0.816700  0.511600  1.0
  H  H139  1  0.713500  0.376000  0.572200  1.0
  H  H140  1  0.286500  0.624000  0.427800  1.0
  H  H141  1  0.643300  0.772400  0.050400  1.0
  H  H142  1  0.356700  0.227600  0.949600  1.0
  H  H143  1  0.517700  0.809200  0.975400  1.0
  H  H144  1  0.482300  0.190800  0.024600  1.0
  H  H145  1  0.570200  0.602400  0.750700  1.0
  H  H146  1  0.429800  0.397600  0.249300  1.0
  H  H147  1  0.959200  0.351900  0.172800  1.0
  H  H148  1  0.040800  0.648100  0.827200  1.0
  H  H149  1  0.930700  0.504000  0.248700  1.0
  H  H150  1  0.069300  0.496000  0.751300  1.0
  H  H151  1  0.711000  0.424000  0.337000  1.0
  H  H152  1  0.289000  0.576000  0.663000  1.0
  H  H153  1  0.452900  0.935600  0.234400  1.0
  H  H154  1  0.547100  0.064400  0.765600  1.0
  H  H155  1  0.362300  0.018700  0.346400  1.0
  H  H156  1  0.637700  0.981300  0.653600  1.0
  H  H157  1  0.526600  0.244000  0.396700  1.0
  H  H158  1  0.473400  0.756000  0.603300  1.0
  H  H159  1  0.976600  0.843400  0.723700  1.0
  H  H160  1  0.023400  0.156600  0.276300  1.0
  H  H161  1  0.920700  0.741400  0.779400  1.0
  H  H162  1  0.079300  0.258600  0.220600  1.0
  H  H163  1  0.739100  0.628200  0.553900  1.0
  H  H164  1  0.260900  0.371800  0.446100  1.0
  H  H165  1  0.574700  0.809500  0.184900  1.0
  H  H166  1  0.425300  0.190500  0.815100  1.0
  H  H167  1  0.436500  0.719000  0.164700  1.0
  H  H168  1  0.563500  0.281000  0.835300  1.0
  H  H169  1  0.551800  0.638000  0.347100  1.0
  H  H170  1  0.448200  0.362000  0.652900  1.0
  C  C171  1  0.777300  0.020400  0.895500  1
  C  C172  1  0.222700  0.979600  0.104500  1
  C  C173  1  0.687200  0.875900  0.832400  1
  C  C174  1  0.312800  0.124100  0.167600  1
  C  C175  1  0.638600  0.007000  0.960900  1
  C  C176  1  0.361400  0.993000  0.039100  1
  C  C177  1  0.774900  0.077300  0.608300  1
  C  C178  1  0.225100  0.922700  0.391700  1
  C  C179  1  0.637100  0.155400  0.601600  1
  C  C180  1  0.362900  0.844600  0.398400  1
  C  C181  1  0.685200  0.033300  0.466000  1
  C  C182  1  0.314800  0.966700  0.534000  1
  C  C183  1  0.658000  0.485000  0.076000  1
  C  C184  1  0.342000  0.515000  0.924000  1
  C  C185  1  0.590000  0.450000  0.120000  1
  C  C186  1  0.410000  0.550000  0.880000  1
  C  C187  1  0.749000  0.267000  0.918000  1
  C  C188  1  0.251000  0.733000  0.082000  1
  C  C189  1  0.694000  0.309000  0.996000  1
  C  C190  1  0.306000  0.691000  0.004000  1
  C  C191  1  0.917400  0.942800  0.158500  1
  C  C192  1  0.082600  0.057200  0.841500  1
  C  C193  1  0.975500  0.872000  0.174100  1
  C  C194  1  0.024500  0.128000  0.825900  1
  C  C195  1  0.025000  0.821600  0.093800  1
  C  C196  1  0.975000  0.178400  0.906200  1
  C  C197  1  0.952200  0.771400  0.013200  1
  C  C198  1  0.047800  0.228600  0.986800  1
  C  C199  1  0.890000  0.842100  0.996500  1
  C  C200  1  0.110000  0.157900  0.003500  1
  C  C201  1  0.843800  0.897900  0.080000  1
  C  C202  1  0.156200  0.102100  0.920000  1
  C  C203  1  0.966500  0.531000  0.015400  1
  C  C204  1  0.033500  0.469000  0.984600  1
  C  C205  1  0.052300  0.543000  0.975000  1
  C  C206  1  0.947700  0.457000  0.025000  1
  C  C207  1  0.005000  0.466000  0.515000  1
  C  C208  1  0.995000  0.534000  0.485000  1
  C  C209  1  0.984000  0.598000  0.484000  1
  C  C210  1  0.016000  0.402000  0.516000  1
  C  C211  1  0.143000  0.553000  0.513000  1
  C  C212  1  0.857000  0.447000  0.487000  1
  C  C213  1  0.470500  0.457800  0.470900  1.0
  C  C214  1  0.529500  0.542200  0.529100  1.0
  C  C215  1  0.444300  0.515800  0.561600  1.0
  C  C216  1  0.555700  0.484200  0.438400  1.0
  C  C217  1  0.879600  0.336500  0.685200  1.0
  C  C218  1  0.120400  0.663500  0.314800  1.0
  C  C219  1  0.916500  0.265400  0.620400  1.0
  C  C220  1  0.083500  0.734600  0.379600  1.0
  C  C221  1  0.875700  0.233800  0.534100  1.0
  C  C222  1  0.124300  0.766200  0.465900  1.0
  C  C223  1  0.800900  0.278100  0.516700  1.0
  C  C224  1  0.199100  0.721900  0.483300  1.0
  C  C225  1  0.766400  0.347600  0.584900  1.0
  C  C226  1  0.233600  0.652400  0.415100  1.0
  C  C227  1  0.918800  0.373400  0.781200  1.0
  C  C228  1  0.081200  0.626600  0.218800  1.0
  C  C229  1  0.757100  0.250900  0.423400  1.0
  C  C230  1  0.242900  0.749100  0.576600  1.0
  C  C231  1  0.679300  0.666200  0.943900  1.0
  C  C232  1  0.320700  0.333800  0.056100  1.0
  C  C233  1  0.627700  0.737800  0.988800  1.0
  C  C234  1  0.372300  0.262200  0.011200  1.0
  C  C235  1  0.553500  0.759500  0.944900  1.0
  C  C236  1  0.446500  0.240500  0.055100  1.0
  C  C237  1  0.532600  0.708300  0.857000  1.0
  C  C238  1  0.467400  0.291700  0.143000  1.0
  C  C239  1  0.585300  0.636700  0.812500  1.0
  C  C240  1  0.414700  0.363300  0.187500  1.0
  C  C241  1  0.759300  0.635900  0.987200  1.0
  C  C242  1  0.240700  0.364100  0.012800  1.0
  C  C243  1  0.547300  0.268500  0.196400  1.0
  C  C244  1  0.452700  0.731500  0.803600  1.0
  C  C245  1  0.850800  0.302000  0.212500  1.0
  C  C246  1  0.149200  0.698000  0.787500  1.0
  C  C247  1  0.908300  0.368000  0.207100  1.0
  C  C248  1  0.091700  0.632000  0.792900  1.0
  C  C249  1  0.891400  0.457000  0.251600  1.0
  C  C250  1  0.108600  0.543000  0.748400  1.0
  C  C251  1  0.817300  0.479700  0.301100  1.0
  C  C252  1  0.182700  0.520300  0.698900  1.0
  C  C253  1  0.762200  0.409300  0.303000  1.0
  C  C254  1  0.237800  0.590700  0.697000  1.0
  C  C255  1  0.867200  0.199800  0.168300  1.0
  C  C256  1  0.132800  0.800200  0.831700  1.0
  C  C257  1  0.795200  0.576600  0.350800  1.0
  C  C258  1  0.204800  0.423400  0.649200  1.0
  C  C259  1  0.538700  0.045800  0.252900  1.0
  C  C260  1  0.461300  0.954200  0.747100  1.0
  C  C261  1  0.466500  0.999500  0.268400  1.0
  C  C262  1  0.533500  0.000500  0.731600  1.0
  C  C263  1  0.414100  0.048300  0.334800  1.0
  C  C264  1  0.585900  0.951700  0.665200  1.0
  C  C265  1  0.437500  0.140300  0.384100  1.0
  C  C266  1  0.562500  0.859700  0.615900  1.0
  C  C267  1  0.511500  0.180200  0.363600  1.0
  C  C268  1  0.488500  0.819800  0.636400  1.0
  C  C269  1  0.600700  0.996800  0.179600  1.0
  C  C270  1  0.399300  0.003200  0.820400  1.0
  C  C271  1  0.618800  0.801700  0.544500  1.0
  C  C272  1  0.381200  0.198300  0.455500  1.0
  C  C273  1  0.891900  0.793200  0.610800  1.0
  C  C274  1  0.108100  0.206800  0.389200  1.0
  C  C275  1  0.928100  0.797700  0.689900  1.0
  C  C276  1  0.071900  0.202300  0.310100  1.0
  C  C277  1  0.896600  0.737500  0.723100  1.0
  C  C278  1  0.103400  0.262500  0.276900  1.0
  C  C279  1  0.824900  0.668600  0.666900  1.0
  C  C280  1  0.175100  0.331400  0.333100  1.0
  C  C281  1  0.789400  0.671100  0.588600  1.0
  C  C282  1  0.210600  0.328900  0.411400  1.0
  C  C283  1  0.925600  0.857800  0.573900  1.0
  C  C284  1  0.074400  0.142200  0.426100  1.0
  C  C285  1  0.787100  0.600200  0.697500  1.0
  C  C286  1  0.212900  0.399800  0.302500  1.0
  C  C287  1  0.639000  0.774400  0.278000  1.0
  C  C288  1  0.361000  0.225600  0.722000  1.0
  C  C289  1  0.568400  0.773800  0.217700  1.0
  C  C290  1  0.431600  0.226200  0.782300  1.0
  C  C291  1  0.487300  0.719900  0.205600  1.0
  C  C292  1  0.512700  0.280100  0.794400  1.0
  C  C293  1  0.480300  0.667900  0.252500  1.0
  C  C294  1  0.519700  0.332100  0.747500  1.0
  C  C295  1  0.556200  0.673100  0.313500  1.0
  C  C296  1  0.443800  0.326900  0.686500  1.0
  C  C297  1  0.730600  0.831900  0.296500  1.0
  C  C298  1  0.269400  0.168100  0.703500  1.0
  C  C299  1  0.604400  0.392000  0.759900  1.0
  C  C300  1  0.395600  0.608000  0.240100  1.0
  N  N301  1  0.705000  0.969600  0.897000  1
  N  N302  1  0.295000  0.030400  0.103000  1
  N  N303  1  0.703000  0.089100  0.560600  1
  N  N304  1  0.297000  0.910900  0.439400  1
  N  N305  1  0.866800  0.997000  0.232600  1
  N  N306  1  0.133200  0.003000  0.767400  1
  N  N307  1  0.926300  0.814500  0.207800  1
  N  N308  1  0.073700  0.185500  0.792200  1
  N  N309  1  0.042000  0.537000  0.506000  1
  N  N310  1  0.958000  0.463000  0.494000  1
  N  N311  1  0.803900  0.376200  0.667200  1.0
  N  N312  1  0.196100  0.623800  0.332800  1.0
  N  N313  1  0.659200  0.614200  0.856000  1.0
  N  N314  1  0.340800  0.385800  0.144000  1.0
  N  N315  1  0.777300  0.322600  0.259800  1.0
  N  N316  1  0.222700  0.677400  0.740200  1.0
  N  N317  1  0.562400  0.135500  0.301300  1.0
  N  N318  1  0.437600  0.864500  0.698700  1.0
  N  N319  1  0.821600  0.730000  0.559200  1.0
  N  N320  1  0.178400  0.270000  0.440800  1.0
  N  N321  1  0.633600  0.724900  0.326200  1.0
  N  N322  1  0.366400  0.275100  0.673800  1.0
  O  O323  1  0.834900  0.994400  0.842000  1
  O  O324  1  0.165100  0.005600  0.158000  1
  O  O325  1  0.792900  0.120000  0.688900  1
  O  O326  1  0.207100  0.880000  0.311100  1
  O  O327  1  0.023100  0.079900  0.608600  1
  O  O328  1  0.976900  0.920100  0.391400  1
  O  O329  1  0.730000  0.547000  0.137000  1
  O  O330  1  0.270000  0.453000  0.863000  1
  O  O331  1  0.702000  0.185000  0.852000  1
  O  O332  1  0.298000  0.815000  0.148000  1
  O  O333  1  0.958000  0.444400  0.019000  1
  O  O334  1  0.042000  0.555600  0.981000  1
  O  O335  1  0.920000  0.446000  0.508000  1
  O  O336  1  0.080000  0.554000  0.492000  1
  O  O337  1  0.491000  0.458000  0.555200  1.0
  O  O338  1  0.509000  0.542000  0.444800  1.0
  O  O339  1  0.881200  0.441000  0.833200  1.0
  O  O340  1  0.118800  0.559000  0.166800  1.0
  O  O341  1  0.985700  0.336700  0.802500  1.0
  O  O342  1  0.014300  0.663300  0.197500  1.0
  O  O343  1  0.698700  0.297100  0.406700  1.0
  O  O344  1  0.301300  0.702900  0.593300  1.0
  O  O345  1  0.783500  0.178200  0.363100  1.0
  O  O346  1  0.216500  0.821800  0.636900  1.0
  O  O347  1  0.803600  0.572900  0.937800  1.0
  O  O348  1  0.196400  0.427100  0.062200  1.0
  O  O349  1  0.780400  0.682700  0.068100  1.0
  O  O350  1  0.219600  0.317300  0.931900  1.0
  O  O351  1  0.563000  0.315100  0.276900  1.0
  O  O352  1  0.437000  0.684900  0.723100  1.0
  O  O353  1  0.594400  0.202900  0.153200  1.0
  O  O354  1  0.405600  0.797100  0.846800  1.0
  O  O355  1  0.810000  0.146400  0.180300  1.0
  O  O356  1  0.190000  0.853600  0.819700  1.0
  O  O357  1  0.932900  0.178800  0.124300  1.0
  O  O358  1  0.067100  0.821200  0.875700  1.0
  O  O359  1  0.722900  0.593800  0.388700  1.0
  O  O360  1  0.277100  0.406200  0.611300  1.0
  O  O361  1  0.850600  0.642200  0.354100  1.0
  O  O362  1  0.149400  0.357800  0.645900  1.0
  O  O363  1  0.673800  0.043100  0.180000  1.0
  O  O364  1  0.326200  0.956900  0.820000  1.0
  O  O365  1  0.574000  0.919900  0.126500  1.0
  O  O366  1  0.426000  0.080100  0.873500  1.0
  O  O367  1  0.604500  0.717700  0.510800  1.0
  O  O368  1  0.395500  0.282300  0.489200  1.0
  O  O369  1  0.680000  0.846300  0.522900  1.0
  O  O370  1  0.320000  0.153700  0.477100  1.0
  O  O371  1  0.885400  0.848000  0.499700  1.0
  O  O372  1  0.114600  0.152000  0.500300  1.0
  O  O373  1  0.991600  0.916200  0.618100  1.0
  O  O374  1  0.008400  0.083800  0.381900  1.0
  O  O375  1  0.714600  0.553800  0.658800  1.0
  O  O376  1  0.285400  0.446200  0.341200  1.0
  O  O377  1  0.833900  0.593400  0.763300  1.0
  O  O378  1  0.166100  0.406600  0.236700  1.0
  O  O379  1  0.791900  0.825600  0.352200  1.0
  O  O380  1  0.208100  0.174400  0.647800  1.0
  O  O381  1  0.740100  0.878500  0.255100  1.0
  O  O382  1  0.259900  0.121500  0.744900  1.0
  O  O383  1  0.612200  0.429700  0.709700  1.0
  O  O384  1  0.387800  0.570300  0.290300  1.0
  O  O385  1  0.670100  0.402400  0.821900  1.0
  O  O386  1  0.329900  0.597600  0.178100  1.0
