# generated using pymatgen
data_Co4H141C174N39Cl9O37
_symmetry_space_group_name_H-M   'P 1'
_cell_length_a   24.33328631
_cell_length_b   24.33328631
_cell_length_c   24.33328631
_cell_angle_alpha   72.82936390
_cell_angle_beta   72.82936390
_cell_angle_gamma   72.82936390
_symmetry_Int_Tables_number   1
_chemical_formula_structural   Co4H141C174N39Cl9O37
_chemical_formula_sum   'Co8 H282 C348 N78 Cl18 O74'
_cell_volume   12806.04583115
_cell_formula_units_Z   2
loop_
 _symmetry_equiv_pos_site_id
 _symmetry_equiv_pos_as_xyz
  1  'x, y, z'
loop_
 _atom_site_type_symbol
 _atom_site_label
 _atom_site_symmetry_multiplicity
 _atom_site_fract_x
 _atom_site_fract_y
 _atom_site_fract_z
 _atom_site_occupancy
  C  C1  1  0.875390  0.247990  0.616090  1
  C  C2  1  0.616090  0.875390  0.247990  1
  C  C3  1  0.247990  0.616090  0.875390  1
  C  C4  1  0.124610  0.752010  0.383910  1
  C  C5  1  0.383910  0.124610  0.752010  1
  C  C6  1  0.752010  0.383910  0.124610  1
  C  C7  1  0.849260  0.198360  0.624560  1
  C  C8  1  0.624560  0.849260  0.198360  1
  C  C9  1  0.198360  0.624560  0.849260  1
  C  C10  1  0.150740  0.801640  0.375440  1
  C  C11  1  0.375440  0.150740  0.801640  1
  C  C12  1  0.801640  0.375440  0.150740  1
  C  C13  1  0.951130  0.344870  0.336760  1.0
  C  C14  1  0.336760  0.951130  0.344870  1.0
  C  C15  1  0.344870  0.336760  0.951130  1.0
  C  C16  1  0.048870  0.655130  0.663240  1.0
  C  C17  1  0.663240  0.048870  0.655130  1.0
  C  C18  1  0.655130  0.663240  0.048870  1.0
  C  C19  1  0.966840  0.283760  0.343850  1.0
  C  C20  1  0.343850  0.966840  0.283760  1.0
  C  C21  1  0.283760  0.343850  0.966840  1.0
  C  C22  1  0.033160  0.716240  0.656150  1.0
  C  C23  1  0.656150  0.033160  0.716240  1.0
  C  C24  1  0.716240  0.656150  0.033160  1.0
  C  C25  1  0.972480  0.260500  0.297840  1.0
  C  C26  1  0.297840  0.972480  0.260500  1.0
  C  C27  1  0.260500  0.297840  0.972480  1.0
  C  C28  1  0.027520  0.739500  0.702160  1.0
  C  C29  1  0.702160  0.027520  0.739500  1.0
  C  C30  1  0.739500  0.702160  0.027520  1.0
  C  C31  1  0.963660  0.297300  0.244480  1.0
  C  C32  1  0.244480  0.963660  0.297300  1.0
  C  C33  1  0.297300  0.244480  0.963660  1.0
  C  C34  1  0.036340  0.702700  0.755520  1.0
  C  C35  1  0.755520  0.036340  0.702700  1.0
  C  C36  1  0.702700  0.755520  0.036340  1.0
  C  C37  1  0.948330  0.357970  0.240240  1.0
  C  C38  1  0.240240  0.948330  0.357970  1.0
  C  C39  1  0.357970  0.240240  0.948330  1.0
  C  C40  1  0.051670  0.642030  0.759760  1.0
  C  C41  1  0.759760  0.051670  0.642030  1.0
  C  C42  1  0.642030  0.759760  0.051670  1.0
  C  C43  1  0.944550  0.372840  0.383380  1.0
  C  C44  1  0.383380  0.944550  0.372840  1.0
  C  C45  1  0.372840  0.383380  0.944550  1.0
  C  C46  1  0.055450  0.627160  0.616620  1.0
  C  C47  1  0.616620  0.055450  0.627160  1.0
  C  C48  1  0.627160  0.616620  0.055450  1.0
  C  C49  1  0.955430  0.348810  0.440120  1.0
  C  C50  1  0.440120  0.955430  0.348810  1.0
  C  C51  1  0.348810  0.440120  0.955430  1.0
  C  C52  1  0.044570  0.651190  0.559880  1.0
  C  C53  1  0.559880  0.044570  0.651190  1.0
  C  C54  1  0.651190  0.559880  0.044570  1.0
  C  C55  1  0.943230  0.395570  0.464480  1.0
  C  C56  1  0.464480  0.943230  0.395570  1.0
  C  C57  1  0.395570  0.464480  0.943230  1.0
  C  C58  1  0.056770  0.604430  0.535520  1.0
  C  C59  1  0.535520  0.056770  0.604430  1.0
  C  C60  1  0.604430  0.535520  0.056770  1.0
  C  C61  1  0.906330  0.505130  0.432800  1.0
  C  C62  1  0.432800  0.906330  0.505130  1.0
  C  C63  1  0.505130  0.432800  0.906330  1.0
  C  C64  1  0.093670  0.494870  0.567200  1.0
  C  C65  1  0.567200  0.093670  0.494870  1.0
  C  C66  1  0.494870  0.567200  0.093670  1.0
  C  C67  1  0.615970  0.803350  0.648590  1.0
  C  C68  1  0.648590  0.615970  0.803350  1.0
  C  C69  1  0.803350  0.648590  0.615970  1.0
  C  C70  1  0.384030  0.196650  0.351410  1.0
  C  C71  1  0.351410  0.384030  0.196650  1.0
  C  C72  1  0.196650  0.351410  0.384030  1.0
  C  C73  1  0.593340  0.860970  0.653410  1.0
  C  C74  1  0.653410  0.593340  0.860970  1.0
  C  C75  1  0.860970  0.653410  0.593340  1.0
  C  C76  1  0.406660  0.139030  0.346590  1.0
  C  C77  1  0.346590  0.406660  0.139030  1.0
  C  C78  1  0.139030  0.346590  0.406660  1.0
  C  C79  1  0.589150  0.875250  0.705750  1.0
  C  C80  1  0.705750  0.589150  0.875250  1.0
  C  C81  1  0.875250  0.705750  0.589150  1.0
  C  C82  1  0.410850  0.124750  0.294250  1.0
  C  C83  1  0.294250  0.410850  0.124750  1.0
  C  C84  1  0.124750  0.294250  0.410850  1.0
  C  C85  1  0.607880  0.832180  0.750280  1.0
  C  C86  1  0.750280  0.607880  0.832180  1.0
  C  C87  1  0.832180  0.750280  0.607880  1.0
  C  C88  1  0.392120  0.167820  0.249720  1.0
  C  C89  1  0.249720  0.392120  0.167820  1.0
  C  C90  1  0.167820  0.249720  0.392120  1.0
  C  C91  1  0.629860  0.774430  0.744020  1.0
  C  C92  1  0.744020  0.629860  0.774430  1.0
  C  C93  1  0.774430  0.744020  0.629860  1.0
  C  C94  1  0.370140  0.225570  0.255980  1.0
  C  C95  1  0.255980  0.370140  0.225570  1.0
  C  C96  1  0.225570  0.255980  0.370140  1.0
  C  C97  1  0.621300  0.784190  0.595850  1.0
  C  C98  1  0.595850  0.621300  0.784190  1.0
  C  C99  1  0.784190  0.595850  0.621300  1.0
  C  C100  1  0.378700  0.215810  0.404150  1.0
  C  C101  1  0.404150  0.378700  0.215810  1.0
  C  C102  1  0.215810  0.404150  0.378700  1.0
  C  C103  1  0.606360  0.816070  0.542310  1.0
  C  C104  1  0.542310  0.606360  0.816070  1.0
  C  C105  1  0.816070  0.542310  0.606360  1.0
  C  C106  1  0.393640  0.183930  0.457690  1.0
  C  C107  1  0.457690  0.393640  0.183930  1.0
  C  C108  1  0.183930  0.457690  0.393640  1.0
  C  C109  1  0.619000  0.775870  0.509690  1.0
  C  C110  1  0.509690  0.619000  0.775870  1.0
  C  C111  1  0.775870  0.509690  0.619000  1.0
  C  C112  1  0.381000  0.224130  0.490310  1.0
  C  C113  1  0.490310  0.381000  0.224130  1.0
  C  C114  1  0.224130  0.490310  0.381000  1.0
  C  C115  1  0.660640  0.667200  0.524220  1.0
  C  C116  1  0.524220  0.660640  0.667200  1.0
  C  C117  1  0.667200  0.524220  0.660640  1.0
  C  C118  1  0.339360  0.332800  0.475780  1.0
  C  C119  1  0.475780  0.339360  0.332800  1.0
  C  C120  1  0.332800  0.475780  0.339360  1.0
  C  C121  1  0.840940  0.522170  0.455200  1.0
  C  C122  1  0.455200  0.840940  0.522170  1.0
  C  C123  1  0.522170  0.455200  0.840940  1.0
  C  C124  1  0.159060  0.477830  0.544800  1.0
  C  C125  1  0.544800  0.159060  0.477830  1.0
  C  C126  1  0.477830  0.544800  0.159060  1.0
  C  C127  1  0.806450  0.481690  0.470770  1.0
  C  C128  1  0.470770  0.806450  0.481690  1.0
  C  C129  1  0.481690  0.470770  0.806450  1.0
  C  C130  1  0.193550  0.518310  0.529230  1.0
  C  C131  1  0.529230  0.193550  0.518310  1.0
  C  C132  1  0.518310  0.529230  0.193550  1.0
  C  C133  1  0.745380  0.497970  0.490540  1.0
  C  C134  1  0.490540  0.745380  0.497970  1.0
  C  C135  1  0.497970  0.490540  0.745380  1.0
  C  C136  1  0.254620  0.502030  0.509460  1.0
  C  C137  1  0.509460  0.254620  0.502030  1.0
  C  C138  1  0.502030  0.509460  0.254620  1.0
  C  C139  1  0.718980  0.553120  0.498360  1.0
  C  C140  1  0.498360  0.718980  0.553120  1.0
  C  C141  1  0.553120  0.498360  0.718980  1.0
  C  C142  1  0.281020  0.446880  0.501640  1.0
  C  C143  1  0.501640  0.281020  0.446880  1.0
  C  C144  1  0.446880  0.501640  0.281020  1.0
  C  C145  1  0.752400  0.596470  0.485550  1.0
  C  C146  1  0.485550  0.752400  0.596470  1.0
  C  C147  1  0.596470  0.485550  0.752400  1.0
  C  C148  1  0.247600  0.403530  0.514450  1.0
  C  C149  1  0.514450  0.247600  0.403530  1.0
  C  C150  1  0.403530  0.514450  0.247600  1.0
  C  C151  1  0.814110  0.580950  0.462910  1.0
  C  C152  1  0.462910  0.814110  0.580950  1.0
  C  C153  1  0.580950  0.462910  0.814110  1.0
  C  C154  1  0.185890  0.419050  0.537090  1.0
  C  C155  1  0.537090  0.185890  0.419050  1.0
  C  C156  1  0.419050  0.537090  0.185890  1.0
  C  C157  1  0.847160  0.624110  0.450450  1.0
  C  C158  1  0.450450  0.847160  0.624110  1.0
  C  C159  1  0.624110  0.450450  0.847160  1.0
  C  C160  1  0.152840  0.375890  0.549550  1.0
  C  C161  1  0.549550  0.152840  0.375890  1.0
  C  C162  1  0.375890  0.549550  0.152840  1.0
  C  C163  1  0.820810  0.678630  0.460470  1.0
  C  C164  1  0.460470  0.820810  0.678630  1.0
  C  C165  1  0.678630  0.460470  0.820810  1.0
  C  C166  1  0.179190  0.321370  0.539530  1.0
  C  C167  1  0.539530  0.179190  0.321370  1.0
  C  C168  1  0.321370  0.539530  0.179190  1.0
  C  C169  1  0.759970  0.693770  0.484480  1.0
  C  C170  1  0.484480  0.759970  0.693770  1.0
  C  C171  1  0.693770  0.484480  0.759970  1.0
  C  C172  1  0.240030  0.306230  0.515520  1.0
  C  C173  1  0.515520  0.240030  0.306230  1.0
  C  C174  1  0.306230  0.515520  0.240030  1.0
  C  C175  1  0.725950  0.652920  0.497340  1.0
  C  C176  1  0.497340  0.725950  0.652920  1.0
  C  C177  1  0.652920  0.497340  0.725950  1.0
  C  C178  1  0.274050  0.347080  0.502660  1.0
  C  C179  1  0.502660  0.274050  0.347080  1.0
  C  C180  1  0.347080  0.502660  0.274050  1.0
  C  C181  1  0.829370  0.584070  0.305390  1.0
  C  C182  1  0.305390  0.829370  0.584070  1.0
  C  C183  1  0.584070  0.305390  0.829370  1.0
  C  C184  1  0.170630  0.415930  0.694610  1.0
  C  C185  1  0.694610  0.170630  0.415930  1.0
  C  C186  1  0.415930  0.694610  0.170630  1.0
  C  C187  1  0.803080  0.641580  0.311340  1.0
  C  C188  1  0.311340  0.803080  0.641580  1.0
  C  C189  1  0.641580  0.311340  0.803080  1.0
  C  C190  1  0.196920  0.358420  0.688660  1.0
  C  C191  1  0.688660  0.196920  0.358420  1.0
  C  C192  1  0.358420  0.688660  0.196920  1.0
  C  C193  1  0.839000  0.680200  0.301000  1.0
  C  C194  1  0.301000  0.839000  0.680200  1.0
  C  C195  1  0.680200  0.301000  0.839000  1.0
  C  C196  1  0.161000  0.319800  0.699000  1.0
  C  C197  1  0.699000  0.161000  0.319800  1.0
  C  C198  1  0.319800  0.699000  0.161000  1.0
  C  C199  1  0.899430  0.660630  0.285130  1.0
  C  C200  1  0.285130  0.899430  0.660630  1.0
  C  C201  1  0.660630  0.285130  0.899430  1.0
  C  C202  1  0.100570  0.339370  0.714870  1.0
  C  C203  1  0.714870  0.100570  0.339370  1.0
  C  C204  1  0.339370  0.714870  0.100570  1.0
  C  C205  1  0.921850  0.602580  0.281130  1.0
  C  C206  1  0.281130  0.921850  0.602580  1.0
  C  C207  1  0.602580  0.281130  0.921850  1.0
  C  C208  1  0.078150  0.397420  0.718870  1.0
  C  C209  1  0.718870  0.078150  0.397420  1.0
  C  C210  1  0.397420  0.718870  0.078150  1.0
  C  C211  1  0.795390  0.541130  0.313430  1.0
  C  C212  1  0.313430  0.795390  0.541130  1.0
  C  C213  1  0.541130  0.313430  0.795390  1.0
  C  C214  1  0.204610  0.458870  0.686570  1.0
  C  C215  1  0.686570  0.204610  0.458870  1.0
  C  C216  1  0.458870  0.686570  0.204610  1.0
  C  C217  1  0.734540  0.547310  0.326880  1.0
  C  C218  1  0.326880  0.734540  0.547310  1.0
  C  C219  1  0.547310  0.326880  0.734540  1.0
  C  C220  1  0.265460  0.452690  0.673120  1.0
  C  C221  1  0.673120  0.265460  0.452690  1.0
  C  C222  1  0.452690  0.673120  0.265460  1.0
  C  C223  1  0.726550  0.494310  0.325020  1.0
  C  C224  1  0.325020  0.726550  0.494310  1.0
  C  C225  1  0.494310  0.325020  0.726550  1.0
  C  C226  1  0.273450  0.505690  0.674980  1.0
  C  C227  1  0.674980  0.273450  0.505690  1.0
  C  C228  1  0.505690  0.674980  0.273450  1.0
  C  C229  1  0.793360  0.397630  0.308270  1.0
  C  C230  1  0.308270  0.793360  0.397630  1.0
  C  C231  1  0.397630  0.308270  0.793360  1.0
  C  C232  1  0.206640  0.602370  0.691730  1.0
  C  C233  1  0.691730  0.206640  0.602370  1.0
  C  C234  1  0.602370  0.691730  0.206640  1.0
  C  C235  1  0.798620  0.967650  0.503520  1.0
  C  C236  1  0.503520  0.798620  0.967650  1.0
  C  C237  1  0.967650  0.503520  0.798620  1.0
  C  C238  1  0.201380  0.032350  0.496480  1.0
  C  C239  1  0.496480  0.201380  0.032350  1.0
  C  C240  1  0.032350  0.496480  0.201380  1.0
  C  C241  1  0.820760  0.911030  0.494350  1.0
  C  C242  1  0.494350  0.820760  0.911030  1.0
  C  C243  1  0.911030  0.494350  0.820760  1.0
  C  C244  1  0.179240  0.088970  0.505650  1.0
  C  C245  1  0.505650  0.179240  0.088970  1.0
  C  C246  1  0.088970  0.505650  0.179240  1.0
  C  C247  1  0.782870  0.876540  0.501120  1.0
  C  C248  1  0.501120  0.782870  0.876540  1.0
  C  C249  1  0.876540  0.501120  0.782870  1.0
  C  C250  1  0.217130  0.123460  0.498880  1.0
  C  C251  1  0.498880  0.217130  0.123460  1.0
  C  C252  1  0.123460  0.498880  0.217130  1.0
  C  C253  1  0.723360  0.898900  0.518470  1.0
  C  C254  1  0.518470  0.723360  0.898900  1.0
  C  C255  1  0.898900  0.518470  0.723360  1.0
  C  C256  1  0.276640  0.101100  0.481530  1.0
  C  C257  1  0.481530  0.276640  0.101100  1.0
  C  C258  1  0.101100  0.481530  0.276640  1.0
  C  C259  1  0.704090  0.955080  0.527910  1.0
  C  C260  1  0.527910  0.704090  0.955080  1.0
  C  C261  1  0.955080  0.527910  0.704090  1.0
  C  C262  1  0.295910  0.044920  0.472090  1.0
  C  C263  1  0.472090  0.295910  0.044920  1.0
  C  C264  1  0.044920  0.472090  0.295910  1.0
  C  C265  1  0.835940  0.008090  0.495030  1.0
  C  C266  1  0.495030  0.835940  0.008090  1.0
  C  C267  1  0.008090  0.495030  0.835940  1.0
  C  C268  1  0.164060  0.991910  0.504970  1.0
  C  C269  1  0.504970  0.164060  0.991910  1.0
  C  C270  1  0.991910  0.504970  0.164060  1.0
  C  C271  1  0.897460  0.998660  0.481760  1.0
  C  C272  1  0.481760  0.897460  0.998660  1.0
  C  C273  1  0.998660  0.481760  0.897460  1.0
  C  C274  1  0.102540  0.001340  0.518240  1.0
  C  C275  1  0.518240  0.102540  0.001340  1.0
  C  C276  1  0.001340  0.518240  0.102540  1.0
  C  C277  1  0.907110  0.052170  0.479440  1.0
  C  C278  1  0.479440  0.907110  0.052170  1.0
  C  C279  1  0.052170  0.479440  0.907110  1.0
  C  C280  1  0.092890  0.947830  0.520560  1.0
  C  C281  1  0.520560  0.092890  0.947830  1.0
  C  C282  1  0.947830  0.520560  0.092890  1.0
  C  C283  1  0.844030  0.151530  0.489690  1.0
  C  C284  1  0.489690  0.844030  0.151530  1.0
  C  C285  1  0.151530  0.489690  0.844030  1.0
  C  C286  1  0.155970  0.848470  0.510310  1.0
  C  C287  1  0.510310  0.155970  0.848470  1.0
  C  C288  1  0.848470  0.510310  0.155970  1.0
  C  C289  1  0.800390  0.354840  0.366410  1.0
  C  C290  1  0.366410  0.800390  0.354840  1.0
  C  C291  1  0.354840  0.366410  0.800390  1.0
  C  C292  1  0.199610  0.645160  0.633590  1.0
  C  C293  1  0.633590  0.199610  0.645160  1.0
  C  C294  1  0.645160  0.633590  0.199610  1.0
  C  C295  1  0.791740  0.375270  0.415470  1.0
  C  C296  1  0.415470  0.791740  0.375270  1.0
  C  C297  1  0.375270  0.415470  0.791740  1.0
  C  C298  1  0.208260  0.624730  0.584530  1.0
  C  C299  1  0.584530  0.208260  0.624730  1.0
  C  C300  1  0.624730  0.584530  0.208260  1.0
  C  C301  1  0.799840  0.336280  0.469490  1.0
  C  C302  1  0.469490  0.799840  0.336280  1.0
  C  C303  1  0.336280  0.469490  0.799840  1.0
  C  C304  1  0.200160  0.663720  0.530510  1.0
  C  C305  1  0.530510  0.200160  0.663720  1.0
  C  C306  1  0.663720  0.530510  0.200160  1.0
  C  C307  1  0.816350  0.277670  0.474450  1.0
  C  C308  1  0.474450  0.816350  0.277670  1.0
  C  C309  1  0.277670  0.474450  0.816350  1.0
  C  C310  1  0.183650  0.722330  0.525550  1.0
  C  C311  1  0.525550  0.183650  0.722330  1.0
  C  C312  1  0.722330  0.525550  0.183650  1.0
  C  C313  1  0.823470  0.253720  0.425280  1.0
  C  C314  1  0.425280  0.823470  0.253720  1.0
  C  C315  1  0.253720  0.425280  0.823470  1.0
  C  C316  1  0.176530  0.746280  0.574720  1.0
  C  C317  1  0.574720  0.176530  0.746280  1.0
  C  C318  1  0.746280  0.574720  0.176530  1.0
  C  C319  1  0.815410  0.292810  0.370790  1.0
  C  C320  1  0.370790  0.815410  0.292810  1.0
  C  C321  1  0.292810  0.370790  0.815410  1.0
  C  C322  1  0.184590  0.707190  0.629210  1.0
  C  C323  1  0.629210  0.184590  0.707190  1.0
  C  C324  1  0.707190  0.629210  0.184590  1.0
  C  C325  1  0.822640  0.268680  0.321270  1.0
  C  C326  1  0.321270  0.822640  0.268680  1.0
  C  C327  1  0.268680  0.321270  0.822640  1.0
  C  C328  1  0.177360  0.731320  0.678730  1.0
  C  C329  1  0.678730  0.177360  0.731320  1.0
  C  C330  1  0.731320  0.678730  0.177360  1.0
  C  C331  1  0.835830  0.209080  0.327840  1.0
  C  C332  1  0.327840  0.835830  0.209080  1.0
  C  C333  1  0.209080  0.327840  0.835830  1.0
  C  C334  1  0.164170  0.790920  0.672160  1.0
  C  C335  1  0.672160  0.164170  0.790920  1.0
  C  C336  1  0.790920  0.672160  0.164170  1.0
  C  C337  1  0.843870  0.170470  0.381750  1.0
  C  C338  1  0.381750  0.843870  0.170470  1.0
  C  C339  1  0.170470  0.381750  0.843870  1.0
  C  C340  1  0.156130  0.829530  0.618250  1.0
  C  C341  1  0.618250  0.156130  0.829530  1.0
  C  C342  1  0.829530  0.618250  0.156130  1.0
  C  C343  1  0.837030  0.191950  0.430380  1.0
  C  C344  1  0.430380  0.837030  0.191950  1.0
  C  C345  1  0.191950  0.430380  0.837030  1.0
  C  C346  1  0.162970  0.808050  0.569620  1.0
  C  C347  1  0.569620  0.162970  0.808050  1.0
  C  C348  1  0.808050  0.569620  0.162970  1.0
  Cl  Cl349  1  0.008100  0.164530  0.487880  1
  Cl  Cl350  1  0.487880  0.008100  0.164530  1
  Cl  Cl351  1  0.164530  0.487880  0.008100  1
  Cl  Cl352  1  0.991900  0.835470  0.512120  1
  Cl  Cl353  1  0.512120  0.991900  0.835470  1
  Cl  Cl354  1  0.835470  0.512120  0.991900  1
  Cl  Cl355  1  0.033270  0.567050  0.404050  1
  Cl  Cl356  1  0.404050  0.033270  0.567050  1
  Cl  Cl357  1  0.567050  0.404050  0.033270  1
  Cl  Cl358  1  0.966730  0.432950  0.595950  1
  Cl  Cl359  1  0.595950  0.966730  0.432950  1
  Cl  Cl360  1  0.432950  0.595950  0.966730  1
  Cl  Cl361  1  0.629430  0.712910  0.358340  1
  Cl  Cl362  1  0.358340  0.629430  0.712910  1
  Cl  Cl363  1  0.712910  0.358340  0.629430  1
  Cl  Cl364  1  0.370570  0.287090  0.641660  1
  Cl  Cl365  1  0.641660  0.370570  0.287090  1
  Cl  Cl366  1  0.287090  0.641660  0.370570  1
  Co  Co367  1  0.673543  0.673543  0.673543  1.0
  Co  Co368  1  0.326457  0.326457  0.326457  1.0
  Co  Co369  1  0.918522  0.473832  0.284932  1.0
  Co  Co370  1  0.284932  0.918522  0.473832  1.0
  Co  Co371  1  0.473832  0.284932  0.918522  1.0
  Co  Co372  1  0.081478  0.526168  0.715068  1.0
  Co  Co373  1  0.715068  0.081478  0.526168  1.0
  Co  Co374  1  0.526168  0.715068  0.081478  1.0
  H  H375  1  0.899700  0.238300  0.643800  1
  H  H376  1  0.643800  0.899700  0.238300  1
  H  H377  1  0.238300  0.643800  0.899700  1
  H  H378  1  0.100300  0.761700  0.356200  1
  H  H379  1  0.356200  0.100300  0.761700  1
  H  H380  1  0.761700  0.356200  0.100300  1
  H  H381  1  0.844500  0.282300  0.622300  1
  H  H382  1  0.622300  0.844500  0.282300  1
  H  H383  1  0.282300  0.622300  0.844500  1
  H  H384  1  0.155500  0.717700  0.377700  1
  H  H385  1  0.377700  0.155500  0.717700  1
  H  H386  1  0.717700  0.377700  0.155500  1
  H  H387  1  0.899000  0.255800  0.576600  1
  H  H388  1  0.576600  0.899000  0.255800  1
  H  H389  1  0.255800  0.576600  0.899000  1
  H  H390  1  0.101000  0.744200  0.423400  1
  H  H391  1  0.423400  0.101000  0.744200  1
  H  H392  1  0.744200  0.423400  0.101000  1
  H  H393  1  0.973300  0.259200  0.379800  1.0
  H  H394  1  0.379800  0.973300  0.259200  1.0
  H  H395  1  0.259200  0.379800  0.973300  1.0
  H  H396  1  0.026700  0.740800  0.620200  1.0
  H  H397  1  0.620200  0.026700  0.740800  1.0
  H  H398  1  0.740800  0.620200  0.026700  1.0
  H  H399  1  0.982300  0.219800  0.302200  1.0
  H  H400  1  0.302200  0.982300  0.219800  1.0
  H  H401  1  0.219800  0.302200  0.982300  1.0
  H  H402  1  0.017700  0.780200  0.697800  1.0
  H  H403  1  0.697800  0.017700  0.780200  1.0
  H  H404  1  0.780200  0.697800  0.017700  1.0
  H  H405  1  0.967900  0.282100  0.212300  1.0
  H  H406  1  0.212300  0.967900  0.282100  1.0
  H  H407  1  0.282100  0.212300  0.967900  1.0
  H  H408  1  0.032100  0.717900  0.787700  1.0
  H  H409  1  0.787700  0.032100  0.717900  1.0
  H  H410  1  0.717900  0.787700  0.032100  1.0
  H  H411  1  0.942200  0.383200  0.204400  1.0
  H  H412  1  0.204400  0.942200  0.383200  1.0
  H  H413  1  0.383200  0.204400  0.942200  1.0
  H  H414  1  0.057800  0.616800  0.795600  1.0
  H  H415  1  0.795600  0.057800  0.616800  1.0
  H  H416  1  0.616800  0.795600  0.057800  1.0
  H  H417  1  0.968300  0.309100  0.457300  1.0
  H  H418  1  0.457300  0.968300  0.309100  1.0
  H  H419  1  0.309100  0.457300  0.968300  1.0
  H  H420  1  0.031700  0.690900  0.542700  1.0
  H  H421  1  0.542700  0.031700  0.690900  1.0
  H  H422  1  0.690900  0.542700  0.031700  1.0
  H  H423  1  0.945500  0.393900  0.502400  1.0
  H  H424  1  0.502400  0.945500  0.393900  1.0
  H  H425  1  0.393900  0.502400  0.945500  1.0
  H  H426  1  0.054500  0.606100  0.497600  1.0
  H  H427  1  0.497600  0.054500  0.606100  1.0
  H  H428  1  0.606100  0.497600  0.054500  1.0
  H  H429  1  0.917700  0.532500  0.395800  1.0
  H  H430  1  0.395800  0.917700  0.532500  1.0
  H  H431  1  0.532500  0.395800  0.917700  1.0
  H  H432  1  0.082300  0.467500  0.604200  1.0
  H  H433  1  0.604200  0.082300  0.467500  1.0
  H  H434  1  0.467500  0.604200  0.082300  1.0
  H  H435  1  0.925700  0.508600  0.460900  1.0
  H  H436  1  0.460900  0.925700  0.508600  1.0
  H  H437  1  0.508600  0.460900  0.925700  1.0
  H  H438  1  0.074300  0.491400  0.539100  1.0
  H  H439  1  0.539100  0.074300  0.491400  1.0
  H  H440  1  0.491400  0.539100  0.074300  1.0
  H  H441  1  0.581000  0.890000  0.621900  1.0
  H  H442  1  0.621900  0.581000  0.890000  1.0
  H  H443  1  0.890000  0.621900  0.581000  1.0
  H  H444  1  0.419000  0.110000  0.378100  1.0
  H  H445  1  0.378100  0.419000  0.110000  1.0
  H  H446  1  0.110000  0.378100  0.419000  1.0
  H  H447  1  0.573600  0.913900  0.710100  1.0
  H  H448  1  0.710100  0.573600  0.913900  1.0
  H  H449  1  0.913900  0.710100  0.573600  1.0
  H  H450  1  0.426400  0.086100  0.289900  1.0
  H  H451  1  0.289900  0.426400  0.086100  1.0
  H  H452  1  0.086100  0.289900  0.426400  1.0
  H  H453  1  0.606100  0.841200  0.785400  1.0
  H  H454  1  0.785400  0.606100  0.841200  1.0
  H  H455  1  0.841200  0.785400  0.606100  1.0
  H  H456  1  0.393900  0.158800  0.214600  1.0
  H  H457  1  0.214600  0.393900  0.158800  1.0
  H  H458  1  0.158800  0.214600  0.393900  1.0
  H  H459  1  0.641200  0.745000  0.775700  1.0
  H  H460  1  0.775700  0.641200  0.745000  1.0
  H  H461  1  0.745000  0.775700  0.641200  1.0
  H  H462  1  0.358800  0.255000  0.224300  1.0
  H  H463  1  0.224300  0.358800  0.255000  1.0
  H  H464  1  0.255000  0.224300  0.358800  1.0
  H  H465  1  0.591000  0.856500  0.531400  1.0
  H  H466  1  0.531400  0.591000  0.856500  1.0
  H  H467  1  0.856500  0.531400  0.591000  1.0
  H  H468  1  0.409000  0.143500  0.468600  1.0
  H  H469  1  0.468600  0.409000  0.143500  1.0
  H  H470  1  0.143500  0.468600  0.409000  1.0
  H  H471  1  0.614200  0.783500  0.471400  1.0
  H  H472  1  0.471400  0.614200  0.783500  1.0
  H  H473  1  0.783500  0.471400  0.614200  1.0
  H  H474  1  0.385800  0.216500  0.528600  1.0
  H  H475  1  0.528600  0.385800  0.216500  1.0
  H  H476  1  0.216500  0.528600  0.385800  1.0
  H  H477  1  0.639400  0.668700  0.495600  1.0
  H  H478  1  0.495600  0.639400  0.668700  1.0
  H  H479  1  0.668700  0.495600  0.639400  1.0
  H  H480  1  0.360600  0.331300  0.504400  1.0
  H  H481  1  0.504400  0.360600  0.331300  1.0
  H  H482  1  0.331300  0.504400  0.360600  1.0
  H  H483  1  0.651500  0.635700  0.558200  1.0
  H  H484  1  0.558200  0.651500  0.635700  1.0
  H  H485  1  0.635700  0.558200  0.651500  1.0
  H  H486  1  0.348500  0.364300  0.441800  1.0
  H  H487  1  0.441800  0.348500  0.364300  1.0
  H  H488  1  0.364300  0.441800  0.348500  1.0
  H  H489  1  0.824200  0.442800  0.468000  1.0
  H  H490  1  0.468000  0.824200  0.442800  1.0
  H  H491  1  0.442800  0.468000  0.824200  1.0
  H  H492  1  0.175800  0.557200  0.532000  1.0
  H  H493  1  0.532000  0.175800  0.557200  1.0
  H  H494  1  0.557200  0.532000  0.175800  1.0
  H  H495  1  0.722700  0.470700  0.498400  1.0
  H  H496  1  0.498400  0.722700  0.470700  1.0
  H  H497  1  0.470700  0.498400  0.722700  1.0
  H  H498  1  0.277300  0.529300  0.501600  1.0
  H  H499  1  0.501600  0.277300  0.529300  1.0
  H  H500  1  0.529300  0.501600  0.277300  1.0
  H  H501  1  0.678200  0.563100  0.512300  1.0
  H  H502  1  0.512300  0.678200  0.563100  1.0
  H  H503  1  0.563100  0.512300  0.678200  1.0
  H  H504  1  0.321800  0.436900  0.487700  1.0
  H  H505  1  0.487700  0.321800  0.436900  1.0
  H  H506  1  0.436900  0.487700  0.321800  1.0
  H  H507  1  0.887700  0.614700  0.435100  1.0
  H  H508  1  0.435100  0.887700  0.614700  1.0
  H  H509  1  0.614700  0.435100  0.887700  1.0
  H  H510  1  0.112300  0.385300  0.564900  1.0
  H  H511  1  0.564900  0.112300  0.385300  1.0
  H  H512  1  0.385300  0.564900  0.112300  1.0
  H  H513  1  0.843300  0.706500  0.451300  1.0
  H  H514  1  0.451300  0.843300  0.706500  1.0
  H  H515  1  0.706500  0.451300  0.843300  1.0
  H  H516  1  0.156700  0.293500  0.548700  1.0
  H  H517  1  0.548700  0.156700  0.293500  1.0
  H  H518  1  0.293500  0.548700  0.156700  1.0
  H  H519  1  0.742400  0.731200  0.491800  1.0
  H  H520  1  0.491800  0.742400  0.731200  1.0
  H  H521  1  0.731200  0.491800  0.742400  1.0
  H  H522  1  0.257600  0.268800  0.508200  1.0
  H  H523  1  0.508200  0.257600  0.268800  1.0
  H  H524  1  0.268800  0.508200  0.257600  1.0
  H  H525  1  0.762200  0.654000  0.322100  1.0
  H  H526  1  0.322100  0.762200  0.654000  1.0
  H  H527  1  0.654000  0.322100  0.762200  1.0
  H  H528  1  0.237800  0.346000  0.677900  1.0
  H  H529  1  0.677900  0.237800  0.346000  1.0
  H  H530  1  0.346000  0.677900  0.237800  1.0
  H  H531  1  0.822400  0.718900  0.304700  1.0
  H  H532  1  0.304700  0.822400  0.718900  1.0
  H  H533  1  0.718900  0.304700  0.822400  1.0
  H  H534  1  0.177600  0.281100  0.695300  1.0
  H  H535  1  0.695300  0.177600  0.281100  1.0
  H  H536  1  0.281100  0.695300  0.177600  1.0
  H  H537  1  0.924400  0.685800  0.277500  1.0
  H  H538  1  0.277500  0.924400  0.685800  1.0
  H  H539  1  0.685800  0.277500  0.924400  1.0
  H  H540  1  0.075600  0.314200  0.722500  1.0
  H  H541  1  0.722500  0.075600  0.314200  1.0
  H  H542  1  0.314200  0.722500  0.075600  1.0
  H  H543  1  0.962600  0.589200  0.270800  1.0
  H  H544  1  0.270800  0.962600  0.589200  1.0
  H  H545  1  0.589200  0.270800  0.962600  1.0
  H  H546  1  0.037400  0.410800  0.729200  1.0
  H  H547  1  0.729200  0.037400  0.410800  1.0
  H  H548  1  0.410800  0.729200  0.037400  1.0
  H  H549  1  0.705400  0.580300  0.335300  1.0
  H  H550  1  0.335300  0.705400  0.580300  1.0
  H  H551  1  0.580300  0.335300  0.705400  1.0
  H  H552  1  0.294600  0.419700  0.664700  1.0
  H  H553  1  0.664700  0.294600  0.419700  1.0
  H  H554  1  0.419700  0.664700  0.294600  1.0
  H  H555  1  0.690500  0.484600  0.332200  1.0
  H  H556  1  0.332200  0.690500  0.484600  1.0
  H  H557  1  0.484600  0.332200  0.690500  1.0
  H  H558  1  0.309500  0.515400  0.667800  1.0
  H  H559  1  0.667800  0.309500  0.515400  1.0
  H  H560  1  0.515400  0.667800  0.309500  1.0
  H  H561  1  0.829500  0.389300  0.278600  1.0
  H  H562  1  0.278600  0.829500  0.389300  1.0
  H  H563  1  0.389300  0.278600  0.829500  1.0
  H  H564  1  0.170500  0.610700  0.721400  1.0
  H  H565  1  0.721400  0.170500  0.610700  1.0
  H  H566  1  0.610700  0.721400  0.170500  1.0
  H  H567  1  0.761600  0.391400  0.296100  1.0
  H  H568  1  0.296100  0.761600  0.391400  1.0
  H  H569  1  0.391400  0.296100  0.761600  1.0
  H  H570  1  0.238400  0.608600  0.703900  1.0
  H  H571  1  0.703900  0.238400  0.608600  1.0
  H  H572  1  0.608600  0.703900  0.238400  1.0
  H  H573  1  0.861400  0.896500  0.483600  1.0
  H  H574  1  0.483600  0.861400  0.896500  1.0
  H  H575  1  0.896500  0.483600  0.861400  1.0
  H  H576  1  0.138600  0.103500  0.516400  1.0
  H  H577  1  0.516400  0.138600  0.103500  1.0
  H  H578  1  0.103500  0.516400  0.138600  1.0
  H  H579  1  0.797100  0.838700  0.494100  1.0
  H  H580  1  0.494100  0.797100  0.838700  1.0
  H  H581  1  0.838700  0.494100  0.797100  1.0
  H  H582  1  0.202900  0.161300  0.505900  1.0
  H  H583  1  0.505900  0.202900  0.161300  1.0
  H  H584  1  0.161300  0.505900  0.202900  1.0
  H  H585  1  0.696500  0.876300  0.523800  1.0
  H  H586  1  0.523800  0.696500  0.876300  1.0
  H  H587  1  0.876300  0.523800  0.696500  1.0
  H  H588  1  0.303500  0.123700  0.476200  1.0
  H  H589  1  0.476200  0.303500  0.123700  1.0
  H  H590  1  0.123700  0.476200  0.303500  1.0
  H  H591  1  0.663600  0.969900  0.539600  1.0
  H  H592  1  0.539600  0.663600  0.969900  1.0
  H  H593  1  0.969900  0.539600  0.663600  1.0
  H  H594  1  0.336400  0.030100  0.460400  1.0
  H  H595  1  0.460400  0.336400  0.030100  1.0
  H  H596  1  0.030100  0.460400  0.336400  1.0
  H  H597  1  0.925400  0.964200  0.475800  1.0
  H  H598  1  0.475800  0.925400  0.964200  1.0
  H  H599  1  0.964200  0.475800  0.925400  1.0
  H  H600  1  0.074600  0.035800  0.524200  1.0
  H  H601  1  0.524200  0.074600  0.035800  1.0
  H  H602  1  0.035800  0.524200  0.074600  1.0
  H  H603  1  0.943800  0.060900  0.470800  1.0
  H  H604  1  0.470800  0.943800  0.060900  1.0
  H  H605  1  0.060900  0.470800  0.943800  1.0
  H  H606  1  0.056200  0.939100  0.529200  1.0
  H  H607  1  0.529200  0.056200  0.939100  1.0
  H  H608  1  0.939100  0.529200  0.056200  1.0
  H  H609  1  0.876500  0.158200  0.500200  1.0
  H  H610  1  0.500200  0.876500  0.158200  1.0
  H  H611  1  0.158200  0.500200  0.876500  1.0
  H  H612  1  0.123500  0.841800  0.499800  1.0
  H  H613  1  0.499800  0.123500  0.841800  1.0
  H  H614  1  0.841800  0.499800  0.123500  1.0
  H  H615  1  0.808500  0.162200  0.519200  1.0
  H  H616  1  0.519200  0.808500  0.162200  1.0
  H  H617  1  0.162200  0.519200  0.808500  1.0
  H  H618  1  0.191500  0.837800  0.480800  1.0
  H  H619  1  0.480800  0.191500  0.837800  1.0
  H  H620  1  0.837800  0.480800  0.191500  1.0
  H  H621  1  0.780300  0.415800  0.413200  1.0
  H  H622  1  0.413200  0.780300  0.415800  1.0
  H  H623  1  0.415800  0.413200  0.780300  1.0
  H  H624  1  0.219700  0.584200  0.586800  1.0
  H  H625  1  0.586800  0.219700  0.584200  1.0
  H  H626  1  0.584200  0.586800  0.219700  1.0
  H  H627  1  0.793700  0.351400  0.502300  1.0
  H  H628  1  0.502300  0.793700  0.351400  1.0
  H  H629  1  0.351400  0.502300  0.793700  1.0
  H  H630  1  0.206300  0.648600  0.497700  1.0
  H  H631  1  0.497700  0.206300  0.648600  1.0
  H  H632  1  0.648600  0.497700  0.206300  1.0
  H  H633  1  0.823200  0.252600  0.510100  1.0
  H  H634  1  0.510100  0.823200  0.252600  1.0
  H  H635  1  0.252600  0.510100  0.823200  1.0
  H  H636  1  0.176800  0.747400  0.489900  1.0
  H  H637  1  0.489900  0.176800  0.747400  1.0
  H  H638  1  0.747400  0.489900  0.176800  1.0
  H  H639  1  0.818400  0.293600  0.284900  1.0
  H  H640  1  0.284900  0.818400  0.293600  1.0
  H  H641  1  0.293600  0.284900  0.818400  1.0
  H  H642  1  0.181600  0.706400  0.715100  1.0
  H  H643  1  0.715100  0.181600  0.706400  1.0
  H  H644  1  0.706400  0.715100  0.181600  1.0
  H  H645  1  0.839600  0.193700  0.295800  1.0
  H  H646  1  0.295800  0.839600  0.193700  1.0
  H  H647  1  0.193700  0.295800  0.839600  1.0
  H  H648  1  0.160400  0.806300  0.704200  1.0
  H  H649  1  0.704200  0.160400  0.806300  1.0
  H  H650  1  0.806300  0.704200  0.160400  1.0
  H  H651  1  0.854000  0.129900  0.384800  1.0
  H  H652  1  0.384800  0.854000  0.129900  1.0
  H  H653  1  0.129900  0.384800  0.854000  1.0
  H  H654  1  0.146000  0.870100  0.615200  1.0
  H  H655  1  0.615200  0.146000  0.870100  1.0
  H  H656  1  0.870100  0.615200  0.146000  1.0
  N  N657  1  0.831440  0.157540  0.629440  1
  N  N658  1  0.629440  0.831440  0.157540  1
  N  N659  1  0.157540  0.629440  0.831440  1
  N  N660  1  0.168560  0.842460  0.370560  1
  N  N661  1  0.370560  0.168560  0.842460  1
  N  N662  1  0.842460  0.370560  0.168560  1
  N  N663  1  0.942030  0.381490  0.285330  1.0
  N  N664  1  0.285330  0.942030  0.381490  1.0
  N  N665  1  0.381490  0.285330  0.942030  1.0
  N  N666  1  0.057970  0.618510  0.714670  1.0
  N  N667  1  0.714670  0.057970  0.618510  1.0
  N  N668  1  0.618510  0.714670  0.057970  1.0
  N  N669  1  0.927010  0.445660  0.423560  1.0
  N  N670  1  0.423560  0.927010  0.445660  1.0
  N  N671  1  0.445660  0.423560  0.927010  1.0
  N  N672  1  0.072990  0.554340  0.576440  1.0
  N  N673  1  0.576440  0.072990  0.554340  1.0
  N  N674  1  0.554340  0.576440  0.072990  1.0
  N  N675  1  0.927260  0.432550  0.374290  1.0
  N  N676  1  0.374290  0.927260  0.432550  1.0
  N  N677  1  0.432550  0.374290  0.927260  1.0
  N  N678  1  0.072740  0.567450  0.625710  1.0
  N  N679  1  0.625710  0.072740  0.567450  1.0
  N  N680  1  0.567450  0.625710  0.072740  1.0
  N  N681  1  0.635160  0.759770  0.693470  1.0
  N  N682  1  0.693470  0.635160  0.759770  1.0
  N  N683  1  0.759770  0.693470  0.635160  1.0
  N  N684  1  0.364840  0.240230  0.306530  1.0
  N  N685  1  0.306530  0.364840  0.240230  1.0
  N  N686  1  0.240230  0.306530  0.364840  1.0
  N  N687  1  0.639880  0.722460  0.542580  1.0
  N  N688  1  0.542580  0.639880  0.722460  1.0
  N  N689  1  0.722460  0.542580  0.639880  1.0
  N  N690  1  0.360120  0.277540  0.457420  1.0
  N  N691  1  0.457420  0.360120  0.277540  1.0
  N  N692  1  0.277540  0.457420  0.360120  1.0
  N  N693  1  0.641940  0.726890  0.595790  1.0
  N  N694  1  0.595790  0.641940  0.726890  1.0
  N  N695  1  0.726890  0.595790  0.641940  1.0
  N  N696  1  0.358060  0.273110  0.404210  1.0
  N  N697  1  0.404210  0.358060  0.273110  1.0
  N  N698  1  0.273110  0.404210  0.358060  1.0
  N  N699  1  0.888280  0.564300  0.291180  1.0
  N  N700  1  0.291180  0.888280  0.564300  1.0
  N  N701  1  0.564300  0.291180  0.888280  1.0
  N  N702  1  0.111720  0.435700  0.708820  1.0
  N  N703  1  0.708820  0.111720  0.435700  1.0
  N  N704  1  0.435700  0.708820  0.111720  1.0
  N  N705  1  0.780740  0.458540  0.310920  1.0
  N  N706  1  0.310920  0.780740  0.458540  1.0
  N  N707  1  0.458540  0.310920  0.780740  1.0
  N  N708  1  0.219260  0.541460  0.689080  1.0
  N  N709  1  0.689080  0.219260  0.541460  1.0
  N  N710  1  0.541460  0.689080  0.219260  1.0
  N  N711  1  0.823710  0.486970  0.303870  1.0
  N  N712  1  0.303870  0.823710  0.486970  1.0
  N  N713  1  0.486970  0.303870  0.823710  1.0
  N  N714  1  0.176290  0.513030  0.696130  1.0
  N  N715  1  0.696130  0.176290  0.513030  1.0
  N  N716  1  0.513030  0.696130  0.176290  1.0
  N  N717  1  0.740130  0.989520  0.521150  1.0
  N  N718  1  0.521150  0.740130  0.989520  1.0
  N  N719  1  0.989520  0.521150  0.740130  1.0
  N  N720  1  0.259870  0.010480  0.478850  1.0
  N  N721  1  0.478850  0.259870  0.010480  1.0
  N  N722  1  0.010480  0.478850  0.259870  1.0
  N  N723  1  0.854770  0.089520  0.491760  1.0
  N  N724  1  0.491760  0.854770  0.089520  1.0
  N  N725  1  0.089520  0.491760  0.854770  1.0
  N  N726  1  0.145230  0.910480  0.508240  1.0
  N  N727  1  0.508240  0.145230  0.910480  1.0
  N  N728  1  0.910480  0.508240  0.145230  1.0
  N  N729  1  0.810070  0.063410  0.500620  1.0
  N  N730  1  0.500620  0.810070  0.063410  1.0
  N  N731  1  0.063410  0.500620  0.810070  1.0
  N  N732  1  0.189930  0.936590  0.499380  1.0
  N  N733  1  0.499380  0.189930  0.936590  1.0
  N  N734  1  0.936590  0.499380  0.189930  1.0
  O  O735  1  0.953630  0.206230  0.499330  1
  O  O736  1  0.499330  0.953630  0.206230  1
  O  O737  1  0.206230  0.499330  0.953630  1
  O  O738  1  0.046370  0.793770  0.500670  1
  O  O739  1  0.500670  0.046370  0.793770  1
  O  O740  1  0.793770  0.500670  0.046370  1
  O  O741  1  0.051850  0.194100  0.457400  1
  O  O742  1  0.457400  0.051850  0.194100  1
  O  O743  1  0.194100  0.457400  0.051850  1
  O  O744  1  0.948150  0.805900  0.542600  1
  O  O745  1  0.542600  0.948150  0.805900  1
  O  O746  1  0.805900  0.542600  0.948150  1
  O  O747  1  0.017900  0.128950  0.543780  1
  O  O748  1  0.543780  0.017900  0.128950  1
  O  O749  1  0.128950  0.543780  0.017900  1
  O  O750  1  0.982100  0.871050  0.456220  1
  O  O751  1  0.456220  0.982100  0.871050  1
  O  O752  1  0.871050  0.456220  0.982100  1
  O  O753  1  0.002750  0.127950  0.455950  1
  O  O754  1  0.455950  0.002750  0.127950  1
  O  O755  1  0.127950  0.455950  0.002750  1
  O  O756  1  0.997250  0.872050  0.544050  1
  O  O757  1  0.544050  0.997250  0.872050  1
  O  O758  1  0.872050  0.544050  0.997250  1
  O  O759  1  0.041560  0.501200  0.423480  1
  O  O760  1  0.423480  0.041560  0.501200  1
  O  O761  1  0.501200  0.423480  0.041560  1
  O  O762  1  0.958440  0.498800  0.576520  1
  O  O763  1  0.576520  0.958440  0.498800  1
  O  O764  1  0.498800  0.576520  0.958440  1
  O  O765  1  0.011630  0.587230  0.352830  1
  O  O766  1  0.352830  0.011630  0.587230  1
  O  O767  1  0.587230  0.352830  0.011630  1
  O  O768  1  0.988370  0.412770  0.647170  1
  O  O769  1  0.647170  0.988370  0.412770  1
  O  O770  1  0.412770  0.647170  0.988370  1
  O  O771  1  0.987910  0.591010  0.450710  1
  O  O772  1  0.450710  0.987910  0.591010  1
  O  O773  1  0.591010  0.450710  0.987910  1
  O  O774  1  0.012090  0.408990  0.549290  1
  O  O775  1  0.549290  0.012090  0.408990  1
  O  O776  1  0.408990  0.549290  0.012090  1
  O  O777  1  0.087810  0.583010  0.399310  1
  O  O778  1  0.399310  0.087810  0.583010  1
  O  O779  1  0.583010  0.399310  0.087810  1
  O  O780  1  0.912190  0.416990  0.600690  1
  O  O781  1  0.600690  0.912190  0.416990  1
  O  O782  1  0.416990  0.600690  0.912190  1
  O  O783  1  0.583920  0.680520  0.364720  1
  O  O784  1  0.364720  0.583920  0.680520  1
  O  O785  1  0.680520  0.364720  0.583920  1
  O  O786  1  0.416080  0.319480  0.635280  1
  O  O787  1  0.635280  0.416080  0.319480  1
  O  O788  1  0.319480  0.635280  0.416080  1
  O  O789  1  0.667050  0.671850  0.394150  1
  O  O790  1  0.394150  0.667050  0.671850  1
  O  O791  1  0.671850  0.394150  0.667050  1
  O  O792  1  0.332950  0.328150  0.605850  1
  O  O793  1  0.605850  0.332950  0.328150  1
  O  O794  1  0.328150  0.605850  0.332950  1
  O  O795  1  0.660340  0.725740  0.300740  1
  O  O796  1  0.300740  0.660340  0.725740  1
  O  O797  1  0.725740  0.300740  0.660340  1
  O  O798  1  0.339660  0.274260  0.699260  1
  O  O799  1  0.699260  0.339660  0.274260  1
  O  O800  1  0.274260  0.699260  0.339660  1
  O  O801  1  0.602580  0.762820  0.382950  1
  O  O802  1  0.382950  0.602580  0.762820  1
  O  O803  1  0.762820  0.382950  0.602580  1
  O  O804  1  0.397420  0.237180  0.617050  1
  O  O805  1  0.617050  0.397420  0.237180  1
  O  O806  1  0.237180  0.617050  0.397420  1
  O  O807  1  0.566853  0.566853  0.566853  1
  O  O808  1  0.433147  0.433147  0.433147  1
