# generated using pymatgen
data_FePH17C20N5F6
_symmetry_space_group_name_H-M   'P 1'
_cell_length_a   14.56100000
_cell_length_b   15.29700000
_cell_length_c   22.66100000
_cell_angle_alpha   77.39100000
_cell_angle_beta   83.20900000
_cell_angle_gamma   63.60200000
_symmetry_Int_Tables_number   1
_chemical_formula_structural   FePH17C20N5F6
_chemical_formula_sum   'Fe8 P8 H136 C160 N40 F48'
_cell_volume   4410.84900016
_cell_formula_units_Z   8
loop_
 _symmetry_equiv_pos_site_id
 _symmetry_equiv_pos_as_xyz
  1  'x, y, z'
loop_
 _atom_site_type_symbol
 _atom_site_label
 _atom_site_symmetry_multiplicity
 _atom_site_fract_x
 _atom_site_fract_y
 _atom_site_fract_z
 _atom_site_occupancy
  Fe  Fe1  1  0.039830  0.432610  0.321430  1
  Fe  Fe2  1  0.960170  0.567390  0.678570  1
  Fe  Fe3  1  0.921100  0.336770  0.155220  1
  Fe  Fe4  1  0.078900  0.663230  0.844780  1
  Fe  Fe5  1  0.261320  0.036510  0.165340  1
  Fe  Fe6  1  0.738680  0.963490  0.834660  1
  Fe  Fe7  1  0.397500  0.176240  0.295190  1
  Fe  Fe8  1  0.602500  0.823760  0.704810  1
  P  P9  1  0.131000  0.167400  0.581950  1
  P  P10  1  0.869000  0.832600  0.418050  1
  P  P11  1  0.384600  0.673400  0.063250  1
  P  P12  1  0.615400  0.326600  0.936750  1
  P  P13  1  0.406200  0.659800  0.413800  1
  P  P14  1  0.593800  0.340200  0.586200  1
  P  P15  1  0.843700  0.826800  0.130990  1
  P  P16  1  0.156300  0.173200  0.869010  1
  H  H17  1  0.057100  0.380700  0.461300  1
  H  H18  1  0.942900  0.619300  0.538700  1
  H  H19  1  0.140200  0.404000  0.532000  1
  H  H20  1  0.859800  0.596000  0.468000  1
  H  H21  1  0.228700  0.499400  0.501600  1
  H  H22  1  0.771300  0.500600  0.498400  1
  H  H23  1  0.227100  0.574100  0.401500  1
  H  H24  1  0.772900  0.425900  0.598500  1
  H  H25  1  0.235000  0.626100  0.301200  1
  H  H26  1  0.765000  0.373900  0.698800  1
  H  H27  1  0.231900  0.674800  0.197700  1
  H  H28  1  0.768100  0.325200  0.802300  1
  H  H29  1  0.136300  0.636600  0.144000  1
  H  H30  1  0.863700  0.363400  0.856000  1
  H  H31  1  0.056100  0.540400  0.191000  1
  H  H32  1  0.943900  0.459600  0.809000  1
  H  H33  1  0.092700  0.216200  0.383400  1
  H  H34  1  0.907300  0.783800  0.616600  1
  H  H35  1  0.010000  0.132100  0.442900  1
  H  H36  1  0.990000  0.867900  0.557100  1
  H  H37  1  0.839200  0.213500  0.467800  1
  H  H38  1  0.160800  0.786500  0.532200  1
  H  H39  1  0.754700  0.383700  0.431900  1
  H  H40  1  0.245300  0.616300  0.568100  1
  H  H41  1  0.682700  0.545300  0.390700  1
  H  H42  1  0.317300  0.454700  0.609300  1
  H  H43  1  0.626500  0.709200  0.345300  1
  H  H44  1  0.373500  0.290800  0.654700  1
  H  H45  1  0.736000  0.764300  0.286800  1
  H  H46  1  0.264000  0.235700  0.713200  1
  H  H47  1  0.910200  0.656500  0.284100  1
  H  H48  1  0.089800  0.343500  0.715900  1
  H  H49  1  0.936200  0.159700  0.090200  1
  H  H50  1  0.063800  0.840300  0.909800  1
  H  H51  1  0.820800  0.178500  0.091900  1
  H  H52  1  0.179200  0.821500  0.908100  1
  H  H53  1  0.843100  0.039600  0.180400  1
  H  H54  1  0.156900  0.960400  0.819600  1
  H  H55  1  0.854100  0.993200  0.284100  1
  H  H56  1  0.145900  0.006800  0.715900  1
  H  H57  1  0.908600  0.071200  0.339600  1
  H  H58  1  0.091400  0.928800  0.660400  1
  H  H59  1  0.926700  0.212900  0.289300  1
  H  H60  1  0.073300  0.787100  0.710700  1
  H  H61  1  0.691300  0.321800  0.096100  1
  H  H62  1  0.308700  0.678200  0.903900  1
  H  H63  1  0.704300  0.419200  0.069800  1
  H  H64  1  0.295700  0.580800  0.930200  1
  H  H65  1  0.553100  0.392900  0.170900  1
  H  H66  1  0.446900  0.607100  0.829100  1
  H  H67  1  0.507100  0.450300  0.261600  1
  H  H68  1  0.492900  0.549700  0.738400  1
  H  H69  1  0.620100  0.484700  0.304000  1
  H  H70  1  0.379900  0.515300  0.696000  1
  H  H71  1  0.776900  0.457000  0.257200  1
  H  H72  1  0.223100  0.543000  0.742800  1
  H  H73  1  0.829700  0.329400  0.002800  1
  H  H74  1  0.170300  0.670600  0.997200  1
  H  H75  1  0.942900  0.280800  0.025200  1
  H  H76  1  0.057100  0.719200  0.974800  1
  H  H77  1  0.840400  0.478600  0.935300  1
  H  H78  1  0.159600  0.521400  0.064700  1
  H  H79  1  0.846300  0.626900  0.928500  1
  H  H80  1  0.153700  0.373100  0.071500  1
  H  H81  1  0.875800  0.670400  0.013900  1
  H  H82  1  0.124200  0.329600  0.986100  1
  H  H83  1  0.902600  0.557800  0.105100  1
  H  H84  1  0.097400  0.442200  0.894900  1
  H  H85  1  0.237600  0.024600  0.033300  1
  H  H86  1  0.762400  0.975400  0.966700  1
  H  H87  1  0.149400  0.967500  0.987000  1
  H  H88  1  0.850600  0.032500  0.013000  1
  H  H89  1  0.056800  0.891000  0.042900  1
  H  H90  1  0.943200  0.109000  0.957100  1
  H  H91  1  0.051700  0.870300  0.146800  1
  H  H92  1  0.948300  0.129700  0.853200  1
  H  H93  1  0.076500  0.840800  0.248900  1
  H  H94  1  0.923500  0.159200  0.751100  1
  H  H95  1  0.096500  0.835300  0.351600  1
  H  H96  1  0.903500  0.164700  0.648400  1
  H  H97  1  0.165500  0.930500  0.375700  1
  H  H98  1  0.834500  0.069500  0.624300  1
  H  H99  1  0.220100  0.023000  0.300900  1
  H  H100  1  0.779900  0.977000  0.699100  1
  H  H101  1  0.258600  0.201600  0.061100  1
  H  H102  1  0.741400  0.798400  0.938900  1
  H  H103  1  0.373800  0.241300  0.999700  1
  H  H104  1  0.626200  0.758700  0.000300  1
  H  H105  1  0.546300  0.127900  0.002900  1
  H  H106  1  0.453700  0.872100  0.997100  1
  H  H107  1  0.592600  0.975000  0.066000  1
  H  H108  1  0.407400  0.025000  0.934000  1
  H  H109  1  0.615700  0.824200  0.118400  1
  H  H110  1  0.384300  0.175800  0.881600  1
  H  H111  1  0.631600  0.679100  0.183100  1
  H  H112  1  0.368400  0.320900  0.816900  1
  H  H113  1  0.497700  0.682000  0.249000  1
  H  H114  1  0.502300  0.318000  0.751000  1
  H  H115  1  0.347400  0.822500  0.242200  1
  H  H116  1  0.652600  0.177500  0.757800  1
  H  H117  1  0.527500  0.058000  0.196100  1
  H  H118  1  0.472500  0.942000  0.803900  1
  H  H119  1  0.625500  0.075500  0.198000  1
  H  H120  1  0.374500  0.924500  0.802000  1
  H  H121  1  0.569900  0.211600  0.102900  1
  H  H122  1  0.430100  0.788400  0.897100  1
  H  H123  1  0.462100  0.375400  0.063900  1
  H  H124  1  0.537900  0.624600  0.936100  1
  H  H125  1  0.327900  0.464800  0.123800  1
  H  H126  1  0.672100  0.535200  0.876200  1
  H  H127  1  0.300500  0.389900  0.218200  1
  H  H128  1  0.699500  0.610100  0.781800  1
  H  H129  1  0.648200  0.140300  0.268300  1
  H  H130  1  0.351800  0.859700  0.731700  1
  H  H131  1  0.665800  0.054700  0.324500  1
  H  H132  1  0.334200  0.945300  0.675500  1
  H  H133  1  0.687000  0.183100  0.373300  1
  H  H134  1  0.313000  0.816900  0.626700  1
  H  H135  1  0.601800  0.309100  0.429400  1
  H  H136  1  0.398200  0.690900  0.570600  1
  H  H137  1  0.422300  0.384000  0.428400  1
  H  H138  1  0.577700  0.616000  0.571600  1
  H  H139  1  0.338100  0.334300  0.374500  1
  H  H140  1  0.661900  0.665700  0.625500  1
  H  H141  1  0.531600  0.956200  0.280200  1
  H  H142  1  0.468400  0.043800  0.719800  1
  H  H143  1  0.628400  0.939700  0.313400  1
  H  H144  1  0.371600  0.060300  0.686600  1
  H  H145  1  0.585200  0.849300  0.410900  1
  H  H146  1  0.414800  0.150700  0.589100  1
  H  H147  1  0.477300  0.862200  0.494800  1
  H  H148  1  0.522700  0.137800  0.505200  1
  H  H149  1  0.332500  0.010900  0.500500  1
  H  H150  1  0.667500  0.989100  0.499500  1
  H  H151  1  0.292800  0.136800  0.418700  1
  H  H152  1  0.707200  0.863200  0.581300  1
  C  C153  1  0.000500  0.407700  0.253300  1
  C  C154  1  0.999500  0.592300  0.746700  1
  C  C155  1  0.144100  0.161100  0.146800  1
  C  C156  1  0.855900  0.838900  0.853200  1
  C  C157  1  0.311800  0.088000  0.216800  1
  C  C158  1  0.688200  0.912000  0.783200  1
  C  C159  1  0.174200  0.326500  0.315300  1
  C  C160  1  0.825800  0.673500  0.684700  1
  C  C161  1  0.092500  0.419600  0.448800  1
  C  C162  1  0.907500  0.580400  0.551200  1
  C  C163  1  0.142000  0.433200  0.491600  1
  C  C164  1  0.858000  0.566800  0.508400  1
  C  C165  1  0.193600  0.490100  0.473600  1
  C  C166  1  0.806400  0.509900  0.526400  1
  C  C167  1  0.193600  0.533500  0.414200  1
  C  C168  1  0.806400  0.466500  0.585800  1
  C  C169  1  0.144300  0.517000  0.373700  1
  C  C170  1  0.855700  0.483000  0.626300  1
  C  C171  1  0.147100  0.552200  0.306800  1
  C  C172  1  0.852900  0.447800  0.693200  1
  C  C173  1  0.198800  0.608800  0.278300  1
  C  C174  1  0.801200  0.391200  0.721700  1
  C  C175  1  0.196300  0.638600  0.217200  1
  C  C176  1  0.803700  0.361400  0.782800  1
  C  C177  1  0.141200  0.614500  0.185700  1
  C  C178  1  0.858800  0.385500  0.814300  1
  C  C179  1  0.092000  0.557700  0.214100  1
  C  C180  1  0.908000  0.442300  0.785900  1
  C  C181  1  0.024100  0.251500  0.393600  1
  C  C182  1  0.975900  0.748500  0.606400  1
  C  C183  1  0.974300  0.200100  0.429000  1
  C  C184  1  0.025700  0.799900  0.571000  1
  C  C185  1  0.873700  0.247800  0.443900  1
  C  C186  1  0.126300  0.752200  0.556100  1
  C  C187  1  0.823800  0.348800  0.422500  1
  C  C188  1  0.176200  0.651200  0.577500  1
  C  C189  1  0.877400  0.398400  0.386600  1
  C  C190  1  0.122600  0.601600  0.613400  1
  C  C191  1  0.831900  0.504000  0.362800  1
  C  C192  1  0.168100  0.496000  0.637200  1
  C  C193  1  0.728200  0.568300  0.368500  1
  C  C194  1  0.271800  0.431700  0.631500  1
  C  C195  1  0.695000  0.665300  0.340900  1
  C  C196  1  0.305000  0.334700  0.659100  1
  C  C197  1  0.759900  0.699000  0.307500  1
  C  C198  1  0.240100  0.301000  0.692500  1
  C  C199  1  0.864100  0.632900  0.304600  1
  C  C200  1  0.135900  0.367100  0.695400  1
  C  C201  1  0.869200  0.193800  0.108500  1
  C  C202  1  0.130800  0.806200  0.891500  1
  C  C203  1  0.873600  0.157900  0.175400  1
  C  C204  1  0.126400  0.842100  0.824600  1
  C  C205  1  0.858900  0.074900  0.203000  1
  C  C206  1  0.141100  0.925100  0.797000  1
  C  C207  1  0.868200  0.046200  0.264600  1
  C  C208  1  0.131800  0.953800  0.735400  1
  C  C209  1  0.897700  0.093700  0.298300  1
  C  C210  1  0.102300  0.906300  0.701700  1
  C  C211  1  0.910600  0.176900  0.267500  1
  C  C212  1  0.089400  0.823100  0.732500  1
  C  C213  1  0.726200  0.360600  0.101600  1
  C  C214  1  0.273800  0.639400  0.898400  1
  C  C215  1  0.692000  0.393700  0.162300  1
  C  C216  1  0.308000  0.606300  0.837700  1
  C  C217  1  0.597800  0.406900  0.189100  1
  C  C218  1  0.402200  0.593100  0.810900  1
  C  C219  1  0.570400  0.441000  0.243000  1
  C  C220  1  0.429600  0.559000  0.757000  1
  C  C221  1  0.637000  0.460600  0.268100  1
  C  C222  1  0.363000  0.539400  0.731900  1
  C  C223  1  0.730900  0.444300  0.239400  1
  C  C224  1  0.269100  0.555700  0.760600  1
  C  C225  1  0.873400  0.328900  0.032200  1
  C  C226  1  0.126600  0.671100  0.967800  1
  C  C227  1  0.869800  0.431500  0.025100  1
  C  C228  1  0.130200  0.568500  0.974900  1
  C  C229  1  0.853300  0.495900  0.969300  1
  C  C230  1  0.146700  0.504100  0.030700  1
  C  C231  1  0.856400  0.583500  0.965600  1
  C  C232  1  0.143600  0.416500  0.034400  1
  C  C233  1  0.874400  0.609600  0.016000  1
  C  C234  1  0.125600  0.390400  0.984000  1
  C  C235  1  0.890800  0.541100  0.070700  1
  C  C236  1  0.109200  0.458900  0.929300  1
  C  C237  1  0.200000  0.993400  0.056900  1
  C  C238  1  0.800000  0.006600  0.943100  1
  C  C239  1  0.147200  0.959300  0.029000  1
  C  C240  1  0.852800  0.040700  0.971000  1
  C  C241  1  0.092400  0.914200  0.062000  1
  C  C242  1  0.907600  0.085800  0.938000  1
  C  C243  1  0.089000  0.902200  0.123700  1
  C  C244  1  0.911000  0.097800  0.876300  1
  C  C245  1  0.141700  0.938000  0.151400  1
  C  C246  1  0.858300  0.062000  0.848600  1
  C  C247  1  0.144700  0.933100  0.216000  1
  C  C248  1  0.855300  0.066900  0.784000  1
  C  C249  1  0.107500  0.876300  0.259800  1
  C  C250  1  0.892500  0.123700  0.740200  1
  C  C251  1  0.118100  0.874400  0.321300  1
  C  C252  1  0.881900  0.125600  0.678700  1
  C  C253  1  0.159700  0.929500  0.335500  1
  C  C254  1  0.840300  0.070500  0.664500  1
  C  C255  1  0.193300  0.983700  0.290400  1
  C  C256  1  0.806700  0.016300  0.709600  1
  C  C257  1  0.326900  0.154900  0.062400  1
  C  C258  1  0.673100  0.845100  0.937600  1
  C  C259  1  0.395200  0.179900  0.025500  1
  C  C260  1  0.604800  0.820100  0.974500  1
  C  C261  1  0.497300  0.112300  0.026900  1
  C  C262  1  0.502700  0.887700  0.973100  1
  C  C263  1  0.524400  0.021900  0.064600  1
  C  C264  1  0.475600  0.978100  0.935400  1
  C  C265  1  0.450700  0.999700  0.100700  1
  C  C266  1  0.549300  0.000300  0.899300  1
  C  C267  1  0.469000  0.906300  0.141000  1
  C  C268  1  0.531000  0.093700  0.859000  1
  C  C269  1  0.560800  0.822600  0.143400  1
  C  C270  1  0.439200  0.177400  0.856600  1
  C  C271  1  0.571100  0.737000  0.182600  1
  C  C272  1  0.428900  0.263000  0.817400  1
  C  C273  1  0.491500  0.738200  0.220600  1
  C  C274  1  0.508500  0.261800  0.779400  1
  C  C275  1  0.402100  0.823200  0.216700  1
  C  C276  1  0.597900  0.176800  0.783300  1
  C  C277  1  0.553700  0.097900  0.210100  1
  C  C278  1  0.446300  0.902100  0.789900  1
  C  C279  1  0.494900  0.205300  0.182300  1
  C  C280  1  0.505100  0.794700  0.817700  1
  C  C281  1  0.514200  0.248100  0.125800  1
  C  C282  1  0.485800  0.751900  0.874200  1
  C  C283  1  0.450800  0.345900  0.102700  1
  C  C284  1  0.549200  0.654100  0.897300  1
  C  C285  1  0.370900  0.398500  0.138100  1
  C  C286  1  0.629100  0.601500  0.861900  1
  C  C287  1  0.354900  0.353200  0.194500  1
  C  C288  1  0.645100  0.646800  0.805500  1
  C  C289  1  0.613800  0.113800  0.301600  1
  C  C290  1  0.386200  0.886200  0.698400  1
  C  C291  1  0.561500  0.188600  0.341200  1
  C  C292  1  0.438500  0.811400  0.658800  1
  C  C293  1  0.615700  0.215500  0.373900  1
  C  C294  1  0.384300  0.784500  0.626100  1
  C  C295  1  0.566200  0.289700  0.407500  1
  C  C296  1  0.433800  0.710300  0.592500  1
  C  C297  1  0.459800  0.333600  0.406500  1
  C  C298  1  0.540200  0.666400  0.593500  1
  C  C299  1  0.409500  0.303700  0.373800  1
  C  C300  1  0.590500  0.696300  0.626200  1
  C  C301  1  0.556300  0.983000  0.306500  1
  C  C302  1  0.443700  0.017000  0.693500  1
  C  C303  1  0.498000  0.986400  0.365300  1
  C  C304  1  0.502000  0.013600  0.634700  1
  C  C305  1  0.525400  0.907100  0.412800  1
  C  C306  1  0.474600  0.092900  0.587200  1
  C  C307  1  0.462000  0.915600  0.462600  1
  C  C308  1  0.538000  0.084400  0.537400  1
  C  C309  1  0.374500  0.003800  0.465900  1
  C  C310  1  0.625500  0.996200  0.534100  1
  C  C311  1  0.352400  0.078600  0.417500  1
  C  C312  1  0.647600  0.921400  0.582500  1
  N  N313  1  0.970100  0.391900  0.212600  1
  N  N314  1  0.029900  0.608100  0.787400  1
  N  N315  1  0.069800  0.234500  0.134100  1
  N  N316  1  0.930200  0.765500  0.865900  1
  N  N317  1  0.345500  0.116200  0.248800  1
  N  N318  1  0.654500  0.883800  0.751200  1
  N  N319  1  0.257700  0.267500  0.311700  1
  N  N320  1  0.742300  0.732500  0.688300  1
  N  N321  1  0.092700  0.459700  0.389500  1
  N  N322  1  0.907300  0.540300  0.610500  1
  N  N323  1  0.094200  0.525900  0.275100  1
  N  N324  1  0.905800  0.474100  0.724900  1
  N  N325  1  0.979400  0.349600  0.372900  1
  N  N326  1  0.020600  0.650400  0.627100  1
  N  N327  1  0.898800  0.536900  0.330500  1
  N  N328  1  0.101200  0.463100  0.669500  1
  N  N329  1  0.837800  0.301200  0.094000  1
  N  N330  1  0.162200  0.698800  0.906000  1
  N  N331  1  0.900400  0.206900  0.207500  1
  N  N332  1  0.099600  0.793100  0.792500  1
  N  N333  1  0.758500  0.411200  0.187300  1
  N  N334  1  0.241500  0.588800  0.812700  1
  N  N335  1  0.889900  0.453200  0.075200  1
  N  N336  1  0.110100  0.546800  0.924800  1
  N  N337  1  0.198800  0.982800  0.117800  1
  N  N338  1  0.801200  0.017200  0.882200  1
  N  N339  1  0.190000  0.983900  0.232300  1
  N  N340  1  0.810000  0.016100  0.767700  1
  N  N341  1  0.349700  0.069200  0.100300  1
  N  N342  1  0.650300  0.930800  0.899700  1
  N  N343  1  0.389000  0.907400  0.178000  1
  N  N344  1  0.611000  0.092600  0.822000  1
  N  N345  1  0.543300  0.085700  0.276700  1
  N  N346  1  0.456700  0.914300  0.723300  1
  N  N347  1  0.415000  0.257000  0.217700  1
  N  N348  1  0.585000  0.743000  0.782300  1
  N  N349  1  0.458000  0.232600  0.340900  1
  N  N350  1  0.542000  0.767400  0.659100  1
  N  N351  1  0.412700  0.072100  0.367800  1
  N  N352  1  0.587300  0.927900  0.632200  1
  F  F353  1  0.159100  0.170000  0.513500  1
  F  F354  1  0.840900  0.830000  0.486500  1
  F  F355  1  0.044500  0.269300  0.565600  1
  F  F356  1  0.955500  0.730700  0.434400  1
  F  F357  1  0.102300  0.163900  0.649700  1
  F  F358  1  0.897700  0.836100  0.350300  1
  F  F359  1  0.219700  0.057900  0.595900  1
  F  F360  1  0.780300  0.942100  0.404100  1
  F  F361  1  0.208300  0.207500  0.584900  1
  F  F362  1  0.791700  0.792500  0.415100  1
  F  F363  1  0.063400  0.116300  0.577700  1
  F  F364  1  0.936600  0.883700  0.422300  1
  F  F365  1  0.349600  0.743900  0.998900  1
  F  F366  1  0.650400  0.256100  0.001100  1
  F  F367  1  0.271400  0.684100  0.075000  1
  F  F368  1  0.728600  0.315900  0.925000  1
  F  F369  1  0.416600  0.604100  0.126500  1
  F  F370  1  0.583400  0.395900  0.873500  1
  F  F371  1  0.495000  0.665300  0.049200  1
  F  F372  1  0.505000  0.334700  0.950800  1
  F  F373  1  0.410500  0.583600  0.032000  1
  F  F374  1  0.589500  0.416400  0.968000  1
  F  F375  1  0.356300  0.765200  0.092200  1
  F  F376  1  0.643700  0.234800  0.907800  1
  F  F377  1  0.431600  0.738500  0.368000  1
  F  F378  1  0.568400  0.261500  0.632000  1
  F  F379  1  0.326700  0.744600  0.446000  1
  F  F380  1  0.673300  0.255400  0.554000  1
  F  F381  1  0.379100  0.582200  0.459100  1
  F  F382  1  0.620900  0.417800  0.540900  1
  F  F383  1  0.486100  0.577000  0.384300  1
  F  F384  1  0.513900  0.423000  0.615700  1
  F  F385  1  0.320800  0.679000  0.372000  1
  F  F386  1  0.679200  0.321000  0.628000  1
  F  F387  1  0.489900  0.647000  0.456100  1
  F  F388  1  0.510100  0.353000  0.543900  1
  F  F389  1  0.742900  0.874600  0.169600  1
  F  F390  1  0.257100  0.125400  0.830400  1
  F  F391  1  0.839400  0.933300  0.111900  1
  F  F392  1  0.160600  0.066700  0.888100  1
  F  F393  1  0.941700  0.783600  0.092400  1
  F  F394  1  0.058300  0.216400  0.907600  1
  F  F395  1  0.841600  0.726200  0.153400  1
  F  F396  1  0.158400  0.273800  0.846600  1
  F  F397  1  0.778300  0.844700  0.075100  1
  F  F398  1  0.221700  0.155300  0.924900  1
  F  F399  1  0.909700  0.808500  0.186800  1
  F  F400  1  0.090300  0.191500  0.813200  1
