# generated using pymatgen
data_FePH17C20N5F6
_symmetry_space_group_name_H-M   'P 1'
_cell_length_a   14.42600000
_cell_length_b   15.04200000
_cell_length_c   22.27200000
_cell_angle_alpha   77.27000000
_cell_angle_beta   83.48600000
_cell_angle_gamma   64.11200000
_symmetry_Int_Tables_number   1
_chemical_formula_structural   FePH17C20N5F6
_chemical_formula_sum   'Fe8 P8 H136 C160 N40 F48'
_cell_volume   4240.25048757
_cell_formula_units_Z   8
loop_
 _symmetry_equiv_pos_site_id
 _symmetry_equiv_pos_as_xyz
  1  'x, y, z'
loop_
 _atom_site_type_symbol
 _atom_site_label
 _atom_site_symmetry_multiplicity
 _atom_site_fract_x
 _atom_site_fract_y
 _atom_site_fract_z
 _atom_site_occupancy
  Fe  Fe1  1  0.035160  0.430080  0.320900  1
  Fe  Fe2  1  0.964840  0.569920  0.679100  1
  Fe  Fe3  1  0.909880  0.329780  0.157770  1
  Fe  Fe4  1  0.090120  0.670220  0.842230  1
  Fe  Fe5  1  0.252070  0.040240  0.165060  1
  Fe  Fe6  1  0.747930  0.959760  0.834940  1
  Fe  Fe7  1  0.397200  0.180040  0.294150  1
  Fe  Fe8  1  0.602800  0.819960  0.705850  1
  P  P9  1  0.373990  0.679150  0.060790  1
  P  P10  1  0.626010  0.320850  0.939210  1
  P  P11  1  0.403870  0.665360  0.412400  1
  P  P12  1  0.596130  0.334640  0.587600  1
  P  P13  1  0.831890  0.835990  0.134500  1
  P  P14  1  0.168110  0.164010  0.865500  1
  P  P15  1  0.863510  0.826790  0.418400  1
  P  P16  1  0.136490  0.173210  0.581600  1
  H  H17  1  0.053000  0.383600  0.462500  1
  H  H18  1  0.947000  0.616400  0.537500  1
  H  H19  1  0.140200  0.407800  0.531300  1
  H  H20  1  0.859800  0.592200  0.468700  1
  H  H21  1  0.229100  0.507200  0.499100  1
  H  H22  1  0.770900  0.492800  0.500900  1
  H  H23  1  0.226900  0.580100  0.394800  1
  H  H24  1  0.773100  0.419900  0.605200  1
  H  H25  1  0.229500  0.631500  0.294100  1
  H  H26  1  0.770500  0.368500  0.705900  1
  H  H27  1  0.220500  0.680600  0.188100  1
  H  H28  1  0.779500  0.319400  0.811900  1
  H  H29  1  0.119200  0.639700  0.135400  1
  H  H30  1  0.880800  0.360300  0.864600  1
  H  H31  1  0.045300  0.537100  0.187300  1
  H  H32  1  0.954700  0.462900  0.812700  1
  H  H33  1  0.095600  0.212000  0.387800  1
  H  H34  1  0.904400  0.788000  0.612200  1
  H  H35  1  0.016300  0.123000  0.451200  1
  H  H36  1  0.983700  0.877000  0.548800  1
  H  H37  1  0.845800  0.202300  0.477500  1
  H  H38  1  0.154200  0.797700  0.522500  1
  H  H39  1  0.753400  0.373500  0.437900  1
  H  H40  1  0.246600  0.626500  0.562100  1
  H  H41  1  0.679400  0.537300  0.395400  1
  H  H42  1  0.320600  0.462700  0.604600  1
  H  H43  1  0.616300  0.703000  0.346400  1
  H  H44  1  0.383700  0.297000  0.653600  1
  H  H45  1  0.725800  0.762400  0.284500  1
  H  H46  1  0.274200  0.237600  0.715500  1
  H  H47  1  0.899000  0.654900  0.278700  1
  H  H48  1  0.101000  0.345100  0.721300  1
  H  H49  1  0.833900  0.159600  0.101900  1
  H  H50  1  0.166100  0.840400  0.898100  1
  H  H51  1  0.949600  0.142400  0.101200  1
  H  H52  1  0.050400  0.857600  0.898800  1
  H  H53  1  0.850700  0.028700  0.199700  1
  H  H54  1  0.149300  0.971300  0.800300  1
  H  H55  1  0.865100  0.992600  0.304400  1
  H  H56  1  0.134900  0.007400  0.695600  1
  H  H57  1  0.906500  0.090000  0.353400  1
  H  H58  1  0.093500  0.910000  0.646600  1
  H  H59  1  0.926600  0.227700  0.295300  1
  H  H60  1  0.073400  0.772300  0.704700  1
  H  H61  1  0.702200  0.304300  0.095000  1
  H  H62  1  0.297800  0.695700  0.905000  1
  H  H63  1  0.714100  0.403200  0.064200  1
  H  H64  1  0.285900  0.596800  0.935800  1
  H  H65  1  0.549300  0.405600  0.157600  1
  H  H66  1  0.450700  0.594400  0.842400  1
  H  H67  1  0.499000  0.469600  0.248200  1
  H  H68  1  0.501000  0.530400  0.751800  1
  H  H69  1  0.617200  0.493500  0.297200  1
  H  H70  1  0.382800  0.506500  0.702800  1
  H  H71  1  0.781700  0.449500  0.257200  1
  H  H72  1  0.218300  0.550500  0.742800  1
  H  H73  1  0.854000  0.315300  0.004500  1
  H  H74  1  0.146000  0.684700  0.995500  1
  H  H75  1  0.963800  0.268500  0.033400  1
  H  H76  1  0.036200  0.731500  0.966600  1
  H  H77  1  0.862900  0.474900  0.940900  1
  H  H78  1  0.137100  0.525100  0.059100  1
  H  H79  1  0.859100  0.630100  0.943900  1
  H  H80  1  0.140900  0.369900  0.056100  1
  H  H81  1  0.869800  0.667500  0.037300  1
  H  H82  1  0.130200  0.332500  0.962700  1
  H  H83  1  0.892200  0.547000  0.126200  1
  H  H84  1  0.107800  0.453000  0.873800  1
  H  H85  1  0.226400  0.027800  0.031800  1
  H  H86  1  0.773600  0.972200  0.968200  1
  H  H87  1  0.139800  0.964000  0.985400  1
  H  H88  1  0.860200  0.036000  0.014600  1
  H  H89  1  0.047300  0.882300  0.044500  1
  H  H90  1  0.952700  0.117700  0.955500  1
  H  H91  1  0.043100  0.866800  0.150400  1
  H  H92  1  0.956900  0.133200  0.849600  1
  H  H93  1  0.069300  0.836600  0.253200  1
  H  H94  1  0.930700  0.163400  0.746800  1
  H  H95  1  0.092700  0.829200  0.356300  1
  H  H96  1  0.907300  0.170800  0.643700  1
  H  H97  1  0.164100  0.926200  0.381600  1
  H  H98  1  0.835900  0.073800  0.618400  1
  H  H99  1  0.215300  0.024900  0.304400  1
  H  H100  1  0.784700  0.975100  0.695600  1
  H  H101  1  0.244200  0.207800  0.055100  1
  H  H102  1  0.755800  0.792200  0.944900  1
  H  H103  1  0.363400  0.250100  0.993300  1
  H  H104  1  0.636600  0.749900  0.006700  1
  H  H105  1  0.536100  0.137700  0.000400  1
  H  H106  1  0.463900  0.862300  0.999600  1
  H  H107  1  0.584800  0.982900  0.066400  1
  H  H108  1  0.415200  0.017100  0.933600  1
  H  H109  1  0.608700  0.827400  0.118500  1
  H  H110  1  0.391300  0.172600  0.881500  1
  H  H111  1  0.628200  0.681300  0.186100  1
  H  H112  1  0.371800  0.318700  0.813900  1
  H  H113  1  0.492200  0.681000  0.252000  1
  H  H114  1  0.507800  0.319000  0.748000  1
  H  H115  1  0.337900  0.822900  0.243700  1
  H  H116  1  0.662100  0.177100  0.756300  1
  H  H117  1  0.525900  0.062900  0.192100  1
  H  H118  1  0.474100  0.937100  0.807900  1
  H  H119  1  0.622700  0.084800  0.192900  1
  H  H120  1  0.377300  0.915200  0.807100  1
  H  H121  1  0.560800  0.221900  0.096000  1
  H  H122  1  0.439200  0.778100  0.904000  1
  H  H123  1  0.448200  0.386600  0.055900  1
  H  H124  1  0.551800  0.613400  0.944100  1
  H  H125  1  0.315700  0.474600  0.119300  1
  H  H126  1  0.684300  0.525400  0.880700  1
  H  H127  1  0.293100  0.397900  0.216200  1
  H  H128  1  0.706900  0.602100  0.783800  1
  H  H129  1  0.644100  0.154000  0.262800  1
  H  H130  1  0.355900  0.846000  0.737200  1
  H  H131  1  0.669000  0.065300  0.319700  1
  H  H132  1  0.331000  0.934700  0.680300  1
  H  H133  1  0.687900  0.196900  0.369400  1
  H  H134  1  0.312100  0.803100  0.630600  1
  H  H135  1  0.600500  0.318800  0.429800  1
  H  H136  1  0.399500  0.681200  0.570200  1
  H  H137  1  0.420600  0.393400  0.429400  1
  H  H138  1  0.579400  0.606600  0.570600  1
  H  H139  1  0.335800  0.340100  0.375800  1
  H  H140  1  0.664200  0.659900  0.624200  1
  H  H141  1  0.536500  0.957400  0.278300  1
  H  H142  1  0.463500  0.042600  0.721700  1
  H  H143  1  0.632600  0.945300  0.311800  1
  H  H144  1  0.367400  0.054700  0.688200  1
  H  H145  1  0.590500  0.848400  0.409600  1
  H  H146  1  0.409500  0.151600  0.590400  1
  H  H147  1  0.484500  0.856700  0.497400  1
  H  H148  1  0.515500  0.143300  0.502600  1
  H  H149  1  0.335600  0.002900  0.502900  1
  H  H150  1  0.664400  0.997100  0.497100  1
  H  H151  1  0.298800  0.137600  0.421400  1
  H  H152  1  0.701200  0.862400  0.578600  1
  C  C153  1  0.993000  0.397900  0.253400  1
  C  C154  1  0.007000  0.602100  0.746600  1
  C  C155  1  0.131900  0.166700  0.147400  1
  C  C156  1  0.868100  0.833300  0.852600  1
  C  C157  1  0.306900  0.090000  0.216900  1
  C  C158  1  0.693100  0.910000  0.783100  1
  C  C159  1  0.170800  0.324500  0.315600  1
  C  C160  1  0.829200  0.675500  0.684400  1
  C  C161  1  0.089300  0.422500  0.448500  1
  C  C162  1  0.910700  0.577500  0.551500  1
  C  C163  1  0.140700  0.437500  0.490000  1
  C  C164  1  0.859300  0.562500  0.510000  1
  C  C165  1  0.193700  0.496400  0.471100  1
  C  C166  1  0.806300  0.503600  0.528900  1
  C  C167  1  0.192800  0.539200  0.409100  1
  C  C168  1  0.807200  0.460800  0.590900  1
  C  C169  1  0.141000  0.520300  0.369100  1
  C  C170  1  0.859000  0.479700  0.630900  1
  C  C171  1  0.140300  0.555000  0.302200  1
  C  C172  1  0.859700  0.445000  0.697800  1
  C  C173  1  0.191800  0.613400  0.271900  1
  C  C174  1  0.808200  0.386600  0.728100  1
  C  C175  1  0.185700  0.643200  0.209200  1
  C  C176  1  0.814300  0.356800  0.790800  1
  C  C177  1  0.127400  0.617000  0.177700  1
  C  C178  1  0.872600  0.383000  0.822300  1
  C  C179  1  0.081600  0.557000  0.209400  1
  C  C180  1  0.918400  0.443000  0.790600  1
  C  C181  1  0.026400  0.245400  0.398300  1
  C  C182  1  0.973600  0.754600  0.601700  1
  C  C183  1  0.979100  0.191400  0.436200  1
  C  C184  1  0.020900  0.808600  0.563800  1
  C  C185  1  0.878100  0.238200  0.451600  1
  C  C186  1  0.121900  0.761800  0.548400  1
  C  C187  1  0.823100  0.340300  0.428600  1
  C  C188  1  0.176900  0.659700  0.571400  1
  C  C189  1  0.875700  0.391500  0.390900  1
  C  C190  1  0.124300  0.608500  0.609100  1
  C  C191  1  0.826000  0.499200  0.364300  1
  C  C192  1  0.174000  0.500800  0.635700  1
  C  C193  1  0.723000  0.562000  0.371000  1
  C  C194  1  0.277000  0.438000  0.629000  1
  C  C195  1  0.685500  0.660300  0.341900  1
  C  C196  1  0.314500  0.339700  0.658100  1
  C  C197  1  0.750500  0.696100  0.305700  1
  C  C198  1  0.249500  0.303900  0.694300  1
  C  C199  1  0.854300  0.630300  0.301700  1
  C  C200  1  0.145700  0.369700  0.698300  1
  C  C201  1  0.881200  0.178700  0.117600  1
  C  C202  1  0.118800  0.821300  0.882400  1
  C  C203  1  0.881800  0.151900  0.185700  1
  C  C204  1  0.118200  0.848100  0.814300  1
  C  C205  1  0.866600  0.068600  0.219500  1
  C  C206  1  0.133400  0.931400  0.780500  1
  C  C207  1  0.875400  0.047300  0.281500  1
  C  C208  1  0.124600  0.952700  0.718500  1
  C  C209  1  0.899200  0.105200  0.310900  1
  C  C210  1  0.100800  0.894800  0.689100  1
  C  C211  1  0.912000  0.187000  0.275500  1
  C  C212  1  0.088000  0.813000  0.724500  1
  C  C213  1  0.734300  0.347400  0.099000  1
  C  C214  1  0.265700  0.652600  0.901000  1
  C  C215  1  0.695700  0.387600  0.157300  1
  C  C216  1  0.304300  0.612400  0.842700  1
  C  C217  1  0.596100  0.413900  0.178700  1
  C  C218  1  0.403900  0.586100  0.821300  1
  C  C219  1  0.565700  0.453000  0.232400  1
  C  C220  1  0.434300  0.547000  0.767600  1
  C  C221  1  0.635800  0.466600  0.261600  1
  C  C222  1  0.364200  0.533400  0.738400  1
  C  C223  1  0.734600  0.439900  0.237200  1
  C  C224  1  0.265400  0.560100  0.762800  1
  C  C225  1  0.892600  0.316100  0.037100  1
  C  C226  1  0.107400  0.683900  0.962900  1
  C  C227  1  0.885800  0.420300  0.032300  1
  C  C228  1  0.114200  0.579700  0.967700  1
  C  C229  1  0.870500  0.490000  0.977900  1
  C  C230  1  0.129500  0.510000  0.022100  1
  C  C231  1  0.866700  0.582700  0.979900  1
  C  C232  1  0.133300  0.417300  0.020100  1
  C  C233  1  0.874100  0.604700  0.035300  1
  C  C234  1  0.125900  0.395300  0.964700  1
  C  C235  1  0.888400  0.531500  0.088600  1
  C  C236  1  0.111600  0.468500  0.911400  1
  C  C237  1  0.189700  0.994900  0.056200  1
  C  C238  1  0.810300  0.005100  0.943800  1
  C  C239  1  0.137300  0.956700  0.028000  1
  C  C240  1  0.862700  0.043300  0.972000  1
  C  C241  1  0.082300  0.908300  0.062900  1
  C  C242  1  0.917700  0.091700  0.937100  1
  C  C243  1  0.080200  0.899100  0.125800  1
  C  C244  1  0.919800  0.100900  0.874200  1
  C  C245  1  0.133100  0.937700  0.152300  1
  C  C246  1  0.866900  0.062300  0.847700  1
  C  C247  1  0.135700  0.931800  0.218900  1
  C  C248  1  0.864300  0.068200  0.781100  1
  C  C249  1  0.100700  0.873100  0.263900  1
  C  C250  1  0.899300  0.126900  0.736100  1
  C  C251  1  0.113500  0.870000  0.325500  1
  C  C252  1  0.886500  0.130000  0.674500  1
  C  C253  1  0.156500  0.926700  0.340600  1
  C  C254  1  0.843500  0.073300  0.659400  1
  C  C255  1  0.188200  0.984500  0.294000  1
  C  C256  1  0.811800  0.015500  0.706000  1
  C  C257  1  0.313300  0.162300  0.057700  1
  C  C258  1  0.686700  0.837700  0.942300  1
  C  C259  1  0.384200  0.188500  0.020400  1
  C  C260  1  0.615800  0.811500  0.979600  1
  C  C261  1  0.486700  0.121100  0.024300  1
  C  C262  1  0.513300  0.878900  0.975700  1
  C  C263  1  0.515900  0.029000  0.063600  1
  C  C264  1  0.484100  0.971000  0.936400  1
  C  C265  1  0.440200  0.006600  0.098900  1
  C  C266  1  0.559800  0.993400  0.901100  1
  C  C267  1  0.461700  0.909600  0.141200  1
  C  C268  1  0.538300  0.090400  0.858800  1
  C  C269  1  0.554100  0.825200  0.144300  1
  C  C270  1  0.445900  0.174800  0.855700  1
  C  C271  1  0.566300  0.738700  0.184600  1
  C  C272  1  0.433700  0.261300  0.815400  1
  C  C273  1  0.485500  0.738200  0.223000  1
  C  C274  1  0.514500  0.261800  0.777000  1
  C  C275  1  0.393000  0.824400  0.218000  1
  C  C276  1  0.607000  0.175600  0.782000  1
  C  C277  1  0.551100  0.104800  0.206000  1
  C  C278  1  0.448900  0.895200  0.794000  1
  C  C279  1  0.488500  0.213800  0.178500  1
  C  C280  1  0.511500  0.786200  0.821500  1
  C  C281  1  0.505300  0.258100  0.119700  1
  C  C282  1  0.494700  0.741900  0.880300  1
  C  C283  1  0.439500  0.356200  0.096000  1
  C  C284  1  0.560500  0.643800  0.904000  1
  C  C285  1  0.360300  0.407800  0.133700  1
  C  C286  1  0.639700  0.592200  0.866300  1
  C  C287  1  0.347000  0.361600  0.191700  1
  C  C288  1  0.653000  0.638400  0.808300  1
  C  C289  1  0.613700  0.124000  0.297700  1
  C  C290  1  0.386300  0.876000  0.702300  1
  C  C291  1  0.561100  0.198000  0.339200  1
  C  C292  1  0.438900  0.802000  0.660800  1
  C  C293  1  0.616200  0.226500  0.371400  1
  C  C294  1  0.383800  0.773500  0.628600  1
  C  C295  1  0.564700  0.299500  0.406900  1
  C  C296  1  0.435300  0.700500  0.593100  1
  C  C297  1  0.457900  0.342900  0.407000  1
  C  C298  1  0.542100  0.657100  0.593000  1
  C  C299  1  0.407500  0.311300  0.374300  1
  C  C300  1  0.592500  0.688700  0.625700  1
  C  C301  1  0.559700  0.986500  0.304800  1
  C  C302  1  0.440300  0.013500  0.695200  1
  C  C303  1  0.501700  0.988300  0.364600  1
  C  C304  1  0.498300  0.011700  0.635400  1
  C  C305  1  0.530300  0.906100  0.412400  1
  C  C306  1  0.469700  0.093900  0.587600  1
  C  C307  1  0.467200  0.911500  0.464800  1
  C  C308  1  0.532800  0.088500  0.535200  1
  C  C309  1  0.379000  0.998100  0.468300  1
  C  C310  1  0.621000  0.001900  0.531700  1
  C  C311  1  0.357000  0.078100  0.418800  1
  C  C312  1  0.643000  0.921900  0.581200  1
  N  N313  1  0.963100  0.375400  0.215400  1
  N  N314  1  0.036900  0.624600  0.784600  1
  N  N315  1  0.053500  0.238100  0.138900  1
  N  N316  1  0.946500  0.761900  0.861100  1
  N  N317  1  0.344200  0.117400  0.248000  1
  N  N318  1  0.655800  0.882600  0.752000  1
  N  N319  1  0.256700  0.269500  0.311600  1
  N  N320  1  0.743300  0.730500  0.688400  1
  N  N321  1  0.088500  0.461300  0.388400  1
  N  N322  1  0.911500  0.538700  0.611600  1
  N  N323  1  0.086900  0.525400  0.271000  1
  N  N324  1  0.913100  0.474600  0.729000  1
  N  N325  1  0.976700  0.345100  0.375800  1
  N  N326  1  0.023300  0.654900  0.624200  1
  N  N327  1  0.892300  0.534100  0.329400  1
  N  N328  1  0.107700  0.465900  0.670600  1
  N  N329  1  0.849100  0.288800  0.097500  1
  N  N330  1  0.150900  0.711200  0.902500  1
  N  N331  1  0.904400  0.210600  0.213700  1
  N  N332  1  0.095600  0.789400  0.786300  1
  N  N333  1  0.766000  0.400300  0.185600  1
  N  N334  1  0.234000  0.599700  0.814400  1
  N  N335  1  0.896800  0.439900  0.087500  1
  N  N336  1  0.103200  0.560100  0.912500  1
  N  N337  1  0.188400  0.985600  0.118100  1
  N  N338  1  0.811600  0.014400  0.881900  1
  N  N339  1  0.182200  0.985600  0.234000  1
  N  N340  1  0.817800  0.014400  0.766000  1
  N  N341  1  0.339200  0.074100  0.097900  1
  N  N342  1  0.660800  0.925900  0.902100  1
  N  N343  1  0.379700  0.910100  0.177600  1
  N  N344  1  0.620300  0.089900  0.822400  1
  N  N345  1  0.542700  0.091200  0.274500  1
  N  N346  1  0.457300  0.908800  0.725500  1
  N  N347  1  0.409500  0.264700  0.214900  1
  N  N348  1  0.590500  0.735300  0.785100  1
  N  N349  1  0.457700  0.239500  0.339500  1
  N  N350  1  0.542300  0.760500  0.660500  1
  N  N351  1  0.415600  0.073500  0.367400  1
  N  N352  1  0.584400  0.926500  0.632600  1
  F  F353  1  0.406100  0.602000  0.124440  1
  F  F354  1  0.593900  0.398000  0.875560  1
  F  F355  1  0.486700  0.675200  0.050620  1
  F  F356  1  0.513300  0.324800  0.949380  1
  F  F357  1  0.339200  0.757800  0.996420  1
  F  F358  1  0.660800  0.242200  0.003580  1
  F  F359  1  0.260200  0.683000  0.069330  1
  F  F360  1  0.739800  0.317000  0.930670  1
  F  F361  1  0.408000  0.587800  0.024470  1
  F  F362  1  0.592000  0.412200  0.975530  1
  F  F363  1  0.338800  0.769900  0.095910  1
  F  F364  1  0.661200  0.230100  0.904090  1
  F  F365  1  0.492500  0.647000  0.456570  1
  F  F366  1  0.507500  0.353000  0.543430  1
  F  F367  1  0.486100  0.583400  0.375730  1
  F  F368  1  0.513900  0.416600  0.624270  1
  F  F369  1  0.316800  0.683800  0.366480  1
  F  F370  1  0.683200  0.316200  0.633520  1
  F  F371  1  0.322000  0.747300  0.448460  1
  F  F372  1  0.678000  0.252700  0.551540  1
  F  F373  1  0.378900  0.579500  0.457440  1
  F  F374  1  0.621100  0.420500  0.542560  1
  F  F375  1  0.426700  0.751500  0.366460  1
  F  F376  1  0.573300  0.248500  0.633540  1
  F  F377  1  0.932800  0.790900  0.093590  1
  F  F378  1  0.067200  0.209100  0.906410  1
  F  F379  1  0.900700  0.811200  0.192470  1
  F  F380  1  0.099300  0.188800  0.807530  1
  F  F381  1  0.831700  0.944900  0.115600  1
  F  F382  1  0.168300  0.055100  0.884400  1
  F  F383  1  0.729700  0.882400  0.174310  1
  F  F384  1  0.270300  0.117600  0.825690  1
  F  F385  1  0.763600  0.860100  0.075520  1
  F  F386  1  0.236400  0.139900  0.924480  1
  F  F387  1  0.830500  0.728300  0.153970  1
  F  F388  1  0.169500  0.271700  0.846030  1
  F  F389  1  0.830100  0.828000  0.488640  1
  F  F390  1  0.169900  0.172000  0.511360  1
  F  F391  1  0.767100  0.932600  0.399300  1
  F  F392  1  0.232900  0.067400  0.600700  1
  F  F393  1  0.896500  0.826400  0.348100  1
  F  F394  1  0.103500  0.173600  0.651900  1
  F  F395  1  0.959900  0.723700  0.438500  1
  F  F396  1  0.040100  0.276300  0.561500  1
  F  F397  1  0.929800  0.886900  0.422820  1
  F  F398  1  0.070200  0.113100  0.577180  1
  F  F399  1  0.793400  0.770900  0.414500  1
  F  F400  1  0.206600  0.229100  0.585500  1
