# generated using pymatgen
data_FePH17C20N5F6
_symmetry_space_group_name_H-M   'P 1'
_cell_length_a   14.47040000
_cell_length_b   15.16510000
_cell_length_c   22.53600000
_cell_angle_alpha   77.32600000
_cell_angle_beta   83.31700000
_cell_angle_gamma   63.70900000
_symmetry_Int_Tables_number   1
_chemical_formula_structural   FePH17C20N5F6
_chemical_formula_sum   'Fe8 P8 H136 C160 N40 F48'
_cell_volume   4324.76483033
_cell_formula_units_Z   8
loop_
 _symmetry_equiv_pos_site_id
 _symmetry_equiv_pos_as_xyz
  1  'x, y, z'
loop_
 _atom_site_type_symbol
 _atom_site_label
 _atom_site_symmetry_multiplicity
 _atom_site_fract_x
 _atom_site_fract_y
 _atom_site_fract_z
 _atom_site_occupancy
  Fe  Fe1  1  0.039490  0.434190  0.321410  1
  Fe  Fe2  1  0.960510  0.565810  0.678590  1
  Fe  Fe3  1  0.920270  0.336720  0.154930  1
  Fe  Fe4  1  0.079730  0.663280  0.845070  1
  Fe  Fe5  1  0.261600  0.034960  0.165840  1
  Fe  Fe6  1  0.738400  0.965040  0.834160  1
  Fe  Fe7  1  0.398950  0.177080  0.295150  1
  Fe  Fe8  1  0.601050  0.822920  0.704850  1
  P  P9  1  0.385810  0.673660  0.062920  1
  P  P10  1  0.614190  0.326340  0.937080  1
  P  P11  1  0.408810  0.662150  0.414460  1
  P  P12  1  0.591190  0.337850  0.585540  1
  P  P13  1  0.842790  0.826810  0.131180  1
  P  P14  1  0.157210  0.173190  0.868820  1
  P  P15  1  0.869780  0.830700  0.419060  1
  P  P16  1  0.130220  0.169300  0.580940  1
  H  H17  1  0.055100  0.383300  0.461900  1
  H  H18  1  0.944900  0.616700  0.538100  1
  H  H19  1  0.142100  0.403100  0.531800  1
  H  H20  1  0.857900  0.596900  0.468200  1
  H  H21  1  0.231500  0.500300  0.502400  1
  H  H22  1  0.768500  0.499700  0.497600  1
  H  H23  1  0.231700  0.574500  0.401300  1
  H  H24  1  0.768300  0.425500  0.598700  1
  H  H25  1  0.240800  0.624500  0.301700  1
  H  H26  1  0.759200  0.375500  0.698300  1
  H  H27  1  0.236200  0.674900  0.196600  1
  H  H28  1  0.763800  0.325100  0.803400  1
  H  H29  1  0.134400  0.639600  0.142000  1
  H  H30  1  0.865600  0.360400  0.858000  1
  H  H31  1  0.053000  0.545100  0.190700  1
  H  H32  1  0.947000  0.454900  0.809300  1
  H  H33  1  0.092900  0.217300  0.383800  1
  H  H34  1  0.907100  0.782700  0.616200  1
  H  H35  1  0.010700  0.131200  0.443000  1
  H  H36  1  0.989300  0.868800  0.557000  1
  H  H37  1  0.839200  0.213900  0.467900  1
  H  H38  1  0.160800  0.786100  0.532100  1
  H  H39  1  0.751900  0.385300  0.431600  1
  H  H40  1  0.248100  0.614700  0.568400  1
  H  H41  1  0.681600  0.547800  0.390900  1
  H  H42  1  0.318400  0.452200  0.609100  1
  H  H43  1  0.621600  0.711500  0.342400  1
  H  H44  1  0.378400  0.288500  0.657600  1
  H  H45  1  0.734400  0.769000  0.286400  1
  H  H46  1  0.265600  0.231000  0.713600  1
  H  H47  1  0.908500  0.658900  0.280300  1
  H  H48  1  0.091500  0.341100  0.719700  1
  H  H49  1  0.822000  0.173300  0.094400  1
  H  H50  1  0.178000  0.826700  0.905600  1
  H  H51  1  0.937600  0.155400  0.093100  1
  H  H52  1  0.062400  0.844600  0.906900  1
  H  H53  1  0.843100  0.036000  0.184600  1
  H  H54  1  0.156900  0.964000  0.815400  1
  H  H55  1  0.862500  0.988500  0.288900  1
  H  H56  1  0.137500  0.011500  0.711100  1
  H  H57  1  0.908900  0.074100  0.342100  1
  H  H58  1  0.091100  0.925900  0.657900  1
  H  H59  1  0.930600  0.212800  0.290500  1
  H  H60  1  0.069400  0.787200  0.709500  1
  H  H61  1  0.689300  0.318200  0.097400  1
  H  H62  1  0.310700  0.681800  0.902600  1
  H  H63  1  0.699500  0.417900  0.070100  1
  H  H64  1  0.300500  0.582100  0.929900  1
  H  H65  1  0.551700  0.389400  0.172200  1
  H  H66  1  0.448300  0.610600  0.827800  1
  H  H67  1  0.508100  0.444800  0.264500  1
  H  H68  1  0.491900  0.555200  0.735500  1
  H  H69  1  0.622300  0.481600  0.306000  1
  H  H70  1  0.377700  0.518400  0.694000  1
  H  H71  1  0.778200  0.455700  0.258400  1
  H  H72  1  0.221800  0.544300  0.741600  1
  H  H73  1  0.941400  0.280100  0.023900  1
  H  H74  1  0.058600  0.719900  0.976100  1
  H  H75  1  0.827000  0.330100  0.002000  1
  H  H76  1  0.173000  0.669900  0.998000  1
  H  H77  1  0.833900  0.480200  0.934400  1
  H  H78  1  0.166100  0.519800  0.065600  1
  H  H79  1  0.846900  0.628800  0.926500  1
  H  H80  1  0.153100  0.371200  0.073500  1
  H  H81  1  0.877200  0.670200  0.011600  1
  H  H82  1  0.122800  0.329800  0.988400  1
  H  H83  1  0.900300  0.560500  0.104900  1
  H  H84  1  0.099700  0.439500  0.895100  1
  H  H85  1  0.236600  0.023700  0.033500  1
  H  H86  1  0.763400  0.976300  0.966500  1
  H  H87  1  0.149100  0.963800  0.987400  1
  H  H88  1  0.850900  0.036200  0.012600  1
  H  H89  1  0.053100  0.887700  0.044700  1
  H  H90  1  0.946900  0.112300  0.955300  1
  H  H91  1  0.049400  0.869000  0.148900  1
  H  H92  1  0.950600  0.131000  0.851100  1
  H  H93  1  0.074500  0.837600  0.250700  1
  H  H94  1  0.925500  0.162400  0.749300  1
  H  H95  1  0.094600  0.830500  0.352600  1
  H  H96  1  0.905400  0.169500  0.647400  1
  H  H97  1  0.167200  0.925400  0.378500  1
  H  H98  1  0.832800  0.074600  0.621500  1
  H  H99  1  0.222400  0.019300  0.302700  1
  H  H100  1  0.777600  0.980700  0.697300  1
  H  H101  1  0.256100  0.202800  0.060100  1
  H  H102  1  0.743900  0.797200  0.939900  1
  H  H103  1  0.375000  0.241300  0.997900  1
  H  H104  1  0.625000  0.758700  0.002100  1
  H  H105  1  0.547900  0.127900  0.003200  1
  H  H106  1  0.452100  0.872100  0.996800  1
  H  H107  1  0.594700  0.972800  0.067000  1
  H  H108  1  0.405300  0.027200  0.933000  1
  H  H109  1  0.617700  0.819000  0.117400  1
  H  H110  1  0.382300  0.181000  0.882600  1
  H  H111  1  0.634600  0.675900  0.186100  1
  H  H112  1  0.365400  0.324100  0.813900  1
  H  H113  1  0.498800  0.675600  0.249000  1
  H  H114  1  0.501200  0.324400  0.751000  1
  H  H115  1  0.348900  0.821100  0.245400  1
  H  H116  1  0.651100  0.178900  0.754600  1
  H  H117  1  0.529400  0.057600  0.195100  1
  H  H118  1  0.470600  0.942400  0.804900  1
  H  H119  1  0.626900  0.077200  0.196800  1
  H  H120  1  0.373100  0.922800  0.803200  1
  H  H121  1  0.567700  0.214500  0.100000  1
  H  H122  1  0.432300  0.785500  0.900000  1
  H  H123  1  0.458500  0.379000  0.061700  1
  H  H124  1  0.541500  0.621000  0.938300  1
  H  H125  1  0.327600  0.469200  0.123500  1
  H  H126  1  0.672400  0.530800  0.876500  1
  H  H127  1  0.301500  0.392400  0.218800  1
  H  H128  1  0.698500  0.607600  0.781200  1
  H  H129  1  0.648200  0.144900  0.265600  1
  H  H130  1  0.351800  0.855100  0.734400  1
  H  H131  1  0.671200  0.057400  0.322100  1
  H  H132  1  0.328800  0.942600  0.677900  1
  H  H133  1  0.690400  0.181900  0.375000  1
  H  H134  1  0.309600  0.818100  0.625000  1
  H  H135  1  0.604600  0.308600  0.430500  1
  H  H136  1  0.395400  0.691400  0.569500  1
  H  H137  1  0.425000  0.385000  0.430100  1
  H  H138  1  0.575000  0.615000  0.569900  1
  H  H139  1  0.339400  0.337700  0.374300  1
  H  H140  1  0.660600  0.662300  0.625700  1
  H  H141  1  0.632500  0.940600  0.314200  1
  H  H142  1  0.367500  0.059400  0.685800  1
  H  H143  1  0.536400  0.954500  0.280600  1
  H  H144  1  0.463600  0.045500  0.719400  1
  H  H145  1  0.587700  0.848500  0.412300  1
  H  H146  1  0.412300  0.151500  0.587700  1
  H  H147  1  0.480900  0.859700  0.498400  1
  H  H148  1  0.519100  0.140300  0.501600  1
  H  H149  1  0.333333  0.008300  0.500700  1
  H  H150  1  0.666667  0.991700  0.499300  1
  H  H151  1  0.297300  0.138100  0.420700  1
  H  H152  1  0.702700  0.861900  0.579300  1
  C  C153  1  0.999000  0.409300  0.252700  1
  C  C154  1  0.001000  0.590700  0.747300  1
  C  C155  1  0.143300  0.160700  0.146700  1
  C  C156  1  0.856700  0.839300  0.853300  1
  C  C157  1  0.312900  0.085900  0.217100  1
  C  C158  1  0.687100  0.914100  0.782900  1
  C  C159  1  0.174300  0.327100  0.315700  1
  C  C160  1  0.825700  0.672900  0.684300  1
  C  C161  1  0.092400  0.421000  0.449100  1
  C  C162  1  0.907600  0.579000  0.550900  1
  C  C163  1  0.143400  0.433400  0.491300  1
  C  C164  1  0.856600  0.566600  0.508700  1
  C  C165  1  0.196700  0.490800  0.474000  1
  C  C166  1  0.803300  0.509200  0.526000  1
  C  C167  1  0.197500  0.533900  0.413900  1
  C  C168  1  0.802500  0.466100  0.586100  1
  C  C169  1  0.148100  0.517100  0.372700  1
  C  C170  1  0.851900  0.482900  0.627300  1
  C  C171  1  0.149000  0.553400  0.306400  1
  C  C172  1  0.851000  0.446600  0.693600  1
  C  C173  1  0.203000  0.608700  0.278700  1
  C  C174  1  0.797000  0.391300  0.721300  1
  C  C175  1  0.199400  0.639400  0.216400  1
  C  C176  1  0.800600  0.360600  0.783600  1
  C  C177  1  0.140400  0.616900  0.183900  1
  C  C178  1  0.859600  0.383100  0.816100  1
  C  C179  1  0.091100  0.561100  0.213400  1
  C  C180  1  0.908900  0.438900  0.786600  1
  C  C181  1  0.023800  0.252200  0.394100  1
  C  C182  1  0.976200  0.747800  0.605900  1
  C  C183  1  0.975000  0.199700  0.429200  1
  C  C184  1  0.025000  0.800300  0.570800  1
  C  C185  1  0.873500  0.248700  0.443700  1
  C  C186  1  0.126500  0.751300  0.556300  1
  C  C187  1  0.821500  0.350500  0.422400  1
  C  C188  1  0.178500  0.649500  0.577600  1
  C  C189  1  0.876600  0.399600  0.386700  1
  C  C190  1  0.123400  0.600400  0.613300  1
  C  C191  1  0.828900  0.507300  0.362200  1
  C  C192  1  0.171100  0.492700  0.637800  1
  C  C193  1  0.726500  0.571200  0.367700  1
  C  C194  1  0.273500  0.428800  0.632300  1
  C  C195  1  0.691000  0.668300  0.339300  1
  C  C196  1  0.309000  0.331700  0.660700  1
  C  C197  1  0.757800  0.702500  0.306200  1
  C  C198  1  0.242200  0.297500  0.693800  1
  C  C199  1  0.862700  0.635600  0.302500  1
  C  C200  1  0.137300  0.364400  0.697500  1
  C  C201  1  0.869800  0.190300  0.110700  1
  C  C202  1  0.130200  0.809700  0.889300  1
  C  C203  1  0.873100  0.157300  0.177200  1
  C  C204  1  0.126900  0.842700  0.822800  1
  C  C205  1  0.859900  0.072300  0.206300  1
  C  C206  1  0.140100  0.927700  0.793700  1
  C  C207  1  0.872700  0.043900  0.268400  1
  C  C208  1  0.127300  0.956100  0.731600  1
  C  C209  1  0.899700  0.094400  0.300300  1
  C  C210  1  0.100300  0.905600  0.699700  1
  C  C211  1  0.913200  0.176700  0.269100  1
  C  C212  1  0.086800  0.823300  0.730900  1
  C  C213  1  0.723600  0.358700  0.101900  1
  C  C214  1  0.276400  0.641300  0.898100  1
  C  C215  1  0.693100  0.390500  0.163100  1
  C  C216  1  0.306900  0.609500  0.836900  1
  C  C217  1  0.597000  0.403200  0.190500  1
  C  C218  1  0.403000  0.596800  0.809500  1
  C  C219  1  0.570900  0.436700  0.245000  1
  C  C220  1  0.429100  0.563300  0.755000  1
  C  C221  1  0.638800  0.457600  0.269800  1
  C  C222  1  0.361200  0.542400  0.730200  1
  C  C223  1  0.731900  0.442600  0.240600  1
  C  C224  1  0.268100  0.557400  0.759400  1
  C  C225  1  0.872000  0.329000  0.031200  1
  C  C226  1  0.128000  0.671000  0.968800  1
  C  C227  1  0.870300  0.430300  0.023300  1
  C  C228  1  0.129700  0.569700  0.976700  1
  C  C229  1  0.850500  0.496200  0.968000  1
  C  C230  1  0.149500  0.503800  0.032000  1
  C  C231  1  0.855900  0.585200  0.963700  1
  C  C232  1  0.144100  0.414800  0.036300  1
  C  C233  1  0.874500  0.609300  0.014100  1
  C  C234  1  0.125500  0.390700  0.985900  1
  C  C235  1  0.889600  0.542500  0.070300  1
  C  C236  1  0.110400  0.457500  0.929700  1
  C  C237  1  0.199200  0.991900  0.057300  1
  C  C238  1  0.800800  0.008100  0.942700  1
  C  C239  1  0.146300  0.956500  0.029600  1
  C  C240  1  0.853700  0.043500  0.970400  1
  C  C241  1  0.089700  0.910900  0.063400  1
  C  C242  1  0.910300  0.089100  0.936600  1
  C  C243  1  0.087600  0.899900  0.125100  1
  C  C244  1  0.912400  0.100100  0.874900  1
  C  C245  1  0.142200  0.934600  0.152200  1
  C  C246  1  0.857800  0.065400  0.847800  1
  C  C247  1  0.143500  0.930200  0.217000  1
  C  C248  1  0.856500  0.069800  0.783000  1
  C  C249  1  0.106200  0.873100  0.261700  1
  C  C250  1  0.893800  0.126900  0.738300  1
  C  C251  1  0.117000  0.869900  0.322500  1
  C  C252  1  0.883000  0.130100  0.677500  1
  C  C253  1  0.160800  0.925200  0.337900  1
  C  C254  1  0.839200  0.074800  0.662100  1
  C  C255  1  0.194800  0.980300  0.292000  1
  C  C256  1  0.805200  0.019700  0.708000  1
  C  C257  1  0.324800  0.156000  0.061600  1
  C  C258  1  0.675200  0.844000  0.938400  1
  C  C259  1  0.395800  0.179900  0.024500  1
  C  C260  1  0.604200  0.820100  0.975500  1
  C  C261  1  0.498300  0.112000  0.026900  1
  C  C262  1  0.501700  0.888000  0.973100  1
  C  C263  1  0.526200  0.020000  0.065200  1
  C  C264  1  0.473800  0.980000  0.934800  1
  C  C265  1  0.452000  0.998700  0.100600  1
  C  C266  1  0.548000  0.001300  0.899400  1
  C  C267  1  0.470300  0.903900  0.141700  1
  C  C268  1  0.529700  0.096100  0.858300  1
  C  C269  1  0.563100  0.818400  0.143500  1
  C  C270  1  0.436900  0.181600  0.856500  1
  C  C271  1  0.572900  0.733500  0.184200  1
  C  C272  1  0.427100  0.266500  0.815800  1
  C  C273  1  0.493300  0.733300  0.221600  1
  C  C274  1  0.506700  0.266700  0.778400  1
  C  C275  1  0.402800  0.820800  0.218400  1
  C  C276  1  0.597200  0.179200  0.781600  1
  C  C277  1  0.554900  0.098500  0.209200  1
  C  C278  1  0.445100  0.901500  0.790800  1
  C  C279  1  0.493800  0.207300  0.181400  1
  C  C280  1  0.506200  0.792700  0.818600  1
  C  C281  1  0.512400  0.251100  0.123500  1
  C  C282  1  0.487600  0.748900  0.876500  1
  C  C283  1  0.448600  0.349000  0.101100  1
  C  C284  1  0.551400  0.651000  0.898900  1
  C  C285  1  0.370300  0.402000  0.137400  1
  C  C286  1  0.629700  0.598000  0.862600  1
  C  C287  1  0.355100  0.355600  0.194500  1
  C  C288  1  0.644900  0.644400  0.805500  1
  C  C289  1  0.616700  0.116200  0.299900  1
  C  C290  1  0.383300  0.883800  0.700100  1
  C  C291  1  0.562800  0.191400  0.340900  1
  C  C292  1  0.437200  0.808600  0.659100  1
  C  C293  1  0.618900  0.215600  0.374900  1
  C  C294  1  0.381100  0.784400  0.625100  1
  C  C295  1  0.568500  0.289600  0.408300  1
  C  C296  1  0.431500  0.710400  0.591700  1
  C  C297  1  0.462000  0.334900  0.407700  1
  C  C298  1  0.538000  0.665100  0.592300  1
  C  C299  1  0.411100  0.306000  0.374100  1
  C  C300  1  0.588900  0.694000  0.625900  1
  C  C301  1  0.559800  0.982900  0.306900  1
  C  C302  1  0.440200  0.017100  0.693100  1
  C  C303  1  0.500100  0.986400  0.366000  1
  C  C304  1  0.499900  0.013600  0.634000  1
  C  C305  1  0.527300  0.906500  0.414400  1
  C  C306  1  0.472700  0.093500  0.585600  1
  C  C307  1  0.464800  0.913000  0.465600  1
  C  C308  1  0.535200  0.087000  0.534400  1
  C  C309  1  0.377400  0.001400  0.466700  1
  C  C310  1  0.622600  0.998600  0.533300  1
  C  C311  1  0.355500  0.078500  0.418400  1
  C  C312  1  0.644500  0.921500  0.581600  1
  N  N313  1  0.970000  0.392900  0.212100  1
  N  N314  1  0.030000  0.607100  0.787900  1
  N  N315  1  0.069400  0.233000  0.134300  1
  N  N316  1  0.930600  0.767000  0.865700  1
  N  N317  1  0.346400  0.115400  0.249000  1
  N  N318  1  0.653600  0.884600  0.751000  1
  N  N319  1  0.259200  0.268900  0.311700  1
  N  N320  1  0.740800  0.731100  0.688300  1
  N  N321  1  0.093600  0.460700  0.390000  1
  N  N322  1  0.906400  0.539300  0.610000  1
  N  N323  1  0.094600  0.527700  0.274400  1
  N  N324  1  0.905400  0.472300  0.725600  1
  N  N325  1  0.977800  0.351700  0.373400  1
  N  N326  1  0.022200  0.648300  0.626600  1
  N  N327  1  0.898100  0.539400  0.330000  1
  N  N328  1  0.101900  0.460600  0.670000  1
  N  N329  1  0.837200  0.300300  0.093600  1
  N  N330  1  0.162800  0.699700  0.906400  1
  N  N331  1  0.901900  0.206800  0.208300  1
  N  N332  1  0.098100  0.793200  0.791700  1
  N  N333  1  0.759200  0.410200  0.187700  1
  N  N334  1  0.240800  0.589800  0.812300  1
  N  N335  1  0.888700  0.453200  0.074500  1
  N  N336  1  0.111300  0.546800  0.925500  1
  N  N337  1  0.198000  0.981600  0.118400  1
  N  N338  1  0.802000  0.018400  0.881600  1
  N  N339  1  0.190800  0.981700  0.233100  1
  N  N340  1  0.809200  0.018300  0.766900  1
  N  N341  1  0.350700  0.067400  0.099900  1
  N  N342  1  0.649300  0.932600  0.900100  1
  N  N343  1  0.389200  0.905000  0.178300  1
  N  N344  1  0.610800  0.095000  0.821700  1
  N  N345  1  0.544800  0.085600  0.276900  1
  N  N346  1  0.455200  0.914400  0.723100  1
  N  N347  1  0.414500  0.259200  0.216900  1
  N  N348  1  0.585500  0.740800  0.783100  1
  N  N349  1  0.459600  0.234200  0.341100  1
  N  N350  1  0.540400  0.765800  0.658900  1
  N  N351  1  0.414000  0.072300  0.367700  1
  N  N352  1  0.586000  0.927700  0.632300  1
  F  F353  1  0.420000  0.601600  0.126700  1
  F  F354  1  0.580000  0.398400  0.873300  1
  F  F355  1  0.497300  0.666667  0.048500  1
  F  F356  1  0.502700  0.333333  0.951500  1
  F  F357  1  0.348900  0.746800  0.998500  1
  F  F358  1  0.651100  0.253200  0.001500  1
  F  F359  1  0.271700  0.682700  0.075700  1
  F  F360  1  0.728300  0.317300  0.924300  1
  F  F361  1  0.413200  0.581900  0.031000  1
  F  F362  1  0.586800  0.418100  0.969000  1
  F  F363  1  0.355900  0.767000  0.093200  1
  F  F364  1  0.644100  0.233000  0.906800  1
  F  F365  1  0.495600  0.646400  0.456900  1
  F  F366  1  0.504400  0.353600  0.543100  1
  F  F367  1  0.327800  0.747500  0.447400  1
  F  F368  1  0.672200  0.252500  0.552600  1
  F  F369  1  0.321400  0.680000  0.370400  1
  F  F370  1  0.678600  0.320000  0.629600  1
  F  F371  1  0.489000  0.577000  0.382100  1
  F  F372  1  0.511000  0.423000  0.617900  1
  F  F373  1  0.380600  0.582700  0.461000  1
  F  F374  1  0.619400  0.417300  0.539000  1
  F  F375  1  0.434600  0.742000  0.367200  1
  F  F376  1  0.565400  0.258000  0.632800  1
  F  F377  1  0.777000  0.845300  0.073400  1
  F  F378  1  0.223000  0.154700  0.926600  1
  F  F379  1  0.739600  0.876700  0.168900  1
  F  F380  1  0.260400  0.123300  0.831100  1
  F  F381  1  0.908500  0.807800  0.188500  1
  F  F382  1  0.091500  0.192200  0.811500  1
  F  F383  1  0.943900  0.780300  0.092900  1
  F  F384  1  0.056100  0.219700  0.907100  1
  F  F385  1  0.840700  0.722700  0.153900  1
  F  F386  1  0.159300  0.277300  0.846100  1
  F  F387  1  0.840900  0.935000  0.110900  1
  F  F388  1  0.159100  0.065000  0.889100  1
  F  F389  1  0.900300  0.830500  0.349900  1
  F  F390  1  0.099700  0.169500  0.650100  1
  F  F391  1  0.959200  0.726900  0.437400  1
  F  F392  1  0.040800  0.273100  0.562600  1
  F  F393  1  0.838300  0.830800  0.487800  1
  F  F394  1  0.161700  0.169200  0.512200  1
  F  F395  1  0.778200  0.938700  0.402300  1
  F  F396  1  0.221800  0.061300  0.597700  1
  F  F397  1  0.792100  0.785200  0.416000  1
  F  F398  1  0.207900  0.214800  0.584000  1
  F  F399  1  0.941100  0.882700  0.423400  1
  F  F400  1  0.058900  0.117300  0.576600  1
