# generated using pymatgen
data_Pd6C72N31O21
_symmetry_space_group_name_H-M   'P 1'
_cell_length_a   19.10500000
_cell_length_b   19.16100000
_cell_length_c   22.16400000
_cell_angle_alpha   109.53000000
_cell_angle_beta   107.38000000
_cell_angle_gamma   97.19000000
_symmetry_Int_Tables_number   1
_chemical_formula_structural   Pd6C72N31O21
_chemical_formula_sum   'Pd12 C144 N62 O42'
_cell_volume   7065.61155868
_cell_formula_units_Z   2
loop_
 _symmetry_equiv_pos_site_id
 _symmetry_equiv_pos_as_xyz
  1  'x, y, z'
loop_
 _atom_site_type_symbol
 _atom_site_label
 _atom_site_symmetry_multiplicity
 _atom_site_fract_x
 _atom_site_fract_y
 _atom_site_fract_z
 _atom_site_occupancy
  Pd  Pd1  1  0.326300  0.849900  0.716600  1.0
  Pd  Pd2  1  0.673700  0.150100  0.283400  1.0
  Pd  Pd3  1  0.291800  0.236400  0.497000  1.0
  Pd  Pd4  1  0.708200  0.763600  0.503000  1.0
  Pd  Pd5  1  0.693800  0.547300  0.719600  1.0
  Pd  Pd6  1  0.306200  0.452700  0.280400  1.0
  Pd  Pd7  1  0.917100  0.836000  0.287600  1.0
  Pd  Pd8  1  0.082900  0.164000  0.712400  1.0
  Pd  Pd9  1  0.817200  0.924300  0.849600  1.0
  Pd  Pd10  1  0.182800  0.075700  0.150400  1.0
  Pd  Pd11  1  0.565800  0.685700  0.151700  1.0
  Pd  Pd12  1  0.434200  0.314300  0.848300  1.0
  C  C13  1  0.191000  0.848000  0.662000  1.0
  C  C14  1  0.809000  0.152000  0.338000  1.0
  C  C15  1  0.118000  0.834000  0.624000  1.0
  C  C16  1  0.882000  0.166000  0.376000  1.0
  C  C17  1  0.058000  0.810000  0.653000  1.0
  C  C18  1  0.942000  0.190000  0.347000  1.0
  C  C19  1  0.084000  0.799000  0.712000  1.0
  C  C20  1  0.916000  0.201000  0.288000  1.0
  C  C21  1  0.167000  0.806000  0.737000  1.0
  C  C22  1  0.833000  0.194000  0.263000  1.0
  C  C23  1  0.976000  0.798000  0.621000  1.0
  C  C24  1  0.024000  0.202000  0.379000  1.0
  C  C25  1  0.925000  0.743000  0.617000  1.0
  C  C26  1  0.075000  0.257000  0.383000  1.0
  C  C27  1  0.950000  0.848000  0.580000  1.0
  C  C28  1  0.050000  0.152000  0.420000  1.0
  C  C29  1  0.413000  0.997000  0.854000  1.0
  C  C30  1  0.587000  0.003000  0.146000  1.0
  C  C31  1  0.463000  0.971000  0.835000  1.0
  C  C32  1  0.537000  0.029000  0.165000  1.0
  C  C33  1  0.328000  0.710000  0.662000  1.0
  C  C34  1  0.672000  0.290000  0.338000  1.0
  C  C35  1  0.316000  0.699000  0.752000  1.0
  C  C36  1  0.684000  0.301000  0.248000  1.0
  C  C37  1  0.322000  0.611000  0.720000  1.0
  C  C38  1  0.678000  0.389000  0.280000  1.0
  C  C39  1  0.315000  0.577000  0.650000  1.0
  C  C40  1  0.685000  0.423000  0.350000  1.0
  C  C41  1  0.321000  0.637000  0.627000  1.0
  C  C42  1  0.679000  0.363000  0.373000  1.0
  C  C43  1  0.309000  0.499000  0.612000  1.0
  C  C44  1  0.691000  0.501000  0.388000  1.0
  C  C45  1  0.341000  0.481000  0.565000  1.0
  C  C46  1  0.659000  0.519000  0.435000  1.0
  C  C47  1  0.272000  0.446000  0.630000  1.0
  C  C48  1  0.728000  0.554000  0.370000  1.0
  C  C49  1  0.272000  0.378000  0.600000  1.0
  C  C50  1  0.728000  0.622000  0.400000  1.0
  C  C51  1  0.334000  0.403000  0.536000  1.0
  C  C52  1  0.666000  0.597000  0.464000  1.0
  C  C53  1  0.844000  0.736000  0.575000  1.0
  C  C54  1  0.156000  0.264000  0.425000  1.0
  C  C55  1  0.370000  0.121000  0.451000  1.0
  C  C56  1  0.630000  0.879000  0.549000  1.0
  C  C57  1  0.411000  0.157000  0.530000  1.0
  C  C58  1  0.589000  0.843000  0.470000  1.0
  C  C59  1  0.868000  0.831000  0.540000  1.0
  C  C60  1  0.132000  0.169000  0.460000  1.0
  C  C61  1  0.771000  0.647000  0.848000  1.0
  C  C62  1  0.229000  0.353000  0.152000  1.0
  C  C63  1  0.818000  0.701000  0.933000  1.0
  C  C64  1  0.182000  0.299000  0.067000  1.0
  C  C65  1  0.787000  0.670000  0.963000  1.0
  C  C66  1  0.213000  0.330000  0.037000  1.0
  C  C67  1  0.736000  0.616000  0.937000  1.0
  C  C68  1  0.264000  0.384000  0.063000  1.0
  C  C69  1  0.701000  0.574000  0.856000  1.0
  C  C70  1  0.299000  0.426000  0.144000  1.0
  C  C71  1  0.817000  0.715000  0.035000  1.0
  C  C72  1  0.183000  0.285000  0.965000  1.0
  C  C73  1  0.883000  0.786000  0.087000  1.0
  C  C74  1  0.117000  0.214000  0.913000  1.0
  C  C75  1  0.900000  0.822000  0.153000  1.0
  C  C76  1  0.100000  0.178000  0.847000  1.0
  C  C77  1  0.821000  0.723000  0.152000  1.0
  C  C78  1  0.179000  0.277000  0.848000  1.0
  C  C79  1  0.788000  0.692000  0.081000  1.0
  C  C80  1  0.212000  0.308000  0.919000  1.0
  C  C81  1  0.596000  0.533000  0.592000  1.0
  C  C82  1  0.404000  0.467000  0.408000  1.0
  C  C83  1  0.552000  0.553000  0.633000  1.0
  C  C84  1  0.448000  0.447000  0.367000  1.0
  C  C85  1  0.958000  0.689000  0.285000  1.0
  C  C86  1  0.042000  0.311000  0.715000  1.0
  C  C87  1  0.834000  0.499000  0.718000  1.0
  C  C88  1  0.166000  0.501000  0.282000  1.0
  C  C89  1  0.877000  0.450000  0.710000  1.0
  C  C90  1  0.123000  0.550000  0.290000  1.0
  C  C91  1  0.867000  0.387000  0.720000  1.0
  C  C92  1  0.133000  0.613000  0.280000  1.0
  C  C93  1  0.924000  0.338000  0.714000  1.0
  C  C94  1  0.076000  0.662000  0.286000  1.0
  C  C95  1  0.931000  0.953000  0.408000  1.0
  C  C96  1  0.069000  0.047000  0.592000  1.0
  C  C97  1  0.881000  0.978000  0.364000  1.0
  C  C98  1  0.119000  0.022000  0.636000  1.0
  C  C99  1  0.058000  0.794000  0.291000  1.0
  C  C100  1  0.942000  0.206000  0.709000  1.0
  C  C101  1  0.002000  0.655000  0.282000  1.0
  C  C102  1  0.998000  0.345000  0.718000  1.0
  C  C103  1  0.760000  0.416000  0.732000  1.0
  C  C104  1  0.240000  0.584000  0.268000  1.0
  C  C105  1  0.801000  0.368000  0.727000  1.0
  C  C106  1  0.199000  0.632000  0.273000  1.0
  C  C107  1  0.896000  0.261000  0.705000  1.0
  C  C108  1  0.104000  0.739000  0.295000  1.0
  C  C109  1  0.572000  0.588000  0.222000  1.0
  C  C110  1  0.428000  0.412000  0.778000  1.0
  C  C111  1  0.599000  0.557000  0.167000  1.0
  C  C112  1  0.401000  0.443000  0.833000  1.0
  C  C113  1  0.498000  0.808000  0.218000  1.0
  C  C114  1  0.502000  0.192000  0.782000  1.0
  C  C115  1  0.656000  0.802000  0.127000  1.0
  C  C116  1  0.344000  0.198000  0.873000  1.0
  C  C117  1  0.587000  0.697000  0.030000  1.0
  C  C118  1  0.413000  0.303000  0.970000  1.0
  C  C119  1  0.683000  0.837000  0.101000  1.0
  C  C120  1  0.317000  0.163000  0.899000  1.0
  C  C121  1  0.610000  0.721000  0.993000  1.0
  C  C122  1  0.390000  0.279000  0.007000  1.0
  C  C123  1  0.670000  0.797000  0.022000  1.0
  C  C124  1  0.330000  0.203000  0.978000  1.0
  C  C125  1  0.703000  0.835000  0.985000  1.0
  C  C126  1  0.297000  0.165000  0.015000  1.0
  C  C127  1  0.662000  0.807000  0.910000  1.0
  C  C128  1  0.338000  0.193000  0.090000  1.0
  C  C129  1  0.948000  0.886000  0.827000  1.0
  C  C130  1  0.052000  0.114000  0.173000  1.0
  C  C131  1  0.908000  0.903000  0.765000  1.0
  C  C132  1  0.092000  0.097000  0.235000  1.0
  C  C133  1  0.804000  0.910000  0.977000  1.0
  C  C134  1  0.196000  0.090000  0.023000  1.0
  C  C135  1  0.770000  0.883000  0.017000  1.0
  C  C136  1  0.230000  0.117000  0.983000  1.0
  C  C137  1  0.450000  0.853000  0.216000  1.0
  C  C138  1  0.550000  0.147000  0.784000  1.0
  C  C139  1  0.405000  0.856000  0.153000  1.0
  C  C140  1  0.595000  0.144000  0.847000  1.0
  C  C141  1  0.394000  0.802000  0.099000  1.0
  C  C142  1  0.606000  0.198000  0.901000  1.0
  C  C143  1  0.451000  0.751000  0.098000  1.0
  C  C144  1  0.549000  0.249000  0.902000  1.0
  C  C145  1  0.355000  0.911000  0.154000  1.0
  C  C146  1  0.645000  0.089000  0.846000  1.0
  C  C147  1  0.362000  0.976000  0.207000  1.0
  C  C148  1  0.638000  0.024000  0.793000  1.0
  C  C149  1  0.283000  0.894000  0.100000  1.0
  C  C150  1  0.717000  0.106000  0.900000  1.0
  C  C151  1  0.680000  0.976000  0.786000  1.0
  C  C152  1  0.320000  0.024000  0.214000  1.0
  C  C153  1  0.761000  0.063000  0.895000  1.0
  C  C154  1  0.239000  0.937000  0.105000  1.0
  C  C155  1  0.698000  0.842000  0.875000  1.0
  C  C156  1  0.302000  0.158000  0.125000  1.0
  N  N157  1  0.709000  0.783000  0.675000  1
  N  N158  1  0.291000  0.217000  0.325000  1
  N  N159  1  0.385000  0.518000  0.003000  1
  N  N160  1  0.615000  0.482000  0.997000  1
  N  N161  1  0.991000  0.106000  0.951000  1
  N  N162  1  0.009000  0.894000  0.049000  1
  N  N163  1  0.811000  0.526000  0.570000  1
  N  N164  1  0.189000  0.474000  0.430000  1
  N  N165  1  0.551000  0.360000  0.703000  1
  N  N166  1  0.449000  0.640000  0.297000  1
  N  N167  1  0.095000  0.995000  0.775000  1
  N  N168  1  0.905000  0.005000  0.225000  1
  N  N169  1  0.520000  0.740000  0.542000  1
  N  N170  1  0.480000  0.260000  0.458000  1
  N  N171  1  0.329000  0.964000  0.807000  1.0
  N  N172  1  0.671000  0.036000  0.193000  1.0
  N  N173  1  0.443000  0.884000  0.814000  1.0
  N  N174  1  0.557000  0.116000  0.186000  1.0
  N  N175  1  0.319000  0.731000  0.714000  1.0
  N  N176  1  0.681000  0.269000  0.286000  1.0
  N  N177  1  0.214000  0.830000  0.712000  1.0
  N  N178  1  0.786000  0.170000  0.288000  1.0
  N  N179  1  0.306000  0.347000  0.549000  1.0
  N  N180  1  0.694000  0.653000  0.451000  1.0
  N  N181  1  0.284000  0.124000  0.454000  1.0
  N  N182  1  0.716000  0.876000  0.546000  1.0
  N  N183  1  0.410000  0.246000  0.544000  1.0
  N  N184  1  0.590000  0.754000  0.456000  1.0
  N  N185  1  0.184000  0.220000  0.450000  1.0
  N  N186  1  0.816000  0.780000  0.550000  1.0
  N  N187  1  0.732000  0.598000  0.828000  1.0
  N  N188  1  0.268000  0.402000  0.172000  1.0
  N  N189  1  0.867000  0.790000  0.182000  1.0
  N  N190  1  0.133000  0.210000  0.818000  1.0
  N  N191  1  0.649000  0.494000  0.618000  1.0
  N  N192  1  0.351000  0.506000  0.382000  1.0
  N  N193  1  0.609000  0.600000  0.704000  1.0
  N  N194  1  0.391000  0.400000  0.296000  1.0
  N  N195  1  0.766000  0.484000  0.727000  1.0
  N  N196  1  0.234000  0.516000  0.273000  1.0
  N  N197  1  0.845000  0.912000  0.286000  1.0
  N  N198  1  0.155000  0.088000  0.714000  1.0
  N  N199  1  0.963000  0.886000  0.395000  1.0
  N  N200  1  0.037000  0.114000  0.605000  1.0
  N  N201  1  0.988000  0.763000  0.287000  1.0
  N  N202  1  0.012000  0.237000  0.713000  1.0
  N  N203  1  0.499000  0.755000  0.153000  1.0
  N  N204  1  0.501000  0.245000  0.847000  1.0
  N  N205  1  0.638000  0.619000  0.154000  1.0
  N  N206  1  0.362000  0.381000  0.846000  1.0
  N  N207  1  0.605000  0.730000  0.094000  1.0
  N  N208  1  0.395000  0.270000  0.906000  1.0
  N  N209  1  0.523000  0.636000  0.202000  1.0
  N  N210  1  0.477000  0.364000  0.798000  1.0
  N  N211  1  0.873000  0.965000  0.796000  1.0
  N  N212  1  0.127000  0.035000  0.204000  1.0
  N  N213  1  0.749000  0.998000  0.845000  1.0
  N  N214  1  0.251000  0.002000  0.155000  1.0
  N  N215  1  0.770000  0.886000  0.908000  1.0
  N  N216  1  0.230000  0.114000  0.092000  1.0
  N  N217  1  0.889000  0.854000  0.846000  1.0
  N  N218  1  0.111000  0.146000  0.154000  1.0
  O  O219  1  0.707000  0.712000  0.633000  1
  O  O220  1  0.293000  0.288000  0.367000  1
  O  O221  1  0.719000  0.833000  0.679000  1
  O  O222  1  0.281000  0.167000  0.321000  1
  O  O223  1  0.688000  0.775000  0.716000  1
  O  O224  1  0.312000  0.225000  0.284000  1
  O  O225  1  0.341000  0.466000  0.964000  1
  O  O226  1  0.659000  0.534000  0.036000  1
  O  O227  1  0.448000  0.567000  0.025000  1
  O  O228  1  0.552000  0.433000  0.975000  1
  O  O229  1  0.425000  0.531000  0.079100  1
  O  O230  1  0.575000  0.469000  0.920900  1
  O  O231  1  0.985000  0.086000  0.899000  1
  O  O232  1  0.015000  0.914000  0.101000  1
  O  O233  1  0.948000  0.064000  0.963500  1
  O  O234  1  0.052000  0.936000  0.036500  1
  O  O235  1  0.030000  0.146000  0.021000  1
  O  O236  1  0.970000  0.854000  0.979000  1
  O  O237  1  0.774000  0.585000  0.602000  1
  O  O238  1  0.226000  0.415000  0.398000  1
  O  O239  1  0.760000  0.467000  0.558000  1
  O  O240  1  0.240000  0.533000  0.442000  1
  O  O241  1  0.865000  0.540000  0.536000  1
  O  O242  1  0.135000  0.460000  0.464000  1
  O  O243  1  0.509000  0.287000  0.677000  1
  O  O244  1  0.491000  0.713000  0.323000  1
  O  O245  1  0.578000  0.407000  0.721000  1
  O  O246  1  0.422000  0.593000  0.279000  1
  O  O247  1  0.575000  0.352000  0.631000  1
  O  O248  1  0.425000  0.648000  0.369000  1
  O  O249  1  0.187000  0.023000  0.795000  1
  O  O250  1  0.813000  0.977000  0.205000  1
  O  O251  1  0.054000  0.991000  0.741000  1
  O  O252  1  0.946000  0.009000  0.259000  1
  O  O253  1  0.088000  0.987000  0.838000  1
  O  O254  1  0.912000  0.013000  0.162000  1
  O  O255  1  0.507000  0.642000  0.500000  1
  O  O256  1  0.493000  0.358000  0.500000  1
  O  O257  1  0.470000  0.790000  0.580000  1
  O  O258  1  0.530000  0.210000  0.420000  1
  O  O259  1  0.453000  0.665000  0.513000  1
  O  O260  1  0.547000  0.335000  0.487000  1
