# generated using pymatgen
data_Fe2CoB2H37C54(N9O)3
_symmetry_space_group_name_H-M   'P 1'
_cell_length_a   12.55600000
_cell_length_b   14.09300000
_cell_length_c   18.15800000
_cell_angle_alpha   73.46300000
_cell_angle_beta   70.17000000
_cell_angle_gamma   85.04400000
_symmetry_Int_Tables_number   1
_chemical_formula_structural   Fe2CoB2H37C54(N9O)3
_chemical_formula_sum   'Fe4 Co2 B4 H74 C108 N54 O6'
_cell_volume   2897.35440508
_cell_formula_units_Z   2
loop_
 _symmetry_equiv_pos_site_id
 _symmetry_equiv_pos_as_xyz
  1  'x, y, z'
loop_
 _atom_site_type_symbol
 _atom_site_label
 _atom_site_symmetry_multiplicity
 _atom_site_fract_x
 _atom_site_fract_y
 _atom_site_fract_z
 _atom_site_occupancy
  Fe  Fe1  1  0.093370  0.137270  0.780540  1.0
  Fe  Fe2  1  0.906630  0.862730  0.219460  1.0
  Fe  Fe3  1  0.451050  0.265370  0.264270  1.0
  Fe  Fe4  1  0.548950  0.734630  0.735730  1.0
  Co  Co5  1  0.773490  0.165000  0.041890  1.0
  Co  Co6  1  0.226510  0.835000  0.958110  1.0
  B  B7  1  0.041900  0.177900  0.618000  1.0
  B  B8  1  0.958100  0.822100  0.382000  1.0
  B  B9  1  0.527700  0.412700  0.336400  1.0
  B  B10  1  0.472300  0.587300  0.663600  1.0
  H  H11  1  0.601000  0.147000  0.840200  1.0
  H  H12  1  0.399000  0.853000  0.159800  1.0
  H  H13  1  0.846200  0.519300  0.997700  1.0
  H  H14  1  0.153800  0.480700  0.002300  1.0
  H  H15  1  0.356400  0.096200  0.684100  1.0
  H  H16  1  0.643600  0.903800  0.315900  1.0
  H  H17  1  0.425300  0.115600  0.535200  1.0
  H  H18  1  0.574700  0.884400  0.464800  1.0
  H  H19  1  0.259500  0.164500  0.488800  1.0
  H  H20  1  0.740500  0.835500  0.511200  1.0
  H  H21  1  0.009100  0.359100  0.788700  1.0
  H  H22  1  0.990900  0.640900  0.211300  1.0
  H  H23  1  0.939600  0.476200  0.683200  1.0
  H  H24  1  0.060400  0.523800  0.316800  1.0
  H  H25  1  0.950400  0.384800  0.582500  1.0
  H  H26  1  0.049600  0.615200  0.417500  1.0
  H  H27  1  0.910100  0.952100  0.860100  1.0
  H  H28  1  0.089900  0.047900  0.139900  1.0
  H  H29  1  0.805700  0.910900  0.779200  1.0
  H  H30  1  0.194300  0.089100  0.220800  1.0
  H  H31  1  0.868300  0.030900  0.644500  1.0
  H  H32  1  0.131700  0.969100  0.355500  1.0
  H  H33  1  0.545600  0.424200  0.083700  1.0
  H  H34  1  0.454400  0.575800  0.916300  1.0
  H  H35  1  0.631600  0.584700  0.065700  1.0
  H  H36  1  0.368400  0.415300  0.934300  1.0
  H  H37  1  0.627700  0.586100  0.203400  1.0
  H  H38  1  0.372300  0.413900  0.796600  1.0
  H  H39  1  0.606400  0.096000  0.345000  1.0
  H  H40  1  0.393600  0.904000  0.655000  1.0
  H  H41  1  0.696400  0.125200  0.438300  1.0
  H  H42  1  0.303600  0.874800  0.561700  1.0
  H  H43  1  0.663200  0.300800  0.437700  1.0
  H  H44  1  0.336800  0.699200  0.562300  1.0
  H  H45  1  0.188200  0.303400  0.365500  1.0
  H  H46  1  0.811800  0.696600  0.634500  1.0
  H  H47  1  0.136800  0.414700  0.455900  1.0
  H  H48  1  0.863200  0.585300  0.544100  1.0
  H  H49  1  0.316900  0.486000  0.446600  1.0
  H  H50  1  0.683100  0.514000  0.553400  1.0
  H  H51  1  0.711500  0.906200  0.071100  1.0
  H  H52  1  0.288500  0.093800  0.928900  1.0
  H  H53  1  0.647000  0.771000  0.048800  1.0
  H  H54  1  0.353000  0.229000  0.951200  1.0
  H  H55  1  0.568100  0.790400  0.948200  1.0
  H  H56  1  0.431900  0.209600  0.051800  1.0
  H  H57  1  0.552000  0.943900  0.863600  1.0
  H  H58  1  0.448000  0.056100  0.136400  1.0
  H  H59  1  0.639400  0.334000  0.803400  1.0
  H  H60  1  0.360600  0.666000  0.196600  1.0
  H  H61  1  0.690900  0.493800  0.792000  1.0
  H  H62  1  0.309100  0.506200  0.208000  1.0
  H  H63  1  0.776300  0.522400  0.879100  1.0
  H  H64  1  0.223700  0.477600  0.120900  1.0
  H  H65  1  0.920700  0.541200  0.124200  1.0
  H  H66  1  0.079300  0.458800  0.875800  1.0
  H  H67  1  0.967000  0.442300  0.234700  1.0
  H  H68  1  0.033000  0.557700  0.765300  1.0
  H  H69  1  0.952500  0.272300  0.270700  1.0
  H  H70  1  0.047500  0.727700  0.729300  1.0
  H  H71  1  0.891800  0.191100  0.197700  1.0
  H  H72  1  0.108200  0.808900  0.802300  1.0
  H  H73  1  0.088800  0.070600  0.499300  1.0
  H  H74  1  0.911200  0.929400  0.500700  1.0
  H  H75  1  0.001700  0.132000  0.390700  1.0
  H  H76  1  0.998300  0.868000  0.609300  1.0
  H  H77  1  0.904500  0.285000  0.413600  1.0
  H  H78  1  0.095500  0.715000  0.586400  1.0
  H  H79  1  0.744200  0.461500  0.331800  1.0
  H  H80  1  0.255800  0.538500  0.668200  1.0
  H  H81  1  0.757200  0.606500  0.378300  1.0
  H  H82  1  0.242800  0.393500  0.621700  1.0
  H  H83  1  0.564100  0.661200  0.432000  1.0
  H  H84  1  0.435900  0.338800  0.568000  1.0
  C  C85  1  0.555000  0.169000  0.704100  1
  C  C86  1  0.445000  0.831000  0.295900  1
  C  C87  1  0.654000  0.236000  0.654000  1
  C  C88  1  0.346000  0.764000  0.346000  1
  C  C89  1  0.703000  0.311600  0.578100  1
  C  C90  1  0.297000  0.688400  0.421900  1
  C  C91  1  0.608000  0.142900  0.628200  1
  C  C92  1  0.392000  0.857100  0.371800  1
  C  C93  1  0.716000  0.153000  0.568000  1
  C  C94  1  0.284000  0.847000  0.432000  1
  C  C95  1  0.990800  0.146200  0.883900  1.0
  C  C96  1  0.009200  0.853800  0.116100  1.0
  C  C97  1  0.147700  0.019400  0.839600  1.0
  C  C98  1  0.852300  0.980600  0.160400  1.0
  C  C99  1  0.203000  0.209600  0.797700  1.0
  C  C100  1  0.797000  0.790400  0.202300  1.0
  C  C101  1  0.550900  0.205700  0.184700  1.0
  C  C102  1  0.449100  0.794300  0.815300  1.0
  C  C103  1  0.345500  0.287100  0.206800  1.0
  C  C104  1  0.654500  0.712900  0.793200  1.0
  C  C105  1  0.373600  0.141600  0.324600  1.0
  C  C106  1  0.626400  0.858400  0.675400  1.0
  C  C107  1  0.311400  0.113300  0.650300  1.0
  C  C108  1  0.688600  0.886700  0.349700  1.0
  C  C109  1  0.350800  0.124400  0.567600  1.0
  C  C110  1  0.649200  0.875600  0.432400  1.0
  C  C111  1  0.259300  0.150600  0.542700  1.0
  C  C112  1  0.740700  0.849400  0.457300  1.0
  C  C113  1  0.004400  0.345200  0.742200  1.0
  C  C114  1  0.995600  0.654800  0.257800  1.0
  C  C115  1  0.965000  0.411300  0.684300  1.0
  C  C116  1  0.035000  0.588700  0.315700  1.0
  C  C117  1  0.971700  0.360400  0.629300  1.0
  C  C118  1  0.028300  0.639600  0.370700  1.0
  C  C119  1  0.917000  0.985900  0.806000  1.0
  C  C120  1  0.083000  0.014100  0.194000  1.0
  C  C121  1  0.858900  0.962400  0.761800  1.0
  C  C122  1  0.141100  0.037600  0.238200  1.0
  C  C123  1  0.893900  0.028600  0.687900  1.0
  C  C124  1  0.106100  0.971400  0.312100  1.0
  C  C125  1  0.556900  0.444900  0.125400  1.0
  C  C126  1  0.443100  0.555100  0.874600  1.0
  C  C127  1  0.604100  0.534500  0.114500  1.0
  C  C128  1  0.395900  0.465500  0.885500  1.0
  C  C129  1  0.601900  0.534200  0.190500  1.0
  C  C130  1  0.398100  0.465800  0.809500  1.0
  C  C131  1  0.606300  0.156400  0.357200  1.0
  C  C132  1  0.393700  0.843600  0.642800  1.0
  C  C133  1  0.657000  0.171600  0.408800  1.0
  C  C134  1  0.343000  0.828400  0.591200  1.0
  C  C135  1  0.638100  0.267900  0.408200  1.0
  C  C136  1  0.361900  0.732100  0.591800  1.0
  C  C137  1  0.239900  0.338800  0.375100  1.0
  C  C138  1  0.760100  0.661200  0.624900  1.0
  C  C139  1  0.210400  0.401200  0.424900  1.0
  C  C140  1  0.789600  0.598800  0.575100  1.0
  C  C141  1  0.309500  0.439500  0.420300  1.0
  C  C142  1  0.690500  0.560500  0.579700  1.0
  C  C143  1  0.668700  0.007700  0.980200  1.0
  C  C144  1  0.331300  0.992300  0.019800  1.0
  C  C145  1  0.679400  0.914300  0.029900  1.0
  C  C146  1  0.320600  0.085700  0.970100  1.0
  C  C147  1  0.641200  0.834900  0.016200  1.0
  C  C148  1  0.358800  0.165100  0.983800  1.0
  C  C149  1  0.593900  0.846900  0.955100  1.0
  C  C150  1  0.406100  0.153100  0.044900  1.0
  C  C151  1  0.583400  0.937100  0.905000  1.0
  C  C152  1  0.416600  0.062900  0.095000  1.0
  C  C153  1  0.621500  0.018300  0.918000  1.0
  C  C154  1  0.378500  0.981700  0.082000  1.0
  C  C155  1  0.671000  0.164100  0.919500  1.0
  C  C156  1  0.329000  0.835900  0.080500  1.0
  C  C157  1  0.692700  0.269000  0.901300  1.0
  C  C158  1  0.307300  0.731000  0.098700  1.0
  C  C159  1  0.672700  0.346100  0.839100  1.0
  C  C160  1  0.327300  0.653900  0.160900  1.0
  C  C161  1  0.703900  0.440400  0.832700  1.0
  C  C162  1  0.296100  0.559600  0.167300  1.0
  C  C163  1  0.753800  0.458100  0.884600  1.0
  C  C164  1  0.246200  0.541900  0.115400  1.0
  C  C165  1  0.769400  0.377800  0.945100  1.0
  C  C166  1  0.230600  0.622200  0.054900  1.0
  C  C167  1  0.818600  0.377900  0.008300  1.0
  C  C168  1  0.181400  0.622100  0.991700  1.0
  C  C169  1  0.880700  0.422100  0.093100  1.0
  C  C170  1  0.119300  0.577900  0.906900  1.0
  C  C171  1  0.915700  0.471800  0.138100  1.0
  C  C172  1  0.084300  0.528200  0.861900  1.0
  C  C173  1  0.942000  0.412500  0.203200  1.0
  C  C174  1  0.058000  0.587500  0.796800  1.0
  C  C175  1  0.933200  0.309300  0.225100  1.0
  C  C176  1  0.066800  0.690700  0.774900  1.0
  C  C177  1  0.897600  0.260500  0.182600  1.0
  C  C178  1  0.102400  0.739500  0.817400  1.0
  C  C179  1  0.870200  0.319800  0.114900  1.0
  C  C180  1  0.129800  0.680200  0.885100  1.0
  C  C181  1  0.044200  0.127500  0.492700  1.0
  C  C182  1  0.955800  0.872500  0.507300  1.0
  C  C183  1  0.997700  0.160700  0.432300  1.0
  C  C184  1  0.002300  0.839300  0.567700  1.0
  C  C185  1  0.944400  0.244700  0.446200  1.0
  C  C186  1  0.055600  0.755300  0.553800  1.0
  C  C187  1  0.683200  0.499800  0.354100  1.0
  C  C188  1  0.316800  0.500200  0.645900  1.0
  C  C189  1  0.691100  0.578400  0.379800  1.0
  C  C190  1  0.308900  0.421600  0.620200  1.0
  C  C191  1  0.584300  0.608400  0.408000  1.0
  C  C192  1  0.415700  0.391600  0.592000  1.0
  N  N193  1  0.930000  0.154500  0.945700  1.0
  N  N194  1  0.070000  0.845500  0.054300  1.0
  N  N195  1  0.821000  0.050600  0.122300  1.0
  N  N196  1  0.179000  0.949400  0.877700  1.0
  N  N197  1  0.269200  0.248500  0.809300  1.0
  N  N198  1  0.730800  0.751500  0.190700  1.0
  N  N199  1  0.618100  0.178000  0.134200  1.0
  N  N200  1  0.381900  0.822000  0.865800  1.0
  N  N201  1  0.278500  0.299700  0.173400  1.0
  N  N202  1  0.721500  0.700300  0.826600  1.0
  N  N203  1  0.326600  0.067600  0.362300  1.0
  N  N204  1  0.673400  0.932400  0.637700  1.0
  N  N205  1  0.200300  0.130300  0.675500  1.0
  N  N206  1  0.799700  0.869700  0.324500  1.0
  N  N207  1  0.034600  0.260200  0.723600  1.0
  N  N208  1  0.965400  0.739800  0.276400  1.0
  N  N209  1  0.985000  0.064000  0.760900  1.0
  N  N210  1  0.015000  0.936000  0.239100  1.0
  N  N211  1  0.168700  0.153300  0.607500  1.0
  N  N212  1  0.831300  0.846700  0.392500  1.0
  N  N213  1  0.013700  0.269400  0.652300  1.0
  N  N214  1  0.986300  0.730600  0.347700  1.0
  N  N215  1  0.971000  0.090800  0.685800  1.0
  N  N216  1  0.029000  0.909200  0.314200  1.0
  N  N217  1  0.529200  0.391200  0.203000  1.0
  N  N218  1  0.470800  0.608800  0.797000  1.0
  N  N219  1  0.556700  0.238800  0.326400  1.0
  N  N220  1  0.443300  0.761200  0.673600  1.0
  N  N221  1  0.352000  0.335800  0.342600  1.0
  N  N222  1  0.648000  0.664200  0.657400  1.0
  N  N223  1  0.557500  0.448600  0.243400  1.0
  N  N224  1  0.442500  0.551400  0.756600  1.0
  N  N225  1  0.577600  0.308900  0.358800  1.0
  N  N226  1  0.422400  0.691100  0.641200  1.0
  N  N227  1  0.395400  0.398300  0.370700  1.0
  N  N228  1  0.604600  0.601700  0.629300  1.0
  N  N229  1  0.698600  0.099900  0.979500  1.0
  N  N230  1  0.301400  0.900100  0.020500  1.0
  N  N231  1  0.738400  0.286400  0.953800  1.0
  N  N232  1  0.261600  0.713600  0.046200  1.0
  N  N233  1  0.831800  0.292400  0.059600  1.0
  N  N234  1  0.168200  0.707600  0.940400  1.0
  N  N235  1  0.624600  0.118300  0.881000  1.0
  N  N236  1  0.375400  0.881700  0.119000  1.0
  N  N237  1  0.847800  0.457700  0.024800  1.0
  N  N238  1  0.152200  0.542300  0.975200  1.0
  N  N239  1  0.016900  0.188000  0.541100  1.0
  N  N240  1  0.983100  0.812000  0.458900  1.0
  N  N241  1  0.954900  0.264100  0.511600  1.0
  N  N242  1  0.045100  0.735900  0.488400  1.0
  N  N243  1  0.572700  0.484600  0.365500  1.0
  N  N244  1  0.427300  0.515400  0.634500  1.0
  N  N245  1  0.509300  0.554700  0.398300  1.0
  N  N246  1  0.490700  0.445300  0.601700  1.0
  O  O247  1  0.515600  0.212100  0.771400  1
  O  O248  1  0.484400  0.787900  0.228600  1
  O  O249  1  0.820300  0.651800  0.948700  1
  O  O250  1  0.179700  0.348200  0.051300  1
  O  O251  1  0.906900  0.755700  0.011800  1
  O  O252  1  0.093100  0.244300  0.988200  1
