# generated using pymatgen
data_Fe2CoB2H37C54(N9O)3
_symmetry_space_group_name_H-M   'P 1'
_cell_length_a   12.25200000
_cell_length_b   13.87700000
_cell_length_c   17.61200000
_cell_angle_alpha   73.15200000
_cell_angle_beta   70.43300000
_cell_angle_gamma   84.95000000
_symmetry_Int_Tables_number   1
_chemical_formula_structural   Fe2CoB2H37C54(N9O)3
_chemical_formula_sum   'Fe4 Co2 B4 H74 C108 N54 O6'
_cell_volume   2700.24198561
_cell_formula_units_Z   2
loop_
 _symmetry_equiv_pos_site_id
 _symmetry_equiv_pos_as_xyz
  1  'x, y, z'
loop_
 _atom_site_type_symbol
 _atom_site_label
 _atom_site_symmetry_multiplicity
 _atom_site_fract_x
 _atom_site_fract_y
 _atom_site_fract_z
 _atom_site_occupancy
  Fe  Fe1  1  0.891470  0.363930  0.709520  1.0
  Fe  Fe2  1  0.108530  0.636070  0.290480  1.0
  Fe  Fe3  1  0.549980  0.237570  0.253500  1.0
  Fe  Fe4  1  0.450020  0.762430  0.746500  1.0
  Co  Co5  1  0.216920  0.324600  0.470620  1.0
  Co  Co6  1  0.783080  0.675400  0.529380  1.0
  B  B7  1  0.950200  0.331100  0.873700  1.0
  B  B8  1  0.049800  0.668900  0.126300  1.0
  B  B9  1  0.484200  0.088300  0.173300  1.0
  B  B10  1  0.515800  0.911700  0.826700  1.0
  H  H11  1  0.621000  0.407400  0.814700  1.0
  H  H12  1  0.379000  0.592600  0.185300  1.0
  H  H13  1  0.557000  0.388400  0.967500  1.0
  H  H14  1  0.443000  0.611600  0.032500  1.0
  H  H15  1  0.730600  0.352100  0.009400  1.0
  H  H16  1  0.269400  0.647900  0.990600  1.0
  H  H17  1  0.089400  0.547300  0.622100  1.0
  H  H18  1  0.910600  0.452700  0.377900  1.0
  H  H19  1  0.196300  0.595600  0.702000  1.0
  H  H20  1  0.803700  0.404400  0.298000  1.0
  H  H21  1  0.133300  0.478400  0.845500  1.0
  H  H22  1  0.866700  0.521600  0.154500  1.0
  H  H23  1  0.968200  0.131100  0.712900  1.0
  H  H24  1  0.031800  0.868900  0.287100  1.0
  H  H25  1  0.045700  0.019100  0.823400  1.0
  H  H26  1  0.954300  0.980900  0.176600  1.0
  H  H27  1  0.042300  0.120900  0.920600  1.0
  H  H28  1  0.957700  0.879100  0.079400  1.0
  H  H29  1  0.387100  0.406200  0.172200  1.0
  H  H30  1  0.612900  0.593800  0.827800  1.0
  H  H31  1  0.295900  0.376100  0.073500  1.0
  H  H32  1  0.704100  0.623900  0.926500  1.0
  H  H33  1  0.336900  0.193500  0.074300  1.0
  H  H34  1  0.663100  0.806500  0.925700  1.0
  H  H35  1  0.459400  0.070800  0.438200  1.0
  H  H36  1  0.540600  0.929200  0.561800  1.0
  H  H37  1  0.376000  0.905700  0.455700  1.0
  H  H38  1  0.624000  0.094300  0.544300  1.0
  H  H39  1  0.384200  0.903600  0.314000  1.0
  H  H40  1  0.615800  0.096400  0.686000  1.0
  H  H41  1  0.817500  0.216700  0.144100  1.0
  H  H42  1  0.182500  0.783300  0.855900  1.0
  H  H43  1  0.875400  0.104000  0.049000  1.0
  H  H44  1  0.124600  0.896000  0.951000  1.0
  H  H45  1  0.697700  0.023400  0.059800  1.0
  H  H46  1  0.302300  0.976600  0.940200  1.0
  H  H47  1  0.106100  0.343400  0.302800  1.0
  H  H48  1  0.893900  0.656600  0.697200  1.0
  H  H49  1  0.033100  0.282200  0.218400  1.0
  H  H50  1  0.966900  0.717800  0.781600  1.0
  H  H51  1  0.020300  0.107400  0.239100  1.0
  H  H52  1  0.979700  0.892600  0.760900  1.0
  H  H53  1  0.063200  0.991400  0.349100  1.0
  H  H54  1  0.936800  0.008600  0.650900  1.0
  H  H55  1  0.209000  0.967900  0.621100  1.0
  H  H56  1  0.791000  0.032100  0.378900  1.0
  H  H57  1  0.290500  0.992300  0.716600  1.0
  H  H58  1  0.709500  0.007700  0.283400  1.0
  H  H59  1  0.343300  0.152700  0.711100  1.0
  H  H60  1  0.656700  0.847300  0.288900  1.0
  H  H61  1  0.458300  0.553400  0.632600  1.0
  H  H62  1  0.541700  0.446600  0.367400  1.0
  H  H63  1  0.446000  0.707600  0.540700  1.0
  H  H64  1  0.554000  0.292400  0.459300  1.0
  H  H65  1  0.360400  0.725700  0.438400  1.0
  H  H66  1  0.639600  0.274300  0.561600  1.0
  H  H67  1  0.279400  0.587500  0.426100  1.0
  H  H68  1  0.720600  0.412500  0.573900  1.0
  H  H69  1  0.893400  0.444800  0.992500  1.0
  H  H70  1  0.106600  0.555200  0.007500  1.0
  H  H71  1  0.004200  0.399700  0.099000  1.0
  H  H72  1  0.995800  0.600300  0.901000  1.0
  H  H73  1  0.109700  0.232800  0.078100  1.0
  H  H74  1  0.890300  0.767200  0.921900  1.0
  H  H75  1  0.137200  0.987000  0.488100  1.0
  H  H76  1  0.862800  0.013000  0.511900  1.0
  H  H77  1  0.391100  0.349800  0.669200  1.0
  H  H78  1  0.608900  0.650200  0.330800  1.0
  H  H79  1  0.254300  0.023700  0.181800  1.0
  H  H80  1  0.745700  0.976300  0.818200  1.0
  H  H81  1  0.257000  0.894400  0.103500  1.0
  H  H82  1  0.743000  0.105600  0.896500  1.0
  H  H83  1  0.473300  0.831000  0.064800  1.0
  H  H84  1  0.526700  0.169000  0.935200  1.0
  C  C85  1  0.415000  0.305000  0.818700  1
  C  C86  1  0.585000  0.695000  0.181300  1
  C  C87  1  0.334000  0.326700  0.887300  1
  C  C88  1  0.666000  0.673300  0.112700  1
  C  C89  1  0.270000  0.238000  0.929000  1
  C  C90  1  0.730000  0.762000  0.071000  1
  C  C91  1  0.302000  0.265000  0.856000  1
  C  C92  1  0.698000  0.735000  0.144000  1
  C  C93  1  0.320000  0.169000  0.905000  1
  C  C94  1  0.680000  0.831000  0.095000  1
  C  C95  1  0.000000  0.347700  0.609900  1.0
  C  C96  1  0.000000  0.652300  0.390100  1.0
  C  C97  1  0.842200  0.485000  0.647500  1.0
  C  C98  1  0.157800  0.515000  0.352500  1.0
  C  C99  1  0.781000  0.288700  0.699900  1.0
  C  C100  1  0.219000  0.711300  0.300100  1.0
  C  C101  1  0.439800  0.289100  0.338000  1.0
  C  C102  1  0.560200  0.710900  0.662000  1.0
  C  C103  1  0.655800  0.216500  0.314400  1.0
  C  C104  1  0.344200  0.783500  0.685600  1.0
  C  C105  1  0.621300  0.368800  0.193300  1.0
  C  C106  1  0.378700  0.631200  0.806700  1.0
  C  C107  1  0.670000  0.391500  0.848500  1.0
  C  C108  1  0.330000  0.608500  0.151500  1.0
  C  C109  1  0.633700  0.381800  0.932300  1.0
  C  C110  1  0.366300  0.618200  0.067700  1.0
  C  C111  1  0.728300  0.361200  0.954400  1.0
  C  C112  1  0.271700  0.638800  0.045600  1.0
  C  C113  1  0.079900  0.515700  0.679500  1.0
  C  C114  1  0.920100  0.484300  0.320500  1.0
  C  C115  1  0.140600  0.542700  0.722800  1.0
  C  C116  1  0.859400  0.457300  0.277200  1.0
  C  C117  1  0.105800  0.479500  0.800800  1.0
  C  C118  1  0.894200  0.520500  0.199200  1.0
  C  C119  1  0.977400  0.149400  0.758500  1.0
  C  C120  1  0.022600  0.850600  0.241500  1.0
  C  C121  1  0.020300  0.086500  0.819400  1.0
  C  C122  1  0.979700  0.913500  0.180600  1.0
  C  C123  1  0.018000  0.142500  0.872500  1.0
  C  C124  1  0.982000  0.857500  0.127500  1.0
  C  C125  1  0.389500  0.344700  0.158100  1.0
  C  C126  1  0.610500  0.655300  0.841900  1.0
  C  C127  1  0.337900  0.329200  0.104100  1.0
  C  C128  1  0.662100  0.670800  0.895900  1.0
  C  C129  1  0.361700  0.228700  0.104700  1.0
  C  C130  1  0.638300  0.771300  0.895300  1.0
  C  C131  1  0.450500  0.049200  0.394100  1.0
  C  C132  1  0.549500  0.950800  0.605900  1.0
  C  C133  1  0.404400  0.957700  0.405000  1.0
  C  C134  1  0.595600  0.042300  0.595000  1.0
  C  C135  1  0.408400  0.958000  0.327400  1.0
  C  C136  1  0.591600  0.042000  0.672600  1.0
  C  C137  1  0.765700  0.177000  0.135600  1.0
  C  C138  1  0.234300  0.823000  0.864400  1.0
  C  C139  1  0.798800  0.114000  0.082600  1.0
  C  C140  1  0.201200  0.886000  0.917400  1.0
  C  C141  1  0.702600  0.070700  0.088100  1.0
  C  C142  1  0.297400  0.929300  0.911900  1.0
  C  C143  1  0.122400  0.202400  0.377300  1.0
  C  C144  1  0.877600  0.797600  0.622700  1.0
  C  C145  1  0.096200  0.273300  0.312300  1.0
  C  C146  1  0.903800  0.726700  0.687700  1.0
  C  C147  1  0.055300  0.236700  0.262500  1.0
  C  C148  1  0.944700  0.763300  0.737500  1.0
  C  C149  1  0.045700  0.130600  0.276200  1.0
  C  C150  1  0.954300  0.869400  0.723800  1.0
  C  C151  1  0.071500  0.061600  0.340400  1.0
  C  C152  1  0.928500  0.938400  0.659600  1.0
  C  C153  1  0.111300  0.098500  0.393900  1.0
  C  C154  1  0.888700  0.901500  0.606100  1.0
  C  C155  1  0.170800  0.125000  0.489400  1.0
  C  C156  1  0.829200  0.875000  0.510600  1.0
  C  C157  1  0.214900  0.116400  0.556900  1.0
  C  C158  1  0.785100  0.883600  0.443100  1.0
  C  C159  1  0.230500  0.033500  0.617900  1.0
  C  C160  1  0.769500  0.966500  0.382100  1.0
  C  C161  1  0.278700  0.048900  0.674400  1.0
  C  C162  1  0.721300  0.951100  0.325600  1.0
  C  C163  1  0.310500  0.143500  0.671800  1.0
  C  C164  1  0.689500  0.856500  0.328200  1.0
  C  C165  1  0.292200  0.223700  0.609600  1.0
  C  C166  1  0.707800  0.776300  0.390400  1.0
  C  C167  1  0.315700  0.330100  0.590800  1.0
  C  C168  1  0.684300  0.669900  0.409200  1.0
  C  C169  1  0.374200  0.476400  0.583700  1.0
  C  C170  1  0.625800  0.523600  0.416300  1.0
  C  C171  1  0.422300  0.559700  0.591400  1.0
  C  C172  1  0.577700  0.440300  0.408600  1.0
  C  C173  1  0.414700  0.649600  0.536900  1.0
  C  C174  1  0.585300  0.350400  0.463100  1.0
  C  C175  1  0.362900  0.661000  0.475400  1.0
  C  C176  1  0.637100  0.339000  0.524600  1.0
  C  C177  1  0.315600  0.579600  0.467500  1.0
  C  C178  1  0.684400  0.420400  0.532500  1.0
  C  C179  1  0.321900  0.486900  0.521000  1.0
  C  C180  1  0.678100  0.513100  0.479000  1.0
  C  C181  1  0.945200  0.390200  0.999100  1.0
  C  C182  1  0.054800  0.609800  0.000900  1.0
  C  C183  1  0.004400  0.365300  0.059500  1.0
  C  C184  1  0.995600  0.634700  0.940500  1.0
  C  C185  1  0.066200  0.272600  0.044900  1.0
  C  C186  1  0.933800  0.727400  0.955100  1.0
  C  C187  1  0.321300  0.994400  0.151200  1.0
  C  C188  1  0.678700  0.005600  0.848800  1.0
  C  C189  1  0.321100  0.919300  0.111300  1.0
  C  C190  1  0.678900  0.080700  0.888700  1.0
  C  C191  1  0.445000  0.888000  0.084600  1.0
  C  C192  1  0.555000  0.112000  0.915400  1.0
  N  N193  1  0.070400  0.336100  0.550100  1.0
  N  N194  1  0.929600  0.663900  0.449900  1.0
  N  N195  1  0.814000  0.560300  0.609400  1.0
  N  N196  1  0.186000  0.439700  0.390600  1.0
  N  N197  1  0.711100  0.240200  0.695100  1.0
  N  N198  1  0.288900  0.759800  0.304900  1.0
  N  N199  1  0.365700  0.310100  0.389300  1.0
  N  N200  1  0.634300  0.689900  0.610700  1.0
  N  N201  1  0.722100  0.203100  0.350700  1.0
  N  N202  1  0.277900  0.796900  0.649300  1.0
  N  N203  1  0.663600  0.445800  0.155700  1.0
  N  N204  1  0.336400  0.554200  0.844300  1.0
  N  N205  1  0.783000  0.375800  0.820300  1.0
  N  N206  1  0.217000  0.624200  0.179700  1.0
  N  N207  1  0.006400  0.440800  0.726700  1.0
  N  N208  1  0.993600  0.559200  0.273300  1.0
  N  N209  1  0.951000  0.239200  0.773500  1.0
  N  N210  1  0.049000  0.760800  0.226500  1.0
  N  N211  1  0.821600  0.355000  0.887300  1.0
  N  N212  1  0.178400  0.645000  0.112700  1.0
  N  N213  1  0.023700  0.417400  0.803300  1.0
  N  N214  1  0.976300  0.582600  0.196700  1.0
  N  N215  1  0.975300  0.233500  0.844400  1.0
  N  N216  1  0.024700  0.766500  0.155600  1.0
  N  N217  1  0.442600  0.263000  0.187800  1.0
  N  N218  1  0.557400  0.737000  0.812200  1.0
  N  N219  1  0.481100  0.103800  0.314500  1.0
  N  N220  1  0.518900  0.896200  0.685500  1.0
  N  N221  1  0.655500  0.173700  0.170900  1.0
  N  N222  1  0.344500  0.826300  0.829100  1.0
  N  N223  1  0.424400  0.190600  0.154300  1.0
  N  N224  1  0.575600  0.809400  0.845700  1.0
  N  N225  1  0.451900  0.047500  0.271000  1.0
  N  N226  1  0.548100  0.952500  0.729000  1.0
  N  N227  1  0.612700  0.107000  0.141900  1.0
  N  N228  1  0.387300  0.893000  0.858100  1.0
  N  N229  1  0.160200  0.216300  0.441200  1.0
  N  N230  1  0.839800  0.783700  0.558800  1.0
  N  N231  1  0.246100  0.208800  0.554300  1.0
  N  N232  1  0.753900  0.791200  0.445700  1.0
  N  N233  1  0.287100  0.391400  0.526500  1.0
  N  N234  1  0.712900  0.608600  0.473500  1.0
  N  N235  1  0.139200  0.052200  0.463900  1.0
  N  N236  1  0.860800  0.947800  0.536100  1.0
  N  N237  1  0.366700  0.377600  0.626200  1.0
  N  N238  1  0.633300  0.622400  0.373800  1.0
  N  N239  1  0.975100  0.321800  0.951500  1.0
  N  N240  1  0.024900  0.678200  0.048500  1.0
  N  N241  1  0.052800  0.251900  0.978500  1.0
  N  N242  1  0.947200  0.748100  0.021500  1.0
  N  N243  1  0.436000  0.018900  0.138400  1.0
  N  N244  1  0.564000  0.981100  0.861600  1.0
  N  N245  1  0.507800  0.956300  0.093600  1.0
  N  N246  1  0.492200  0.043700  0.906400  1.0
  O  O247  1  0.468500  0.273600  0.739100  1
  O  O248  1  0.531500  0.726400  0.260900  1
  O  O249  1  0.844000  0.156300  0.475600  1
  O  O250  1  0.156000  0.843700  0.524400  1
  O  O251  1  0.950000  0.148000  0.581000  1
  O  O252  1  0.050000  0.852000  0.419000  1
