# generated using pymatgen
data_Fe2CoB2H37C54(N9O)3
_symmetry_space_group_name_H-M   'P 1'
_cell_length_a   12.28700000
_cell_length_b   13.96300000
_cell_length_c   17.75700000
_cell_angle_alpha   72.96800000
_cell_angle_beta   69.94400000
_cell_angle_gamma   84.05300000
_symmetry_Int_Tables_number   1
_chemical_formula_structural   Fe2CoB2H37C54(N9O)3
_chemical_formula_sum   'Fe4 Co2 B4 H74 C108 N54 O6'
_cell_volume   2736.18006355
_cell_formula_units_Z   2
loop_
 _symmetry_equiv_pos_site_id
 _symmetry_equiv_pos_as_xyz
  1  'x, y, z'
loop_
 _atom_site_type_symbol
 _atom_site_label
 _atom_site_symmetry_multiplicity
 _atom_site_fract_x
 _atom_site_fract_y
 _atom_site_fract_z
 _atom_site_occupancy
  Fe  Fe1  1  0.105740  0.631700  0.289360  1.0
  Fe  Fe2  1  0.894260  0.368300  0.710640  1.0
  Fe  Fe3  1  0.454730  0.762650  0.750580  1.0
  Fe  Fe4  1  0.545270  0.237350  0.249420  1.0
  Co  Co5  1  0.779470  0.673010  0.528460  1.0
  Co  Co6  1  0.220530  0.326990  0.471540  1.0
  B  B7  1  0.047800  0.667900  0.124900  1.0
  B  B8  1  0.952200  0.332100  0.875100  1.0
  B  B9  1  0.520900  0.908200  0.830600  1.0
  B  B10  1  0.479100  0.091800  0.169400  1.0
  H  H11  1  0.745900  0.962200  0.828300  1.0
  H  H12  1  0.254100  0.037800  0.171700  1.0
  H  H13  1  0.604300  0.644700  0.334600  1.0
  H  H14  1  0.395700  0.355300  0.665400  1.0
  H  H15  1  0.856300  0.008800  0.506400  1.0
  H  H16  1  0.143700  0.991200  0.493600  1.0
  H  H17  1  0.375700  0.590300  0.185700  1.0
  H  H18  1  0.624300  0.409700  0.814300  1.0
  H  H19  1  0.443200  0.611100  0.032000  1.0
  H  H20  1  0.556800  0.388900  0.968000  1.0
  H  H21  1  0.267500  0.652700  0.988600  1.0
  H  H22  1  0.732500  0.347300  0.011400  1.0
  H  H23  1  0.027500  0.863000  0.287400  1.0
  H  H24  1  0.972500  0.137000  0.712600  1.0
  H  H25  1  0.952000  0.977100  0.178500  1.0
  H  H26  1  0.048000  0.022900  0.821500  1.0
  H  H27  1  0.954700  0.877800  0.081400  1.0
  H  H28  1  0.045300  0.122200  0.918600  1.0
  H  H29  1  0.914000  0.447100  0.376300  1.0
  H  H30  1  0.086000  0.552900  0.623700  1.0
  H  H31  1  0.803000  0.404000  0.295400  1.0
  H  H32  1  0.197000  0.596000  0.704600  1.0
  H  H33  1  0.869100  0.524600  0.153200  1.0
  H  H34  1  0.130900  0.475400  0.846800  1.0
  H  H35  1  0.102900  0.559000  0.002900  1.0
  H  H36  1  0.897100  0.441000  0.997100  1.0
  H  H37  1  0.006200  0.613300  0.894400  1.0
  H  H38  1  0.993800  0.386700  0.105600  1.0
  H  H39  1  0.887500  0.764300  0.923400  1.0
  H  H40  1  0.112500  0.235700  0.076600  1.0
  H  H41  1  0.544500  0.930500  0.567500  1.0
  H  H42  1  0.455500  0.069500  0.432500  1.0
  H  H43  1  0.624500  0.095400  0.554900  1.0
  H  H44  1  0.375500  0.904600  0.445100  1.0
  H  H45  1  0.621100  0.090300  0.697700  1.0
  H  H46  1  0.378900  0.909700  0.302300  1.0
  H  H47  1  0.619400  0.590900  0.829400  1.0
  H  H48  1  0.380600  0.409100  0.170600  1.0
  H  H49  1  0.710900  0.620100  0.926300  1.0
  H  H50  1  0.289100  0.379900  0.073700  1.0
  H  H51  1  0.664300  0.795500  0.933000  1.0
  H  H52  1  0.335700  0.204500  0.067000  1.0
  H  H53  1  0.184000  0.786800  0.859400  1.0
  H  H54  1  0.816000  0.213200  0.140600  1.0
  H  H55  1  0.123800  0.899300  0.953300  1.0
  H  H56  1  0.876200  0.100700  0.046700  1.0
  H  H57  1  0.304800  0.970500  0.948000  1.0
  H  H58  1  0.695200  0.029500  0.052000  1.0
  H  H59  1  0.542200  0.163000  0.934200  1.0
  H  H60  1  0.457800  0.837000  0.065800  1.0
  H  H61  1  0.750300  0.101800  0.886400  1.0
  H  H62  1  0.249700  0.898200  0.113600  1.0
  H  H63  1  0.721700  0.409500  0.577200  1.0
  H  H64  1  0.278300  0.590500  0.422800  1.0
  H  H65  1  0.648400  0.270700  0.562100  1.0
  H  H66  1  0.351600  0.729300  0.437900  1.0
  H  H67  1  0.564000  0.286400  0.460300  1.0
  H  H68  1  0.436000  0.713600  0.539700  1.0
  H  H69  1  0.547300  0.442200  0.369400  1.0
  H  H70  1  0.452700  0.557800  0.630600  1.0
  H  H71  1  0.650300  0.840600  0.291500  1.0
  H  H72  1  0.349700  0.159400  0.708500  1.0
  H  H73  1  0.702600  0.001400  0.282300  1.0
  H  H74  1  0.297400  0.998600  0.717700  1.0
  H  H75  1  0.786500  0.025800  0.375800  1.0
  H  H76  1  0.213500  0.974200  0.624200  1.0
  H  H77  1  0.925100  0.009300  0.643200  1.0
  H  H78  1  0.074900  0.990700  0.356800  1.0
  H  H79  1  0.968700  0.895300  0.755900  1.0
  H  H80  1  0.031300  0.104700  0.244100  1.0
  H  H81  1  0.953300  0.723900  0.780500  1.0
  H  H82  1  0.046700  0.276100  0.219500  1.0
  H  H83  1  0.891200  0.657200  0.696900  1.0
  H  H84  1  0.108800  0.342800  0.303100  1.0
  C  C85  1  0.579600  0.686500  0.188600  1
  C  C86  1  0.420400  0.313500  0.811400  1
  C  C87  1  0.679100  0.731000  0.128600  1
  C  C88  1  0.320900  0.269000  0.871400  1
  C  C89  1  0.708100  0.827700  0.063600  1
  C  C90  1  0.291900  0.172300  0.936400  1
  C  C91  1  0.623700  0.656000  0.120000  1
  C  C92  1  0.376300  0.344000  0.880000  1
  C  C93  1  0.730000  0.694000  0.074400  1
  C  C94  1  0.270000  0.306000  0.925600  1
  C  C95  1  0.680300  0.997800  0.853900  1.0
  C  C96  1  0.319700  0.002200  0.146100  1.0
  C  C97  1  0.996700  0.646300  0.388700  1.0
  C  C98  1  0.003300  0.353700  0.611300  1.0
  C  C99  1  0.841400  0.487800  0.648800  1.0
  C  C100  1  0.158600  0.512200  0.351200  1.0
  C  C101  1  0.218200  0.707500  0.296500  1.0
  C  C102  1  0.781800  0.292500  0.703500  1.0
  C  C103  1  0.562200  0.710400  0.664100  1.0
  C  C104  1  0.437800  0.289600  0.335900  1.0
  C  C105  1  0.344700  0.785400  0.692500  1.0
  C  C106  1  0.655300  0.214600  0.307500  1.0
  C  C107  1  0.383900  0.633300  0.809200  1.0
  C  C108  1  0.616100  0.366700  0.190800  1.0
  C  C109  1  0.327600  0.606400  0.151700  1.0
  C  C110  1  0.672400  0.393600  0.848300  1.0
  C  C111  1  0.366100  0.617700  0.066800  1.0
  C  C112  1  0.633900  0.382300  0.933200  1.0
  C  C113  1  0.269600  0.640300  0.043600  1.0
  C  C114  1  0.730400  0.359700  0.956400  1.0
  C  C115  1  0.018900  0.845700  0.241800  1.0
  C  C116  1  0.981100  0.154300  0.758200  1.0
  C  C117  1  0.976900  0.909700  0.182000  1.0
  C  C118  1  0.023100  0.090300  0.818000  1.0
  C  C119  1  0.978900  0.855100  0.129000  1.0
  C  C120  1  0.021100  0.144900  0.871000  1.0
  C  C121  1  0.921100  0.480200  0.319800  1.0
  C  C122  1  0.078900  0.519800  0.680200  1.0
  C  C123  1  0.858900  0.455600  0.275800  1.0
  C  C124  1  0.141100  0.544400  0.724200  1.0
  C  C125  1  0.895700  0.521600  0.198200  1.0
  C  C126  1  0.104300  0.478400  0.801800  1.0
  C  C127  1  0.052700  0.615100  0.996500  1.0
  C  C128  1  0.947300  0.384900  0.003500  1.0
  C  C129  1  0.000300  0.643500  0.937100  1.0
  C  C130  1  0.999700  0.356500  0.062900  1.0
  C  C131  1  0.936100  0.727800  0.953700  1.0
  C  C132  1  0.063900  0.272200  0.046300  1.0
  C  C133  1  0.553200  0.950400  0.611900  1.0
  C  C134  1  0.446800  0.049600  0.388100  1.0
  C  C135  1  0.598000  0.041900  0.604200  1.0
  C  C136  1  0.402000  0.958100  0.395800  1.0
  C  C137  1  0.595600  0.038600  0.682900  1.0
  C  C138  1  0.404400  0.961400  0.317100  1.0
  C  C139  1  0.616600  0.651900  0.843500  1.0
  C  C140  1  0.383400  0.348100  0.156500  1.0
  C  C141  1  0.667300  0.667200  0.897200  1.0
  C  C142  1  0.332700  0.332800  0.102800  1.0
  C  C143  1  0.642200  0.763200  0.900200  1.0
  C  C144  1  0.357800  0.236800  0.099800  1.0
  C  C145  1  0.234900  0.824900  0.869200  1.0
  C  C146  1  0.765100  0.175100  0.130800  1.0
  C  C147  1  0.200800  0.886600  0.921500  1.0
  C  C148  1  0.799200  0.113400  0.078500  1.0
  C  C149  1  0.300000  0.925500  0.918100  1.0
  C  C150  1  0.700000  0.074500  0.081900  1.0
  C  C151  1  0.567000  0.107500  0.911600  1.0
  C  C152  1  0.433000  0.892500  0.088400  1.0
  C  C153  1  0.683900  0.074900  0.884000  1.0
  C  C154  1  0.316100  0.925100  0.116000  1.0
  C  C155  1  0.676600  0.509600  0.481400  1.0
  C  C156  1  0.323400  0.490400  0.518600  1.0
  C  C157  1  0.686800  0.416600  0.535700  1.0
  C  C158  1  0.313200  0.583400  0.464300  1.0
  C  C159  1  0.643400  0.335200  0.526000  1.0
  C  C160  1  0.356600  0.664800  0.474000  1.0
  C  C161  1  0.592300  0.344600  0.464700  1.0
  C  C162  1  0.407700  0.655400  0.535300  1.0
  C  C163  1  0.582100  0.435700  0.410900  1.0
  C  C164  1  0.417900  0.564300  0.589100  1.0
  C  C165  1  0.625700  0.518200  0.420500  1.0
  C  C166  1  0.374300  0.481800  0.579500  1.0
  C  C167  1  0.678900  0.665400  0.412500  1.0
  C  C168  1  0.321100  0.334600  0.587500  1.0
  C  C169  1  0.702300  0.772000  0.392400  1.0
  C  C170  1  0.297700  0.228000  0.607600  1.0
  C  C171  1  0.683500  0.850900  0.329600  1.0
  C  C172  1  0.316500  0.149100  0.670400  1.0
  C  C173  1  0.715100  0.945600  0.324400  1.0
  C  C174  1  0.284900  0.054400  0.675600  1.0
  C  C175  1  0.764600  0.960700  0.379800  1.0
  C  C176  1  0.235400  0.039300  0.620200  1.0
  C  C177  1  0.781200  0.877800  0.441000  1.0
  C  C178  1  0.218800  0.122200  0.559000  1.0
  C  C179  1  0.827600  0.870600  0.507000  1.0
  C  C180  1  0.172400  0.129400  0.493000  1.0
  C  C181  1  0.884700  0.898400  0.602600  1.0
  C  C182  1  0.115300  0.101600  0.397400  1.0
  C  C183  1  0.919100  0.939000  0.653400  1.0
  C  C184  1  0.080900  0.061000  0.346600  1.0
  C  C185  1  0.944200  0.871100  0.719600  1.0
  C  C186  1  0.055800  0.128900  0.280400  1.0
  C  C187  1  0.934400  0.767700  0.734500  1.0
  C  C188  1  0.065600  0.232300  0.265500  1.0
  C  C189  1  0.898700  0.727500  0.685400  1.0
  C  C190  1  0.101300  0.272500  0.314600  1.0
  C  C191  1  0.873900  0.794100  0.617900  1.0
  C  C192  1  0.126100  0.205900  0.382100  1.0
  N  N193  1  0.925200  0.658700  0.448400  1.0
  N  N194  1  0.074800  0.341300  0.551600  1.0
  N  N195  1  0.813100  0.560200  0.608100  1.0
  N  N196  1  0.186900  0.439800  0.391900  1.0
  N  N197  1  0.289300  0.754200  0.299200  1.0
  N  N198  1  0.710700  0.245800  0.700800  1.0
  N  N199  1  0.633700  0.689600  0.609900  1.0
  N  N200  1  0.366300  0.310400  0.390100  1.0
  N  N201  1  0.276300  0.799200  0.660000  1.0
  N  N202  1  0.723700  0.200800  0.340000  1.0
  N  N203  1  0.341500  0.556900  0.845900  1.0
  N  N204  1  0.658500  0.443100  0.154100  1.0
  N  N205  1  0.214000  0.621200  0.179100  1.0
  N  N206  1  0.786000  0.378800  0.820900  1.0
  N  N207  1  0.045600  0.757100  0.226800  1.0
  N  N208  1  0.954400  0.242900  0.773200  1.0
  N  N209  1  0.991900  0.556400  0.271800  1.0
  N  N210  1  0.008100  0.443600  0.728200  1.0
  N  N211  1  0.177300  0.642100  0.111900  1.0
  N  N212  1  0.822700  0.357900  0.888100  1.0
  N  N213  1  0.021500  0.763300  0.156300  1.0
  N  N214  1  0.978500  0.236700  0.843700  1.0
  N  N215  1  0.976000  0.581600  0.196300  1.0
  N  N216  1  0.024000  0.418400  0.803700  1.0
  N  N217  1  0.022400  0.678600  0.045200  1.0
  N  N218  1  0.977600  0.321400  0.954800  1.0
  N  N219  1  0.950700  0.750900  0.016900  1.0
  N  N220  1  0.049300  0.249100  0.983100  1.0
  N  N221  1  0.524400  0.895000  0.691300  1.0
  N  N222  1  0.475600  0.105000  0.308700  1.0
  N  N223  1  0.562900  0.735600  0.814200  1.0
  N  N224  1  0.437100  0.264400  0.185800  1.0
  N  N225  1  0.349000  0.826500  0.834800  1.0
  N  N226  1  0.651000  0.173500  0.165200  1.0
  N  N227  1  0.551400  0.950100  0.735300  1.0
  N  N228  1  0.448600  0.049900  0.264700  1.0
  N  N229  1  0.580600  0.805000  0.848800  1.0
  N  N230  1  0.419400  0.195000  0.151200  1.0
  N  N231  1  0.390200  0.889300  0.865200  1.0
  N  N232  1  0.609800  0.110700  0.134800  1.0
  N  N233  1  0.565000  0.978000  0.865800  1.0
  N  N234  1  0.435000  0.022000  0.134200  1.0
  N  N235  1  0.708500  0.604100  0.475500  1.0
  N  N236  1  0.291500  0.395900  0.524500  1.0
  N  N237  1  0.749300  0.785700  0.445700  1.0
  N  N238  1  0.250700  0.214300  0.554300  1.0
  N  N239  1  0.837700  0.779600  0.556200  1.0
  N  N240  1  0.162300  0.220400  0.443800  1.0
  N  N241  1  0.629300  0.617700  0.377000  1.0
  N  N242  1  0.370700  0.382300  0.623000  1.0
  N  N243  1  0.855900  0.944200  0.531100  1.0
  N  N244  1  0.144100  0.055800  0.468900  1.0
  N  N245  1  0.495600  0.047700  0.901000  1.0
  N  N246  1  0.504400  0.952300  0.099000  1.0
  O  O247  1  0.531900  0.719300  0.263200  1
  O  O248  1  0.468100  0.280700  0.736800  1
  O  O249  1  0.166700  0.859400  0.540600  1
  O  O250  1  0.833300  0.140600  0.459400  1
  O  O251  1  0.097400  0.809200  0.434900  1
  O  O252  1  0.902600  0.190800  0.565100  1
