# generated using pymatgen
data_Fe2CoB2H38C54(N9O)3
_symmetry_space_group_name_H-M   'P 1'
_cell_length_a   12.33800000
_cell_length_b   13.95900000
_cell_length_c   17.82000000
_cell_angle_alpha   73.24200000
_cell_angle_beta   70.21400000
_cell_angle_gamma   85.39800000
_symmetry_Int_Tables_number   1
_chemical_formula_structural   Fe2CoB2H38C54(N9O)3
_chemical_formula_sum   'Fe4 Co2 B4 H76 C108 N54 O6'
_cell_volume   2764.72375656
_cell_formula_units_Z   2
loop_
 _symmetry_equiv_pos_site_id
 _symmetry_equiv_pos_as_xyz
  1  'x, y, z'
loop_
 _atom_site_type_symbol
 _atom_site_label
 _atom_site_symmetry_multiplicity
 _atom_site_fract_x
 _atom_site_fract_y
 _atom_site_fract_z
 _atom_site_occupancy
  Fe  Fe1  1  0.395080  0.862570  0.716540  1.0
  Fe  Fe2  1  0.604920  0.137430  0.283460  1.0
  Fe  Fe3  1  0.052200  0.736220  0.245270  1.0
  Fe  Fe4  1  0.947800  0.263780  0.754730  1.0
  Co  Co5  1  0.717860  0.827900  0.465560  1.0
  Co  Co6  1  0.282140  0.172100  0.534440  1.0
  B  B7  1  0.457600  0.831100  0.876400  1.0
  B  B8  1  0.542400  0.168900  0.123600  1.0
  B  B9  1  0.982200  0.589600  0.166500  1.0
  B  B10  1  0.017800  0.410400  0.833500  1.0
  H  H11  1  0.038300  0.782600  0.721100  1
  H  H12  1  0.961700  0.217400  0.278900  1
  H  H13  1  0.064600  0.886900  0.973800  1.0
  H  H14  1  0.935400  0.113100  0.026200  1.0
  H  H15  1  0.238300  0.853200  0.010600  1.0
  H  H16  1  0.761700  0.146800  0.989400  1.0
  H  H17  1  0.478300  0.630600  0.715400  1.0
  H  H18  1  0.521700  0.369400  0.284600  1.0
  H  H19  1  0.555100  0.523700  0.821600  1.0
  H  H20  1  0.444900  0.476300  0.178400  1.0
  H  H21  1  0.587500  0.046500  0.625800  1.0
  H  H22  1  0.412500  0.953500  0.374200  1.0
  H  H23  1  0.695600  0.098500  0.703500  1.0
  H  H24  1  0.304400  0.901500  0.296500  1.0
  H  H25  1  0.638900  0.978900  0.846100  1.0
  H  H26  1  0.361100  0.021100  0.153900  1.0
  H  H27  1  0.129800  0.906700  0.821500  1.0
  H  H28  1  0.870200  0.093300  0.178500  1.0
  H  H29  1  0.549200  0.621700  0.921400  1.0
  H  H30  1  0.450800  0.378300  0.078600  1.0
  H  H31  1  0.778700  0.092600  0.428800  1.0
  H  H32  1  0.221300  0.907400  0.571200  1.0
  H  H33  1  0.861000  0.228400  0.445800  1.0
  H  H34  1  0.139000  0.771600  0.554200  1.0
  H  H35  1  0.940000  0.206000  0.548300  1.0
  H  H36  1  0.060000  0.794000  0.451700  1.0
  H  H37  1  0.956000  0.054100  0.633200  1.0
  H  H38  1  0.044000  0.945900  0.366800  1.0
  H  H39  1  0.850300  0.659300  0.704300  1.0
  H  H40  1  0.149700  0.340700  0.295700  1.0
  H  H41  1  0.791300  0.496300  0.717000  1.0
  H  H42  1  0.208700  0.503700  0.283000  1.0
  H  H43  1  0.714500  0.472200  0.619000  1.0
  H  H44  1  0.285500  0.527800  0.381000  1.0
  H  H45  1  0.576500  0.466300  0.367600  1.0
  H  H46  1  0.423500  0.533700  0.632400  1.0
  H  H47  1  0.529600  0.556200  0.257500  1.0
  H  H48  1  0.470400  0.443800  0.742500  1.0
  H  H49  1  0.539000  0.735900  0.222900  1.0
  H  H50  1  0.461000  0.264100  0.777100  1.0
  H  H51  1  0.609900  0.817000  0.298700  1.0
  H  H52  1  0.390100  0.183000  0.701300  1.0
  H  H53  1  0.963700  0.571600  0.428600  1.0
  H  H54  1  0.036300  0.428400  0.571400  1.0
  H  H55  1  0.868400  0.406200  0.447300  1.0
  H  H56  1  0.131600  0.593800  0.552700  1.0
  H  H57  1  0.879300  0.410200  0.302900  1.0
  H  H58  1  0.120700  0.589800  0.697100  1.0
  H  H59  1  0.891700  0.900100  0.167800  1.0
  H  H60  1  0.108300  0.099900  0.832200  1.0
  H  H61  1  0.799200  0.874600  0.070200  1.0
  H  H62  1  0.200800  0.125400  0.929800  1.0
  H  H63  1  0.842800  0.697500  0.066200  1.0
  H  H64  1  0.157200  0.302500  0.933800  1.0
  H  H65  1  0.202100  0.520400  0.054400  1.0
  H  H66  1  0.797900  0.479600  0.945600  1.0
  H  H67  1  0.377800  0.598900  0.049200  1.0
  H  H68  1  0.622200  0.401100  0.950800  1.0
  H  H69  1  0.315000  0.710700  0.140400  1.0
  H  H70  1  0.685000  0.289300  0.859600  1.0
  H  H71  1  0.617800  0.724300  0.078800  1.0
  H  H72  1  0.382200  0.275700  0.921200  1.0
  H  H73  1  0.410900  0.941600  0.993900  1.0
  H  H74  1  0.589100  0.058400  0.006100  1.0
  H  H75  1  0.503400  0.887500  0.103700  1.0
  H  H76  1  0.496600  0.112500  0.896300  1.0
  H  H77  1  0.891800  0.850200  0.668700  1.0
  H  H78  1  0.108200  0.149800  0.331300  1.0
  H  H79  1  0.644900  0.480700  0.495500  1.0
  H  H80  1  0.355100  0.519300  0.504500  1.0
  H  H81  1  0.756600  0.521400  0.182800  1.0
  H  H82  1  0.243400  0.478600  0.817200  1.0
  H  H83  1  0.752500  0.408800  0.097600  1.0
  H  H84  1  0.247500  0.591200  0.902400  1.0
  H  H85  1  0.963100  0.328900  0.066900  1.0
  H  H86  1  0.036900  0.671100  0.933100  1.0
  C  C87  1  0.914000  0.823000  0.819000  1
  C  C88  1  0.086000  0.177000  0.181000  1
  C  C89  1  0.830000  0.828000  0.892800  1
  C  C90  1  0.170000  0.172000  0.107200  1
  C  C91  1  0.790000  0.728000  0.928000  1
  C  C92  1  0.210000  0.272000  0.072000  1
  C  C93  1  0.809000  0.772000  0.855000  1
  C  C94  1  0.191000  0.228000  0.145000  1
  C  C95  1  0.836000  0.681000  0.902000  1
  C  C96  1  0.164000  0.319000  0.098000  1
  C  C97  1  0.282900  0.787500  0.706100  1.0
  C  C98  1  0.717100  0.212500  0.293900  1.0
  C  C99  1  0.342900  0.984900  0.654900  1.0
  C  C100  1  0.657100  0.015100  0.345100  1.0
  C  C101  1  0.140500  0.880700  0.938300  1.0
  C  C102  1  0.859500  0.119300  0.061700  1.0
  C  C103  1  0.234800  0.861200  0.956700  1.0
  C  C104  1  0.765200  0.138800  0.043300  1.0
  C  C105  1  0.499200  0.847900  0.613200  1.0
  C  C106  1  0.500800  0.152100  0.386800  1.0
  C  C107  1  0.485400  0.649300  0.760800  1.0
  C  C108  1  0.514600  0.350700  0.239200  1.0
  C  C109  1  0.528200  0.589900  0.819000  1.0
  C  C110  1  0.471800  0.410100  0.181000  1.0
  C  C111  1  0.580400  0.015500  0.682200  1.0
  C  C112  1  0.419600  0.984500  0.317800  1.0
  C  C113  1  0.641900  0.044200  0.724600  1.0
  C  C114  1  0.358100  0.955800  0.275400  1.0
  C  C115  1  0.610400  0.979600  0.802600  1.0
  C  C116  1  0.389600  0.020400  0.197400  1.0
  C  C117  1  0.177900  0.889900  0.855000  1.0
  C  C118  1  0.822100  0.110100  0.145000  1.0
  C  C119  1  0.525300  0.644000  0.873900  1.0
  C  C120  1  0.474700  0.356000  0.126100  1.0
  C  C121  1  0.827200  0.989800  0.521200  1.0
  C  C122  1  0.172800  0.010200  0.478800  1.0
  C  C123  1  0.815800  0.083800  0.469100  1.0
  C  C124  1  0.184200  0.916200  0.530900  1.0
  C  C125  1  0.862500  0.162900  0.480800  1.0
  C  C126  1  0.137500  0.837100  0.519200  1.0
  C  C127  1  0.911000  0.148700  0.542100  1.0
  C  C128  1  0.089000  0.851300  0.457900  1.0
  C  C129  1  0.920000  0.061000  0.592600  1.0
  C  C130  1  0.080000  0.939000  0.407400  1.0
  C  C131  1  0.873500  0.977600  0.583300  1.0
  C  C132  1  0.126500  0.022400  0.416700  1.0
  C  C133  1  0.820100  0.832100  0.588500  1.0
  C  C134  1  0.179900  0.167900  0.411500  1.0
  C  C135  1  0.795300  0.724200  0.606100  1.0
  C  C136  1  0.204700  0.275800  0.393900  1.0
  C  C137  1  0.815400  0.647700  0.667600  1.0
  C  C138  1  0.184600  0.352300  0.332400  1.0
  C  C139  1  0.782200  0.551800  0.673900  1.0
  C  C140  1  0.217800  0.448200  0.326100  1.0
  C  C141  1  0.735200  0.537500  0.616200  1.0
  C  C142  1  0.264800  0.462500  0.383800  1.0
  C  C143  1  0.719600  0.617700  0.556500  1.0
  C  C144  1  0.280400  0.382300  0.443500  1.0
  C  C145  1  0.674500  0.621000  0.490900  1.0
  C  C146  1  0.325500  0.379000  0.509100  1.0
  C  C147  1  0.614200  0.579900  0.401000  1.0
  C  C148  1  0.385800  0.420100  0.599000  1.0
  C  C149  1  0.580600  0.537200  0.353500  1.0
  C  C150  1  0.419400  0.462800  0.646500  1.0
  C  C151  1  0.553600  0.588400  0.289700  1.0
  C  C152  1  0.446400  0.411600  0.710300  1.0
  C  C153  1  0.561300  0.696900  0.268400  1.0
  C  C154  1  0.438700  0.303100  0.731600  1.0
  C  C155  1  0.601200  0.746300  0.314000  1.0
  C  C156  1  0.398800  0.253700  0.686000  1.0
  C  C157  1  0.625700  0.686500  0.379900  1.0
  C  C158  1  0.374300  0.313500  0.620100  1.0
  C  C159  1  0.950800  0.551100  0.385800  1.0
  C  C160  1  0.049200  0.448900  0.614200  1.0
  C  C161  1  0.899100  0.458100  0.397400  1.0
  C  C162  1  0.100900  0.541900  0.602600  1.0
  C  C163  1  0.904900  0.462600  0.317400  1.0
  C  C164  1  0.095100  0.537400  0.682600  1.0
  C  C165  1  0.894600  0.839600  0.153000  1.0
  C  C166  1  0.105400  0.160400  0.847000  1.0
  C  C167  1  0.841600  0.827500  0.099100  1.0
  C  C168  1  0.158400  0.172500  0.900900  1.0
  C  C169  1  0.865500  0.731200  0.097900  1.0
  C  C170  1  0.134500  0.268800  0.902100  1.0
  C  C171  1  0.205600  0.567100  0.083200  1.0
  C  C172  1  0.794400  0.432900  0.916800  1.0
  C  C173  1  0.300700  0.609200  0.080300  1.0
  C  C174  1  0.699300  0.390800  0.919700  1.0
  C  C175  1  0.264000  0.670700  0.131700  1.0
  C  C176  1  0.736000  0.329300  0.868300  1.0
  C  C177  1  0.156600  0.715300  0.306000  1.0
  C  C178  1  0.843400  0.284700  0.694000  1.0
  C  C179  1  0.126000  0.865200  0.185300  1.0
  C  C180  1  0.874000  0.134800  0.814700  1.0
  C  C181  1  0.945800  0.790600  0.328300  1.0
  C  C182  1  0.054200  0.209400  0.671700  1.0
  C  C183  1  0.573300  0.763900  0.047400  1.0
  C  C184  1  0.426700  0.236100  0.952600  1.0
  C  C185  1  0.457800  0.884500  0.001000  1.0
  C  C186  1  0.542200  0.115500  0.999000  1.0
  C  C187  1  0.508400  0.856000  0.062000  1.0
  C  C188  1  0.491600  0.144000  0.938000  1.0
  C  C189  1  0.822000  0.495300  0.148600  1.0
  C  C190  1  0.178000  0.504700  0.851400  1.0
  C  C191  1  0.817300  0.427400  0.107900  1.0
  C  C192  1  0.182700  0.572600  0.892100  1.0
  C  C193  1  0.938000  0.388000  0.083000  1.0
  C  C194  1  0.062000  0.612000  0.917000  1.0
  N  N195  1  0.560800  0.837400  0.551900  1.0
  N  N196  1  0.439200  0.162600  0.448100  1.0
  N  N197  1  0.316200  0.058200  0.614700  1.0
  N  N198  1  0.683800  0.941800  0.385300  1.0
  N  N199  1  0.875000  0.815700  0.378600  1.0
  N  N200  1  0.125000  0.184300  0.621400  1.0
  N  N201  1  0.290400  0.872400  0.826500  1.0
  N  N202  1  0.709600  0.127600  0.173500  1.0
  N  N203  1  0.326800  0.853700  0.891500  1.0
  N  N204  1  0.673200  0.146300  0.108500  1.0
  N  N205  1  0.510700  0.939100  0.731000  1.0
  N  N206  1  0.489300  0.060900  0.269000  1.0
  N  N207  1  0.528400  0.915300  0.805400  1.0
  N  N208  1  0.471600  0.084700  0.194600  1.0
  N  N209  1  0.453400  0.741700  0.776800  1.0
  N  N210  1  0.546600  0.258300  0.223200  1.0
  N  N211  1  0.482300  0.733800  0.847000  1.0
  N  N212  1  0.517700  0.266200  0.153000  1.0
  N  N213  1  0.790700  0.893900  0.526200  1.0
  N  N214  1  0.209300  0.106100  0.473800  1.0
  N  N215  1  0.868300  0.877900  0.626000  1.0
  N  N216  1  0.131700  0.122100  0.374000  1.0
  N  N217  1  0.662400  0.706500  0.439300  1.0
  N  N218  1  0.337600  0.293500  0.560700  1.0
  N  N219  1  0.644500  0.544400  0.468900  1.0
  N  N220  1  0.355500  0.455600  0.531100  1.0
  N  N221  1  0.949500  0.760400  0.182000  1.0
  N  N222  1  0.050500  0.239600  0.818000  1.0
  N  N223  1  0.924600  0.692600  0.147200  1.0
  N  N224  1  0.075400  0.307400  0.852800  1.0
  N  N225  1  0.155300  0.669200  0.166600  1.0
  N  N226  1  0.844700  0.330800  0.833400  1.0
  N  N227  1  0.113400  0.604000  0.135900  1.0
  N  N228  1  0.886600  0.396000  0.864100  1.0
  N  N229  1  0.978900  0.606000  0.306300  1.0
  N  N230  1  0.021100  0.394000  0.693700  1.0
  N  N231  1  0.950600  0.548700  0.263600  1.0
  N  N232  1  0.049400  0.451300  0.736400  1.0
  N  N233  1  0.222800  0.700500  0.344100  1.0
  N  N234  1  0.777200  0.299500  0.655900  1.0
  N  N235  1  0.173900  0.941800  0.144700  1.0
  N  N236  1  0.826100  0.058200  0.855300  1.0
  N  N237  1  0.209700  0.746000  0.701400  1.0
  N  N238  1  0.790300  0.254000  0.298600  1.0
  N  N239  1  0.482800  0.821300  0.952100  1.0
  N  N240  1  0.517200  0.178700  0.047900  1.0
  N  N241  1  0.555700  0.747800  0.978900  1.0
  N  N242  1  0.444300  0.252200  0.021100  1.0
  N  N243  1  0.749700  0.710000  0.552000  1.0
  N  N244  1  0.250300  0.290000  0.448000  1.0
  N  N245  1  0.934100  0.520600  0.133300  1.0
  N  N246  1  0.065900  0.479400  0.866700  1.0
  N  N247  1  0.005100  0.459400  0.089100  1.0
  N  N248  1  0.994900  0.540600  0.910900  1.0
  O  O249  1  0.966100  0.776900  0.739000  1
  O  O250  1  0.033900  0.223100  0.261000  1
  O  O251  1  0.662400  0.341300  0.541500  1
  O  O252  1  0.337600  0.658700  0.458500  1
  O  O253  1  0.567000  0.317000  0.441000  1
  O  O254  1  0.433000  0.683000  0.559000  1
