# generated using pymatgen
data_H65Ru2C65S2N4(O5F2)3
_symmetry_space_group_name_H-M   'P 1'
_cell_length_a   18.23200000
_cell_length_b   18.43300000
_cell_length_c   20.12500000
_cell_angle_alpha   90.00000000
_cell_angle_beta   90.00000000
_cell_angle_gamma   106.85000000
_symmetry_Int_Tables_number   1
_chemical_formula_structural   H65Ru2C65S2N4(O5F2)3
_chemical_formula_sum   'H260 Ru8 C260 S8 N16 O60 F24'
_cell_volume   6473.04346410
_cell_formula_units_Z   4
loop_
 _symmetry_equiv_pos_site_id
 _symmetry_equiv_pos_as_xyz
  1  'x, y, z'
loop_
 _atom_site_type_symbol
 _atom_site_label
 _atom_site_symmetry_multiplicity
 _atom_site_fract_x
 _atom_site_fract_y
 _atom_site_fract_z
 _atom_site_occupancy
  H  H1  1  0.940700  0.994700  0.978300  1
  H  H2  1  0.059300  0.505300  0.478300  1
  H  H3  1  0.059300  0.005300  0.021700  1
  H  H4  1  0.940700  0.494700  0.521700  1
  H  H5  1  0.865800  0.967300  0.932700  1
  H  H6  1  0.134200  0.532700  0.432700  1
  H  H7  1  0.134200  0.032700  0.067300  1
  H  H8  1  0.865800  0.467300  0.567300  1
  H  H9  1  0.943400  0.022500  0.902700  1
  H  H10  1  0.056600  0.477500  0.402700  1
  H  H11  1  0.056600  0.977500  0.097300  1
  H  H12  1  0.943400  0.522500  0.597300  1
  H  H13  1  0.243700  0.319000  0.667200  1
  H  H14  1  0.756300  0.181000  0.167200  1
  H  H15  1  0.756300  0.681000  0.332800  1
  H  H16  1  0.243700  0.819000  0.832800  1
  H  H17  1  0.291000  0.291300  0.724000  1
  H  H18  1  0.709000  0.208700  0.224000  1
  H  H19  1  0.709000  0.708700  0.276000  1
  H  H20  1  0.291000  0.791300  0.776000  1
  H  H21  1  0.205100  0.292800  0.738000  1
  H  H22  1  0.794900  0.207200  0.238000  1
  H  H23  1  0.794900  0.707200  0.262000  1
  H  H24  1  0.205100  0.792800  0.762000  1
  H  H25  1  0.849900  0.668200  0.707900  1
  H  H26  1  0.150100  0.831800  0.207900  1
  H  H27  1  0.150100  0.331800  0.292100  1
  H  H28  1  0.849900  0.168200  0.792100  1
  H  H29  1  0.876000  0.729400  0.649500  1
  H  H30  1  0.124000  0.770600  0.149500  1
  H  H31  1  0.124000  0.270600  0.350500  1
  H  H32  1  0.876000  0.229400  0.850500  1
  H  H33  1  0.778400  0.776000  0.681300  1
  H  H34  1  0.221600  0.724000  0.181300  1
  H  H35  1  0.221600  0.224000  0.318700  1
  H  H36  1  0.778400  0.276000  0.818700  1
  H  H37  1  0.847300  0.787400  0.733300  1
  H  H38  1  0.152700  0.712600  0.233300  1
  H  H39  1  0.152700  0.212600  0.266700  1
  H  H40  1  0.847300  0.287400  0.766700  1
  H  H41  1  0.768500  0.722300  0.745200  1
  H  H42  1  0.231500  0.777700  0.245200  1
  H  H43  1  0.231500  0.277700  0.254800  1
  H  H44  1  0.768500  0.222300  0.754800  1
  H  H45  1  0.803000  0.565200  0.626600  1
  H  H46  1  0.197000  0.934800  0.126600  1
  H  H47  1  0.197000  0.434800  0.373400  1
  H  H48  1  0.803000  0.065200  0.873400  1
  H  H49  1  0.835300  0.626800  0.570100  1
  H  H50  1  0.164700  0.873200  0.070100  1
  H  H51  1  0.164700  0.373200  0.429900  1
  H  H52  1  0.835300  0.126800  0.929900  1
  H  H53  1  0.682300  0.527600  0.574500  1
  H  H54  1  0.317700  0.972400  0.074500  1
  H  H55  1  0.317700  0.472400  0.425500  1
  H  H56  1  0.682300  0.027600  0.925500  1
  H  H57  1  0.746700  0.522300  0.522200  1
  H  H58  1  0.253300  0.977700  0.022200  1
  H  H59  1  0.253300  0.477700  0.477800  1
  H  H60  1  0.746700  0.022300  0.977800  1
  H  H61  1  0.711300  0.592200  0.519300  1
  H  H62  1  0.288700  0.907800  0.019300  1
  H  H63  1  0.288700  0.407800  0.480700  1
  H  H64  1  0.711300  0.092200  0.980700  1
  H  H65  1  0.644800  0.852300  0.870000  1.0
  H  H66  1  0.355200  0.647700  0.370000  1.0
  H  H67  1  0.355200  0.147700  0.130000  1.0
  H  H68  1  0.644800  0.352300  0.630000  1.0
  H  H69  1  0.767400  0.855000  0.844500  1.0
  H  H70  1  0.232600  0.645000  0.344500  1.0
  H  H71  1  0.232600  0.145000  0.155500  1.0
  H  H72  1  0.767400  0.355000  0.655500  1.0
  H  H73  1  0.589800  0.937900  0.820100  1.0
  H  H74  1  0.410200  0.562100  0.320100  1.0
  H  H75  1  0.410200  0.062100  0.179900  1.0
  H  H76  1  0.589800  0.437900  0.679900  1.0
  H  H77  1  0.842100  0.948800  0.774100  1.0
  H  H78  1  0.157900  0.551200  0.274100  1.0
  H  H79  1  0.157900  0.051200  0.225900  1.0
  H  H80  1  0.842100  0.448800  0.725900  1.0
  H  H81  1  0.600000  0.228500  0.563400  1.0
  H  H82  1  0.400000  0.271500  0.063400  1.0
  H  H83  1  0.400000  0.771500  0.436600  1.0
  H  H84  1  0.600000  0.728500  0.936600  1.0
  H  H85  1  0.859300  0.255800  0.529300  1.0
  H  H86  1  0.140700  0.244200  0.029300  1.0
  H  H87  1  0.140700  0.744200  0.470700  1.0
  H  H88  1  0.859300  0.755800  0.970700  1.0
  H  H89  1  0.664900  0.308500  0.481800  1.0
  H  H90  1  0.335100  0.191500  0.981800  1.0
  H  H91  1  0.335100  0.691500  0.518200  1.0
  H  H92  1  0.664900  0.808500  0.018200  1.0
  H  H93  1  0.797100  0.327500  0.466200  1.0
  H  H94  1  0.202900  0.172500  0.966200  1.0
  H  H95  1  0.202900  0.672500  0.533800  1.0
  H  H96  1  0.797100  0.827500  0.033800  1.0
  H  H97  1  0.116700  0.146200  0.628700  1.0
  H  H98  1  0.883300  0.353800  0.128700  1.0
  H  H99  1  0.883300  0.853800  0.371300  1.0
  H  H100  1  0.116700  0.646200  0.871300  1.0
  H  H101  1  0.053000  0.022900  0.672900  1.0
  H  H102  1  0.947000  0.477100  0.172900  1.0
  H  H103  1  0.947000  0.977100  0.327100  1.0
  H  H104  1  0.053000  0.522900  0.827100  1.0
  H  H105  1  0.896400  0.994100  0.527700  1.0
  H  H106  1  0.103600  0.505900  0.027700  1.0
  H  H107  1  0.103600  0.005900  0.472300  1.0
  H  H108  1  0.896400  0.494100  0.972300  1.0
  H  H109  1  0.952500  0.119400  0.487000  1.0
  H  H110  1  0.047500  0.380600  0.987000  1.0
  H  H111  1  0.047500  0.880600  0.513000  1.0
  H  H112  1  0.952500  0.619400  0.013000  1.0
  H  H113  1  0.952200  0.912300  0.672400  1.0
  H  H114  1  0.047800  0.587700  0.172400  1.0
  H  H115  1  0.047800  0.087700  0.327600  1.0
  H  H116  1  0.952200  0.412300  0.827600  1.0
  H  H117  1  0.916700  0.882500  0.601300  1.0
  H  H118  1  0.083300  0.617500  0.101300  1.0
  H  H119  1  0.083300  0.117500  0.398700  1.0
  H  H120  1  0.916700  0.382500  0.898700  1.0
  H  H121  1  0.873500  0.926300  0.649000  1.0
  H  H122  1  0.126500  0.573700  0.149000  1.0
  H  H123  1  0.126500  0.073700  0.351000  1.0
  H  H124  1  0.873500  0.426300  0.851000  1.0
  H  H125  1  0.000200  0.114000  0.773500  1.0
  H  H126  1  0.999800  0.386000  0.273500  1.0
  H  H127  1  0.999800  0.886000  0.226500  1.0
  H  H128  1  0.000200  0.614000  0.726500  1.0
  H  H129  1  0.983800  0.275000  0.654800  1.0
  H  H130  1  0.016200  0.225000  0.154800  1.0
  H  H131  1  0.016200  0.725000  0.345200  1.0
  H  H132  1  0.983800  0.775000  0.845200  1.0
  H  H133  1  0.072600  0.199100  0.848800  1.0
  H  H134  1  0.927400  0.300900  0.348800  1.0
  H  H135  1  0.927400  0.800900  0.151200  1.0
  H  H136  1  0.072600  0.699100  0.651200  1.0
  H  H137  1  0.045600  0.369200  0.730500  1.0
  H  H138  1  0.954400  0.130800  0.230500  1.0
  H  H139  1  0.954400  0.630800  0.269500  1.0
  H  H140  1  0.045600  0.869200  0.769500  1.0
  H  H141  1  0.155800  0.420100  0.813600  1.0
  H  H142  1  0.844200  0.079900  0.313600  1.0
  H  H143  1  0.844200  0.579900  0.186400  1.0
  H  H144  1  0.155800  0.920100  0.686400  1.0
  H  H145  1  0.212100  0.389500  0.968800  1.0
  H  H146  1  0.787900  0.110500  0.468800  1.0
  H  H147  1  0.787900  0.610500  0.031200  1.0
  H  H148  1  0.212100  0.889500  0.531200  1.0
  H  H149  1  0.208200  0.549700  0.839000  1.0
  H  H150  1  0.791800  0.950300  0.339000  1.0
  H  H151  1  0.791800  0.450300  0.161000  1.0
  H  H152  1  0.208200  0.049700  0.661000  1.0
  H  H153  1  0.275900  0.474800  0.041100  1.0
  H  H154  1  0.724100  0.025200  0.541100  1.0
  H  H155  1  0.724100  0.525200  0.958900  1.0
  H  H156  1  0.275900  0.974800  0.458900  1.0
  H  H157  1  0.269400  0.646100  0.919500  1.0
  H  H158  1  0.730600  0.853900  0.419500  1.0
  H  H159  1  0.730600  0.353900  0.080500  1.0
  H  H160  1  0.269400  0.146100  0.580500  1.0
  H  H161  1  0.377500  0.811500  0.068500  1.0
  H  H162  1  0.622500  0.688500  0.568500  1.0
  H  H163  1  0.622500  0.188500  0.931500  1.0
  H  H164  1  0.377500  0.311500  0.431500  1.0
  H  H165  1  0.387100  0.647500  0.198200  1.0
  H  H166  1  0.612900  0.852500  0.698200  1.0
  H  H167  1  0.612900  0.352500  0.801800  1.0
  H  H168  1  0.387100  0.147500  0.301800  1.0
  H  H169  1  0.428300  0.898700  0.143200  1.0
  H  H170  1  0.571700  0.601300  0.643200  1.0
  H  H171  1  0.571700  0.101300  0.856800  1.0
  H  H172  1  0.428300  0.398700  0.356800  1.0
  H  H173  1  0.451200  0.744200  0.274300  1.0
  H  H174  1  0.548800  0.755800  0.774300  1.0
  H  H175  1  0.548800  0.255800  0.725700  1.0
  H  H176  1  0.451200  0.244200  0.225700  1.0
  H  H177  1  0.403300  0.154500  0.647800  1.0
  H  H178  1  0.596700  0.345500  0.147800  1.0
  H  H179  1  0.596700  0.845500  0.352200  1.0
  H  H180  1  0.403300  0.654500  0.852200  1.0
  H  H181  1  0.424300  0.051400  0.590800  1.0
  H  H182  1  0.575700  0.448600  0.090800  1.0
  H  H183  1  0.575700  0.948600  0.409200  1.0
  H  H184  1  0.424300  0.551400  0.909200  1.0
  H  H185  1  0.474000  0.896600  0.674100  1.0
  H  H186  1  0.526000  0.603400  0.174100  1.0
  H  H187  1  0.526000  0.103400  0.325900  1.0
  H  H188  1  0.474000  0.396600  0.825900  1.0
  H  H189  1  0.412900  0.939400  0.770500  1.0
  H  H190  1  0.587100  0.560600  0.270500  1.0
  H  H191  1  0.587100  0.060600  0.229500  1.0
  H  H192  1  0.412900  0.439400  0.729500  1.0
  H  H193  1  0.379800  0.038400  0.820700  1.0
  H  H194  1  0.620200  0.461600  0.320700  1.0
  H  H195  1  0.620200  0.961600  0.179300  1.0
  H  H196  1  0.379800  0.538400  0.679300  1.0
  H  H197  1  0.341100  0.836700  0.668000  1.0
  H  H198  1  0.658900  0.663300  0.168000  1.0
  H  H199  1  0.658900  0.163300  0.332000  1.0
  H  H200  1  0.341100  0.336700  0.832000  1.0
  H  H201  1  0.386900  0.804700  0.612900  1.0
  H  H202  1  0.613100  0.695300  0.112900  1.0
  H  H203  1  0.613100  0.195300  0.387100  1.0
  H  H204  1  0.386900  0.304700  0.887100  1.0
  H  H205  1  0.341200  0.863400  0.592300  1.0
  H  H206  1  0.658800  0.636600  0.092300  1.0
  H  H207  1  0.658800  0.136600  0.407700  1.0
  H  H208  1  0.341200  0.363400  0.907700  1.0
  H  H209  1  0.536900  0.979700  0.590100  1.0
  H  H210  1  0.463100  0.520300  0.090100  1.0
  H  H211  1  0.463100  0.020300  0.409900  1.0
  H  H212  1  0.536900  0.479700  0.909900  1.0
  H  H213  1  0.461800  0.953900  0.544600  1.0
  H  H214  1  0.538200  0.546100  0.044600  1.0
  H  H215  1  0.538200  0.046100  0.455400  1.0
  H  H216  1  0.461800  0.453900  0.955400  1.0
  H  H217  1  0.507700  0.894600  0.562900  1.0
  H  H218  1  0.492300  0.605400  0.062900  1.0
  H  H219  1  0.492300  0.105400  0.437100  1.0
  H  H220  1  0.507700  0.394600  0.937100  1.0
  H  H221  1  0.096600  0.254100  0.572700  1.0
  H  H222  1  0.903400  0.245900  0.072700  1.0
  H  H223  1  0.903400  0.745900  0.427300  1.0
  H  H224  1  0.096600  0.754100  0.927300  1.0
  H  H225  1  0.363300  0.205200  0.747800  1.0
  H  H226  1  0.636700  0.294800  0.247800  1.0
  H  H227  1  0.636700  0.794800  0.252200  1.0
  H  H228  1  0.363300  0.705200  0.752200  1.0
  H  H229  1  0.407400  0.182900  0.809700  1.0
  H  H230  1  0.592600  0.317100  0.309700  1.0
  H  H231  1  0.592600  0.817100  0.190300  1.0
  H  H232  1  0.407400  0.682900  0.690300  1.0
  H  H233  1  0.317800  0.142200  0.799500  1.0
  H  H234  1  0.682200  0.357800  0.299500  1.0
  H  H235  1  0.682200  0.857800  0.200500  1.0
  H  H236  1  0.317800  0.642200  0.700500  1.0
  H  H237  1  0.189500  0.203800  0.531500  1.0
  H  H238  1  0.810500  0.296200  0.031500  1.0
  H  H239  1  0.810500  0.796200  0.468500  1.0
  H  H240  1  0.189500  0.703800  0.968500  1.0
  H  H241  1  0.190000  0.282700  0.498000  1.0
  H  H242  1  0.810000  0.217300  0.998000  1.0
  H  H243  1  0.810000  0.717300  0.502000  1.0
  H  H244  1  0.190000  0.782700  0.002000  1.0
  H  H245  1  0.154500  0.204900  0.458700  1.0
  H  H246  1  0.845500  0.295100  0.958700  1.0
  H  H247  1  0.845500  0.795100  0.541300  1.0
  H  H248  1  0.154500  0.704900  0.041300  1.0
  H  H249  1  0.990600  0.261700  0.502600  1.0
  H  H250  1  0.009400  0.238300  0.002600  1.0
  H  H251  1  0.009400  0.738300  0.497400  1.0
  H  H252  1  0.990600  0.761700  0.997400  1.0
  H  H253  1  0.029500  0.234300  0.439800  1.0
  H  H254  1  0.970500  0.265700  0.939800  1.0
  H  H255  1  0.970500  0.765700  0.560200  1.0
  H  H256  1  0.029500  0.734300  0.060200  1.0
  H  H257  1  0.069500  0.314800  0.473300  1.0
  H  H258  1  0.930500  0.185200  0.973300  1.0
  H  H259  1  0.930500  0.685200  0.526700  1.0
  H  H260  1  0.069500  0.814800  0.026700  1.0
  Ru  Ru261  1  0.951940  0.106630  0.629100  1.0
  Ru  Ru262  1  0.048060  0.393370  0.129100  1.0
  Ru  Ru263  1  0.048060  0.893370  0.370900  1.0
  Ru  Ru264  1  0.951940  0.606630  0.870900  1.0
  Ru  Ru265  1  0.495980  0.082730  0.718630  1.0
  Ru  Ru266  1  0.504020  0.417270  0.218630  1.0
  Ru  Ru267  1  0.504020  0.917270  0.281370  1.0
  Ru  Ru268  1  0.495980  0.582730  0.781370  1.0
  C  C269  1  0.435000  0.913600  0.923700  1
  C  C270  1  0.565000  0.586400  0.423700  1
  C  C271  1  0.565000  0.086400  0.076300  1
  C  C272  1  0.435000  0.413600  0.576300  1
  C  C273  1  0.189200  0.499400  0.639100  1
  C  C274  1  0.810800  0.000600  0.139100  1
  C  C275  1  0.810800  0.500600  0.360900  1
  C  C276  1  0.189200  0.999400  0.860900  1
  C  C277  1  0.921900  0.980100  0.933200  1
  C  C278  1  0.078100  0.519900  0.433200  1
  C  C279  1  0.078100  0.019900  0.066800  1
  C  C280  1  0.921900  0.480100  0.566800  1
  C  C281  1  0.240100  0.283700  0.704300  1
  C  C282  1  0.759900  0.216300  0.204300  1
  C  C283  1  0.759900  0.716300  0.295700  1
  C  C284  1  0.240100  0.783700  0.795700  1
  C  C285  1  0.831900  0.701100  0.676800  1
  C  C286  1  0.168100  0.798900  0.176800  1
  C  C287  1  0.168100  0.298900  0.323200  1
  C  C288  1  0.831900  0.201100  0.823200  1
  C  C289  1  0.804700  0.750000  0.711500  1
  C  C290  1  0.195300  0.750000  0.211500  1
  C  C291  1  0.195300  0.250000  0.288500  1
  C  C292  1  0.804700  0.250000  0.788500  1
  C  C293  1  0.789100  0.601600  0.596500  1
  C  C294  1  0.210900  0.898400  0.096500  1
  C  C295  1  0.210900  0.398400  0.403500  1
  C  C296  1  0.789100  0.101600  0.903500  1
  C  C297  1  0.726700  0.556900  0.548800  1
  C  C298  1  0.273300  0.943100  0.048800  1
  C  C299  1  0.273300  0.443100  0.451200  1
  C  C300  1  0.726700  0.056900  0.951200  1
  C  C301  1  0.673700  0.888800  0.839400  1.0
  C  C302  1  0.326300  0.611200  0.339400  1.0
  C  C303  1  0.326300  0.111200  0.160600  1.0
  C  C304  1  0.673700  0.388800  0.660600  1.0
  C  C305  1  0.745800  0.891100  0.825000  1.0
  C  C306  1  0.254200  0.608900  0.325000  1.0
  C  C307  1  0.254200  0.108900  0.175000  1.0
  C  C308  1  0.745800  0.391100  0.675000  1.0
  C  C309  1  0.641100  0.939500  0.809900  1.0
  C  C310  1  0.358900  0.560500  0.309900  1.0
  C  C311  1  0.358900  0.060500  0.190100  1.0
  C  C312  1  0.641100  0.439500  0.690100  1.0
  C  C313  1  0.789900  0.945800  0.781800  1.0
  C  C314  1  0.210100  0.554200  0.281800  1.0
  C  C315  1  0.210100  0.054200  0.218200  1.0
  C  C316  1  0.789900  0.445800  0.718200  1.0
  C  C317  1  0.683000  0.992400  0.765800  1.0
  C  C318  1  0.317000  0.507600  0.265800  1.0
  C  C319  1  0.317000  0.007600  0.234200  1.0
  C  C320  1  0.683000  0.492400  0.734200  1.0
  C  C321  1  0.756800  0.996400  0.749600  1.0
  C  C322  1  0.243200  0.503600  0.249600  1.0
  C  C323  1  0.243200  0.003600  0.250400  1.0
  C  C324  1  0.756800  0.496400  0.750400  1.0
  C  C325  1  0.646600  0.042900  0.732100  1.0
  C  C326  1  0.353400  0.457100  0.232100  1.0
  C  C327  1  0.353400  0.957100  0.267900  1.0
  C  C328  1  0.646600  0.542900  0.767900  1.0
  C  C329  1  0.800300  0.051200  0.702600  1.0
  C  C330  1  0.199700  0.448800  0.202600  1.0
  C  C331  1  0.199700  0.948800  0.297400  1.0
  C  C332  1  0.800300  0.551200  0.797400  1.0
  C  C333  1  0.685700  0.093400  0.682600  1.0
  C  C334  1  0.314300  0.406600  0.182600  1.0
  C  C335  1  0.314300  0.906600  0.317400  1.0
  C  C336  1  0.685700  0.593400  0.817400  1.0
  C  C337  1  0.766100  0.100700  0.668900  1.0
  C  C338  1  0.233900  0.399300  0.168900  1.0
  C  C339  1  0.233900  0.899300  0.331100  1.0
  C  C340  1  0.766100  0.600700  0.831100  1.0
  C  C341  1  0.647200  0.138600  0.645500  1.0
  C  C342  1  0.352800  0.361400  0.145500  1.0
  C  C343  1  0.352800  0.861400  0.354500  1.0
  C  C344  1  0.647200  0.638600  0.854500  1.0
  C  C345  1  0.806100  0.153400  0.621200  1.0
  C  C346  1  0.193900  0.346600  0.121200  1.0
  C  C347  1  0.193900  0.846600  0.378800  1.0
  C  C348  1  0.806100  0.653400  0.878800  1.0
  C  C349  1  0.689400  0.190700  0.594600  1.0
  C  C350  1  0.310600  0.309300  0.094600  1.0
  C  C351  1  0.310600  0.809300  0.405400  1.0
  C  C352  1  0.689400  0.690700  0.905400  1.0
  C  C353  1  0.766500  0.198700  0.583800  1.0
  C  C354  1  0.233500  0.301300  0.083800  1.0
  C  C355  1  0.233500  0.801300  0.416200  1.0
  C  C356  1  0.766500  0.698700  0.916200  1.0
  C  C357  1  0.652700  0.233400  0.556000  1.0
  C  C358  1  0.347300  0.266600  0.056000  1.0
  C  C359  1  0.347300  0.766600  0.444000  1.0
  C  C360  1  0.652700  0.733400  0.944000  1.0
  C  C361  1  0.806300  0.249800  0.536200  1.0
  C  C362  1  0.193700  0.250200  0.036200  1.0
  C  C363  1  0.193700  0.750200  0.463800  1.0
  C  C364  1  0.806300  0.749800  0.963800  1.0
  C  C365  1  0.691300  0.281600  0.508500  1.0
  C  C366  1  0.308700  0.218400  0.008500  1.0
  C  C367  1  0.308700  0.718400  0.491500  1.0
  C  C368  1  0.691300  0.781600  0.991500  1.0
  C  C369  1  0.769500  0.292200  0.498300  1.0
  C  C370  1  0.230500  0.207800  0.998300  1.0
  C  C371  1  0.230500  0.707800  0.501700  1.0
  C  C372  1  0.769500  0.792200  0.001700  1.0
  C  C373  1  0.039800  0.142800  0.552800  1.0
  C  C374  1  0.960200  0.357200  0.052800  1.0
  C  C375  1  0.960200  0.857200  0.447200  1.0
  C  C376  1  0.039800  0.642800  0.947200  1.0
  C  C377  1  0.071000  0.115700  0.608500  1.0
  C  C378  1  0.929000  0.384300  0.108500  1.0
  C  C379  1  0.929000  0.884300  0.391500  1.0
  C  C380  1  0.071000  0.615700  0.891500  1.0
  C  C381  1  0.033200  0.041300  0.634800  1.0
  C  C382  1  0.966800  0.458700  0.134800  1.0
  C  C383  1  0.966800  0.958700  0.365200  1.0
  C  C384  1  0.033200  0.541300  0.865200  1.0
  C  C385  1  0.967500  0.996900  0.603700  1.0
  C  C386  1  0.032500  0.503100  0.103700  1.0
  C  C387  1  0.032500  0.003100  0.396300  1.0
  C  C388  1  0.967500  0.496900  0.896300  1.0
  C  C389  1  0.940500  0.025500  0.549500  1.0
  C  C390  1  0.059500  0.474500  0.049500  1.0
  C  C391  1  0.059500  0.974500  0.450500  1.0
  C  C392  1  0.940500  0.525500  0.950500  1.0
  C  C393  1  0.974700  0.100500  0.523400  1.0
  C  C394  1  0.025300  0.399500  0.023400  1.0
  C  C395  1  0.025300  0.899500  0.476600  1.0
  C  C396  1  0.974700  0.600500  0.976600  1.0
  C  C397  1  0.923700  0.923200  0.634200  1.0
  C  C398  1  0.076300  0.576800  0.134200  1.0
  C  C399  1  0.076300  0.076800  0.365800  1.0
  C  C400  1  0.923700  0.423200  0.865800  1.0
  C  C401  1  0.012400  0.166600  0.763900  1.0
  C  C402  1  0.987600  0.333400  0.263900  1.0
  C  C403  1  0.987600  0.833400  0.236100  1.0
  C  C404  1  0.012400  0.666600  0.736100  1.0
  C  C405  1  0.001300  0.259900  0.695500  1.0
  C  C406  1  0.998700  0.240100  0.195500  1.0
  C  C407  1  0.998700  0.740100  0.304500  1.0
  C  C408  1  0.001300  0.759900  0.804500  1.0
  C  C409  1  0.052700  0.216200  0.810200  1.0
  C  C410  1  0.947300  0.283800  0.310200  1.0
  C  C411  1  0.947300  0.783800  0.189800  1.0
  C  C412  1  0.052700  0.716200  0.689800  1.0
  C  C413  1  0.038300  0.317100  0.740100  1.0
  C  C414  1  0.961700  0.182900  0.240100  1.0
  C  C415  1  0.961700  0.682900  0.259900  1.0
  C  C416  1  0.038300  0.817100  0.759900  1.0
  C  C417  1  0.063300  0.293900  0.798500  1.0
  C  C418  1  0.936700  0.206100  0.298500  1.0
  C  C419  1  0.936700  0.706100  0.201500  1.0
  C  C420  1  0.063300  0.793900  0.701500  1.0
  C  C421  1  0.111700  0.342500  0.854700  1.0
  C  C422  1  0.888300  0.157500  0.354700  1.0
  C  C423  1  0.888300  0.657500  0.145300  1.0
  C  C424  1  0.111700  0.842500  0.645300  1.0
  C  C425  1  0.321800  0.627600  0.034500  1.0
  C  C426  1  0.678200  0.872400  0.534500  1.0
  C  C427  1  0.678200  0.372400  0.965500  1.0
  C  C428  1  0.321800  0.127600  0.465500  1.0
  C  C429  1  0.337800  0.657000  0.081000  1.0
  C  C430  1  0.662200  0.843000  0.581000  1.0
  C  C431  1  0.662200  0.343000  0.919000  1.0
  C  C432  1  0.337800  0.157000  0.419000  1.0
  C  C433  1  0.199800  0.461100  0.900000  1.0
  C  C434  1  0.800200  0.038900  0.400000  1.0
  C  C435  1  0.800200  0.538900  0.100000  1.0
  C  C436  1  0.199800  0.961100  0.600000  1.0
  C  C437  1  0.223600  0.441800  0.957800  1.0
  C  C438  1  0.776400  0.058200  0.457800  1.0
  C  C439  1  0.776400  0.558200  0.042200  1.0
  C  C440  1  0.223600  0.941800  0.542200  1.0
  C  C441  1  0.220100  0.535600  0.882200  1.0
  C  C442  1  0.779900  0.964400  0.382200  1.0
  C  C443  1  0.779900  0.464400  0.117800  1.0
  C  C444  1  0.220100  0.035600  0.617800  1.0
  C  C445  1  0.261700  0.491600  0.999700  1.0
  C  C446  1  0.738300  0.008400  0.499700  1.0
  C  C447  1  0.738300  0.508400  0.000300  1.0
  C  C448  1  0.261700  0.991600  0.500300  1.0
  C  C449  1  0.260300  0.593800  0.929400  1.0
  C  C450  1  0.739700  0.906200  0.429400  1.0
  C  C451  1  0.739700  0.406200  0.070600  1.0
  C  C452  1  0.260300  0.093800  0.570600  1.0
  C  C453  1  0.283600  0.572000  0.985900  1.0
  C  C454  1  0.716400  0.928000  0.485900  1.0
  C  C455  1  0.716400  0.428000  0.014100  1.0
  C  C456  1  0.283600  0.072000  0.514100  1.0
  C  C457  1  0.373600  0.713200  0.128000  1.0
  C  C458  1  0.626400  0.786800  0.628000  1.0
  C  C459  1  0.626400  0.286800  0.872000  1.0
  C  C460  1  0.373600  0.213200  0.372000  1.0
  C  C461  1  0.390700  0.796800  0.111000  1.0
  C  C462  1  0.609300  0.703200  0.611000  1.0
  C  C463  1  0.609300  0.203200  0.889000  1.0
  C  C464  1  0.390700  0.296800  0.389000  1.0
  C  C465  1  0.396400  0.699000  0.185400  1.0
  C  C466  1  0.603600  0.801000  0.685400  1.0
  C  C467  1  0.603600  0.301000  0.814600  1.0
  C  C468  1  0.396400  0.199000  0.314600  1.0
  C  C469  1  0.422400  0.847000  0.153500  1.0
  C  C470  1  0.577600  0.653000  0.653500  1.0
  C  C471  1  0.577600  0.153000  0.846500  1.0
  C  C472  1  0.422400  0.347000  0.346500  1.0
  C  C473  1  0.435500  0.757400  0.232100  1.0
  C  C474  1  0.564500  0.742600  0.732100  1.0
  C  C475  1  0.564500  0.242600  0.767900  1.0
  C  C476  1  0.435500  0.257400  0.267900  1.0
  C  C477  1  0.385000  0.104200  0.736400  1.0
  C  C478  1  0.615000  0.395800  0.236400  1.0
  C  C479  1  0.615000  0.895800  0.263600  1.0
  C  C480  1  0.385000  0.604200  0.763600  1.0
  C  C481  1  0.401400  0.109300  0.671200  1.0
  C  C482  1  0.598600  0.390700  0.171200  1.0
  C  C483  1  0.598600  0.890700  0.328800  1.0
  C  C484  1  0.401400  0.609300  0.828800  1.0
  C  C485  1  0.416000  0.047900  0.637400  1.0
  C  C486  1  0.584000  0.452100  0.137400  1.0
  C  C487  1  0.584000  0.952100  0.362600  1.0
  C  C488  1  0.416000  0.547900  0.862600  1.0
  C  C489  1  0.418700  0.978800  0.672100  1.0
  C  C490  1  0.581300  0.521200  0.172100  1.0
  C  C491  1  0.581300  0.021200  0.327900  1.0
  C  C492  1  0.418700  0.478800  0.827900  1.0
  C  C493  1  0.442600  0.914400  0.640600  1.0
  C  C494  1  0.557400  0.585600  0.140600  1.0
  C  C495  1  0.557400  0.085600  0.359400  1.0
  C  C496  1  0.442600  0.414400  0.859400  1.0
  C  C497  1  0.407600  0.980300  0.744100  1.0
  C  C498  1  0.592400  0.519700  0.244100  1.0
  C  C499  1  0.592400  0.019700  0.255900  1.0
  C  C500  1  0.407600  0.480300  0.755900  1.0
  C  C501  1  0.389500  0.040000  0.774200  1.0
  C  C502  1  0.610500  0.460000  0.274200  1.0
  C  C503  1  0.610500  0.960000  0.225800  1.0
  C  C504  1  0.389500  0.540000  0.725800  1.0
  C  C505  1  0.371700  0.849100  0.627300  1.0
  C  C506  1  0.628300  0.650900  0.127300  1.0
  C  C507  1  0.628300  0.150900  0.372700  1.0
  C  C508  1  0.371700  0.349100  0.872700  1.0
  C  C509  1  0.491600  0.937700  0.579100  1.0
  C  C510  1  0.508400  0.562300  0.079100  1.0
  C  C511  1  0.508400  0.062300  0.420900  1.0
  C  C512  1  0.491600  0.437700  0.920900  1.0
  C  C513  1  0.086700  0.222700  0.531400  1.0
  C  C514  1  0.913300  0.277300  0.031400  1.0
  C  C515  1  0.913300  0.777300  0.468600  1.0
  C  C516  1  0.086700  0.722700  0.968600  1.0
  C  C517  1  0.366900  0.163600  0.776700  1.0
  C  C518  1  0.633100  0.336400  0.276700  1.0
  C  C519  1  0.633100  0.836400  0.223300  1.0
  C  C520  1  0.366900  0.663600  0.723300  1.0
  C  C521  1  0.161200  0.229000  0.502600  1.0
  C  C522  1  0.838800  0.271000  0.002600  1.0
  C  C523  1  0.838800  0.771000  0.497400  1.0
  C  C524  1  0.161200  0.729000  0.997400  1.0
  C  C525  1  0.039400  0.262300  0.481900  1.0
  C  C526  1  0.960600  0.237700  0.981900  1.0
  C  C527  1  0.960600  0.737700  0.518100  1.0
  C  C528  1  0.039400  0.762300  0.018100  1.0
  S  S529  1  0.444200  0.820900  0.905600  1
  S  S530  1  0.555800  0.679100  0.405600  1
  S  S531  1  0.555800  0.179100  0.094400  1
  S  S532  1  0.444200  0.320900  0.594400  1
  S  S533  1  0.134100  0.548700  0.672400  1
  S  S534  1  0.865900  0.951300  0.172400  1
  S  S535  1  0.865900  0.451300  0.327600  1
  S  S536  1  0.134100  0.048700  0.827600  1
  N  N537  1  0.944400  0.916900  0.912900  1
  N  N538  1  0.055600  0.583100  0.412900  1
  N  N539  1  0.055600  0.083100  0.087100  1
  N  N540  1  0.944400  0.416900  0.587100  1
  N  N541  1  0.989000  0.187200  0.705500  1.0
  N  N542  1  0.011000  0.312800  0.205500  1.0
  N  N543  1  0.011000  0.812800  0.294500  1.0
  N  N544  1  0.989000  0.687200  0.794500  1.0
  N  N545  1  0.449200  0.829300  0.215000  1.0
  N  N546  1  0.550800  0.670700  0.715000  1.0
  N  N547  1  0.550800  0.170700  0.785000  1.0
  N  N548  1  0.449200  0.329300  0.285000  1.0
  N  N549  1  0.151700  0.402200  0.854400  1.0
  N  N550  1  0.848300  0.097800  0.354400  1.0
  N  N551  1  0.848300  0.597800  0.145600  1.0
  N  N552  1  0.151700  0.902200  0.645600  1.0
  O  O553  1  0.448300  0.823100  0.834100  1
  O  O554  1  0.551700  0.676900  0.334100  1
  O  O555  1  0.551700  0.176900  0.165900  1
  O  O556  1  0.448300  0.323100  0.665900  1
  O  O557  1  0.379500  0.770900  0.931000  1
  O  O558  1  0.620500  0.729100  0.431000  1
  O  O559  1  0.620500  0.229100  0.069000  1
  O  O560  1  0.379500  0.270900  0.569000  1
  O  O561  1  0.512800  0.826500  0.937200  1
  O  O562  1  0.487200  0.673500  0.437200  1
  O  O563  1  0.487200  0.173500  0.062800  1
  O  O564  1  0.512800  0.326500  0.562800  1
  O  O565  1  0.065500  0.498800  0.701200  1
  O  O566  1  0.934500  0.001200  0.201200  1
  O  O567  1  0.934500  0.501200  0.298800  1
  O  O568  1  0.065500  0.998800  0.798800  1
  O  O569  1  0.107100  0.579600  0.609400  1
  O  O570  1  0.892900  0.920400  0.109400  1
  O  O571  1  0.892900  0.420400  0.390600  1
  O  O572  1  0.107100  0.079600  0.890600  1
  O  O573  1  0.185100  0.612100  0.704600  1
  O  O574  1  0.814900  0.887900  0.204600  1
  O  O575  1  0.814900  0.387900  0.295400  1
  O  O576  1  0.185100  0.112100  0.795400  1
  O  O577  1  0.922200  0.886800  0.857000  1
  O  O578  1  0.077800  0.613200  0.357000  1
  O  O579  1  0.077800  0.113200  0.143000  1
  O  O580  1  0.922200  0.386800  0.643000  1
  O  O581  1  0.980400  0.892600  0.948000  1
  O  O582  1  0.019600  0.607400  0.448000  1
  O  O583  1  0.019600  0.107400  0.052000  1
  O  O584  1  0.980400  0.392600  0.552000  1
  O  O585  1  0.216800  0.220700  0.684700  1
  O  O586  1  0.783200  0.279300  0.184700  1
  O  O587  1  0.783200  0.779300  0.315300  1
  O  O588  1  0.216800  0.720700  0.815300  1
  O  O589  1  0.771400  0.653800  0.633400  1
  O  O590  1  0.228600  0.846200  0.133400  1
  O  O591  1  0.228600  0.346200  0.366600  1
  O  O592  1  0.771400  0.153800  0.866600  1
  O  O593  1  0.870700  0.051000  0.695700  1.0
  O  O594  1  0.129300  0.449000  0.195700  1.0
  O  O595  1  0.129300  0.949000  0.304300  1.0
  O  O596  1  0.870700  0.551000  0.804300  1.0
  O  O597  1  0.877700  0.167000  0.606500  1.0
  O  O598  1  0.122300  0.333000  0.106500  1.0
  O  O599  1  0.122300  0.833000  0.393500  1.0
  O  O600  1  0.877700  0.667000  0.893500  1.0
  O  O601  1  0.575900  0.032000  0.751200  1.0
  O  O602  1  0.424100  0.468000  0.251200  1.0
  O  O603  1  0.424100  0.968000  0.248800  1.0
  O  O604  1  0.575900  0.532000  0.748800  1.0
  O  O605  1  0.577700  0.140500  0.653600  1.0
  O  O606  1  0.422300  0.359500  0.153600  1.0
  O  O607  1  0.422300  0.859500  0.346400  1.0
  O  O608  1  0.577700  0.640500  0.846400  1.0
  O  O609  1  0.093300  0.312800  0.915900  1.0
  O  O610  1  0.906700  0.187200  0.415900  1.0
  O  O611  1  0.906700  0.687200  0.084100  1.0
  O  O612  1  0.093300  0.812800  0.584100  1.0
  F  F613  1  0.442700  0.917300  0.997500  1
  F  F614  1  0.557300  0.582700  0.497500  1
  F  F615  1  0.557300  0.082700  0.002500  1
  F  F616  1  0.442700  0.417300  0.502500  1
  F  F617  1  0.489800  0.963600  0.900600  1
  F  F618  1  0.510200  0.536400  0.400600  1
  F  F619  1  0.510200  0.036400  0.099400  1
  F  F620  1  0.489800  0.463600  0.599400  1
  F  F621  1  0.368100  0.915300  0.903900  1
  F  F622  1  0.631900  0.584700  0.403900  1
  F  F623  1  0.631900  0.084700  0.096100  1
  F  F624  1  0.368100  0.415300  0.596100  1
  F  F625  1  0.146700  0.434100  0.604800  1
  F  F626  1  0.853300  0.065900  0.104800  1
  F  F627  1  0.853300  0.565900  0.395200  1
  F  F628  1  0.146700  0.934100  0.895200  1
  F  F629  1  0.213100  0.465800  0.701900  1
  F  F630  1  0.786900  0.034200  0.201900  1
  F  F631  1  0.786900  0.534200  0.298100  1
  F  F632  1  0.213100  0.965800  0.798100  1
  F  F633  1  0.249200  0.533000  0.602200  1
  F  F634  1  0.750800  0.967000  0.102200  1
  F  F635  1  0.750800  0.467000  0.397800  1
  F  F636  1  0.249200  0.033000  0.897800  1
