# generated using pymatgen
data_CoH29Ru5C118S3N4Cl12O17F8
_symmetry_space_group_name_H-M   'P 1'
_cell_length_a   18.07150000
_cell_length_b   22.69670000
_cell_length_c   29.97400000
_cell_angle_alpha   90.00000000
_cell_angle_beta   90.00000000
_cell_angle_gamma   109.80700000
_symmetry_Int_Tables_number   1
_chemical_formula_structural   CoH29Ru5C118S3N4Cl12O17F8
_chemical_formula_sum   'Co4 H116 Ru20 C472 S12 N16 Cl48 O68 F32'
_cell_volume   11566.90338667
_cell_formula_units_Z   4
loop_
 _symmetry_equiv_pos_site_id
 _symmetry_equiv_pos_as_xyz
  1  'x, y, z'
loop_
 _atom_site_type_symbol
 _atom_site_label
 _atom_site_symmetry_multiplicity
 _atom_site_fract_x
 _atom_site_fract_y
 _atom_site_fract_z
 _atom_site_occupancy
  Co  Co1  1  0.017600  0.196660  0.142930  1.0
  Co  Co2  1  0.482400  0.303340  0.642930  1.0
  Co  Co3  1  0.982400  0.803340  0.857070  1.0
  Co  Co4  1  0.517600  0.696660  0.357070  1.0
  H  H5  1  0.933800  0.182600  0.219400  1.0
  H  H6  1  0.566200  0.317400  0.719400  1.0
  H  H7  1  0.066200  0.817400  0.780600  1.0
  H  H8  1  0.433800  0.682600  0.280600  1.0
  H  H9  1  0.080100  0.202500  0.227200  1.0
  H  H10  1  0.419900  0.297500  0.727200  1.0
  H  H11  1  0.919900  0.797500  0.772800  1.0
  H  H12  1  0.580100  0.702500  0.272800  1.0
  H  H13  1  0.151900  0.288500  0.172800  1.0
  H  H14  1  0.348100  0.211500  0.672800  1.0
  H  H15  1  0.848100  0.711500  0.827200  1.0
  H  H16  1  0.651900  0.788500  0.327200  1.0
  H  H17  1  0.050000  0.321600  0.131400  1.0
  H  H18  1  0.450000  0.178400  0.631400  1.0
  H  H19  1  0.950000  0.678400  0.868600  1.0
  H  H20  1  0.550000  0.821600  0.368600  1.0
  H  H21  1  0.915200  0.256100  0.160200  1.0
  H  H22  1  0.584800  0.243900  0.660200  1.0
  H  H23  1  0.084800  0.743900  0.839800  1.0
  H  H24  1  0.415200  0.756100  0.339800  1.0
  H  H25  1  0.061300  0.003400  0.240000  1.0
  H  H26  1  0.438700  0.496600  0.740000  1.0
  H  H27  1  0.938700  0.996600  0.760000  1.0
  H  H28  1  0.561300  0.503400  0.260000  1.0
  H  H29  1  0.615700  0.011800  0.865100  1.0
  H  H30  1  0.884300  0.488200  0.365100  1.0
  H  H31  1  0.384300  0.988200  0.134900  1.0
  H  H32  1  0.115700  0.511800  0.634900  1.0
  H  H33  1  0.616800  0.082300  0.921000  1.0
  H  H34  1  0.883200  0.417700  0.421000  1.0
  H  H35  1  0.383200  0.917700  0.079000  1.0
  H  H36  1  0.116800  0.582300  0.579000  1.0
  H  H37  1  0.948500  0.277600  0.837300  1.0
  H  H38  1  0.551500  0.222400  0.337300  1.0
  H  H39  1  0.051500  0.722400  0.162700  1.0
  H  H40  1  0.448500  0.777600  0.662700  1.0
  H  H41  1  0.015900  0.275300  0.045400  1.0
  H  H42  1  0.484100  0.224700  0.545400  1.0
  H  H43  1  0.984100  0.724700  0.954600  1.0
  H  H44  1  0.515900  0.775300  0.454600  1.0
  H  H45  1  0.943500  0.311000  0.998300  1.0
  H  H46  1  0.556500  0.189000  0.498300  1.0
  H  H47  1  0.056500  0.689000  0.001700  1.0
  H  H48  1  0.443500  0.811000  0.501700  1.0
  H  H49  1  0.776400  0.147100  0.993400  1.0
  H  H50  1  0.723600  0.352900  0.493400  1.0
  H  H51  1  0.223600  0.852900  0.006600  1.0
  H  H52  1  0.276400  0.647100  0.506600  1.0
  H  H53  1  0.841000  0.106500  0.040300  1.0
  H  H54  1  0.659000  0.393500  0.540300  1.0
  H  H55  1  0.159000  0.893500  0.959700  1.0
  H  H56  1  0.341000  0.606500  0.459700  1.0
  H  H57  1  0.268100  0.231700  0.812300  1.0
  H  H58  1  0.231900  0.268300  0.312300  1.0
  H  H59  1  0.731900  0.768300  0.187700  1.0
  H  H60  1  0.768100  0.731700  0.687700  1.0
  H  H61  1  0.273100  0.306200  0.863000  1.0
  H  H62  1  0.226900  0.193800  0.363000  1.0
  H  H63  1  0.726900  0.693800  0.137000  1.0
  H  H64  1  0.773100  0.806200  0.637000  1.0
  H  H65  1  0.484600  0.188000  0.988600  1.0
  H  H66  1  0.015400  0.312000  0.488600  1.0
  H  H67  1  0.515400  0.812000  0.011400  1.0
  H  H68  1  0.984600  0.688000  0.511400  1.0
  H  H69  1  0.798700  0.925800  0.166100  1.0
  H  H70  1  0.701300  0.574200  0.666100  1.0
  H  H71  1  0.201300  0.074200  0.833900  1.0
  H  H72  1  0.298700  0.425800  0.333900  1.0
  H  H73  1  0.917800  0.992900  0.144100  1.0
  H  H74  1  0.582200  0.507100  0.644100  1.0
  H  H75  1  0.082200  0.007100  0.855900  1.0
  H  H76  1  0.417800  0.492900  0.355900  1.0
  H  H77  1  0.805500  0.121100  0.127700  1.0
  H  H78  1  0.694500  0.378900  0.627700  1.0
  H  H79  1  0.194500  0.878900  0.872300  1.0
  H  H80  1  0.305500  0.621100  0.372300  1.0
  H  H81  1  0.692200  0.053100  0.152900  1.0
  H  H82  1  0.807800  0.446900  0.652900  1.0
  H  H83  1  0.307800  0.946900  0.847100  1.0
  H  H84  1  0.192200  0.553100  0.347100  1.0
  H  H85  1  0.202300  0.269800  0.973200  1.0
  H  H86  1  0.297700  0.230200  0.473200  1.0
  H  H87  1  0.797700  0.730200  0.026800  1.0
  H  H88  1  0.702300  0.769800  0.526800  1.0
  H  H89  1  0.945600  0.204900  0.785200  1.0
  H  H90  1  0.554400  0.295100  0.285200  1.0
  H  H91  1  0.054400  0.795100  0.214800  1.0
  H  H92  1  0.445600  0.704900  0.714800  1.0
  H  H93  1  0.327100  0.271500  0.079300  1.0
  H  H94  1  0.172900  0.228500  0.579300  1.0
  H  H95  1  0.672900  0.728500  0.920700  1.0
  H  H96  1  0.827100  0.771500  0.420700  1.0
  H  H97  1  0.221500  0.215900  0.117600  1.0
  H  H98  1  0.278500  0.284100  0.617600  1.0
  H  H99  1  0.778500  0.784100  0.882400  1.0
  H  H100  1  0.721500  0.715900  0.382400  1.0
  H  H101  1  0.089300  0.213500  0.008400  1.0
  H  H102  1  0.410700  0.286500  0.508400  1.0
  H  H103  1  0.910700  0.786500  0.991600  1.0
  H  H104  1  0.589300  0.713500  0.491600  1.0
  H  H105  1  0.473300  0.111500  0.940400  1.0
  H  H106  1  0.026700  0.388500  0.440400  1.0
  H  H107  1  0.526700  0.888500  0.059600  1.0
  H  H108  1  0.973300  0.611500  0.559600  1.0
  H  H109  1  0.172600  0.096200  0.108200  1.0
  H  H110  1  0.327400  0.403800  0.608200  1.0
  H  H111  1  0.827400  0.903800  0.891800  1.0
  H  H112  1  0.672600  0.596200  0.391800  1.0
  H  H113  1  0.227700  0.038500  0.152600  1.0
  H  H114  1  0.272300  0.461500  0.652600  1.0
  H  H115  1  0.772300  0.961500  0.847400  1.0
  H  H116  1  0.727700  0.538500  0.347400  1.0
  H  H117  1  0.008500  0.069100  0.204000  1.0
  H  H118  1  0.491500  0.430900  0.704000  1.0
  H  H119  1  0.991500  0.930900  0.796000  1.0
  H  H120  1  0.508500  0.569100  0.296000  1.0
  Ru  Ru121  1  0.752500  0.004800  0.757750  1
  Ru  Ru122  1  0.747500  0.495200  0.257750  1
  Ru  Ru123  1  0.247500  0.995200  0.242250  1
  Ru  Ru124  1  0.252500  0.504800  0.742250  1
  Ru  Ru125  1  0.364640  0.074460  0.806280  1.0
  Ru  Ru126  1  0.135360  0.425540  0.306280  1.0
  Ru  Ru127  1  0.635360  0.925540  0.193720  1.0
  Ru  Ru128  1  0.864640  0.574460  0.693720  1.0
  Ru  Ru129  1  0.784950  0.276210  0.952010  1.0
  Ru  Ru130  1  0.715050  0.223790  0.452010  1.0
  Ru  Ru131  1  0.215050  0.723790  0.047990  1.0
  Ru  Ru132  1  0.284950  0.776210  0.547990  1.0
  Ru  Ru133  1  0.379890  0.346540  0.997680  1.0
  Ru  Ru134  1  0.120110  0.153460  0.497680  1.0
  Ru  Ru135  1  0.620110  0.653460  0.002320  1.0
  Ru  Ru136  1  0.879890  0.846540  0.502320  1.0
  Ru  Ru137  1  0.800100  0.022800  0.750450  1.0
  Ru  Ru138  1  0.699900  0.477200  0.250450  1.0
  Ru  Ru139  1  0.199900  0.977200  0.249550  1.0
  Ru  Ru140  1  0.300100  0.522800  0.749550  1.0
  C  C141  1  0.272300  0.460000  0.506400  1
  C  C142  1  0.227700  0.040000  0.006400  1
  C  C143  1  0.727700  0.540000  0.493600  1
  C  C144  1  0.772300  0.960000  0.993600  1
  C  C145  1  0.547200  0.084000  0.065800  1
  C  C146  1  0.952800  0.416000  0.565800  1
  C  C147  1  0.452800  0.916000  0.934200  1
  C  C148  1  0.047200  0.584000  0.434200  1
  C  C149  1  0.696000  0.923000  0.718400  1
  C  C150  1  0.804000  0.577000  0.218400  1
  C  C151  1  0.304000  0.077000  0.281600  1
  C  C152  1  0.196000  0.423000  0.781600  1
  C  C153  1  0.033400  0.130000  0.908900  1
  C  C154  1  0.466600  0.370000  0.408900  1
  C  C155  1  0.966600  0.870000  0.091100  1
  C  C156  1  0.533400  0.630000  0.591100  1
  C  C157  1  0.572700  0.104500  0.655000  1
  C  C158  1  0.927300  0.395500  0.155000  1
  C  C159  1  0.427300  0.895500  0.345000  1
  C  C160  1  0.072700  0.604500  0.845000  1
  C  C161  1  0.513000  0.044000  0.647600  1
  C  C162  1  0.987000  0.456000  0.147600  1
  C  C163  1  0.487000  0.956000  0.352400  1
  C  C164  1  0.013000  0.544000  0.852400  1
  C  C165  1  0.494500  0.046200  0.580500  1
  C  C166  1  0.005500  0.453800  0.080500  1
  C  C167  1  0.505500  0.953800  0.419500  1
  C  C168  1  0.994500  0.546200  0.919500  1
  C  C169  1  0.481600  0.983200  0.662600  1
  C  C170  1  0.018400  0.516800  0.162600  1
  C  C171  1  0.518400  0.016800  0.337400  1
  C  C172  1  0.981600  0.483200  0.837400  1
  C  C173  1  0.526000  0.107000  0.578400  1
  C  C174  1  0.974000  0.393000  0.078400  1
  C  C175  1  0.474000  0.893000  0.421600  1
  C  C176  1  0.026000  0.607000  0.921600  1
  C  C177  1  0.418000  0.049000  0.641100  1
  C  C178  1  0.082000  0.451000  0.141100  1
  C  C179  1  0.582000  0.951000  0.358900  1
  C  C180  1  0.918000  0.549000  0.858900  1
  C  C181  1  0.583000  0.062000  0.609000  1
  C  C182  1  0.917000  0.438000  0.109000  1
  C  C183  1  0.417000  0.938000  0.391000  1
  C  C184  1  0.083000  0.562000  0.891000  1
  C  C185  1  0.003000  0.152000  0.329000  1
  C  C186  1  0.497000  0.348000  0.829000  1
  C  C187  1  0.997000  0.848000  0.671000  1
  C  C188  1  0.503000  0.652000  0.171000  1
  C  C189  1  0.465400  0.234400  0.086700  1
  C  C190  1  0.034600  0.265600  0.586700  1
  C  C191  1  0.534600  0.765600  0.913300  1
  C  C192  1  0.965400  0.734400  0.413300  1
  C  C193  1  0.372000  0.144000  0.138800  1
  C  C194  1  0.128000  0.356000  0.638800  1
  C  C195  1  0.628000  0.856000  0.861200  1
  C  C196  1  0.872000  0.644000  0.361200  1
  C  C197  1  0.432000  0.207000  0.117000  1
  C  C198  1  0.068000  0.293000  0.617000  1
  C  C199  1  0.568000  0.793000  0.883000  1
  C  C200  1  0.932000  0.707000  0.383000  1
  C  C201  1  0.573000  0.843000  0.576900  1
  C  C202  1  0.927000  0.657000  0.076900  1
  C  C203  1  0.427000  0.157000  0.423100  1
  C  C204  1  0.073000  0.343000  0.923100  1
  C  C205  1  0.638000  0.929000  0.588700  1
  C  C206  1  0.862000  0.571000  0.088700  1
  C  C207  1  0.362000  0.071000  0.411300  1
  C  C208  1  0.138000  0.429000  0.911300  1
  C  C209  1  0.517100  0.624100  0.774100  1
  C  C210  1  0.982900  0.875900  0.274100  1
  C  C211  1  0.482900  0.375900  0.225900  1
  C  C212  1  0.017100  0.124100  0.725900  1
  C  C213  1  0.596000  0.653000  0.741000  1
  C  C214  1  0.904000  0.847000  0.241000  1
  C  C215  1  0.404000  0.347000  0.259000  1
  C  C216  1  0.096000  0.153000  0.759000  1
  C  C217  1  0.578000  0.605000  0.776100  1
  C  C218  1  0.922000  0.895000  0.276100  1
  C  C219  1  0.422000  0.395000  0.223900  1
  C  C220  1  0.078000  0.105000  0.723900  1
  C  C221  1  0.663700  0.655700  0.833500  1
  C  C222  1  0.836300  0.844300  0.333500  1
  C  C223  1  0.336300  0.344300  0.166500  1
  C  C224  1  0.163700  0.155700  0.666500  1
  C  C225  1  0.676000  0.678000  0.802000  1
  C  C226  1  0.824000  0.822000  0.302000  1
  C  C227  1  0.324000  0.322000  0.198000  1
  C  C228  1  0.176000  0.178000  0.698000  1
  C  C229  1  0.703000  0.726000  0.794300  1
  C  C230  1  0.797000  0.774000  0.294300  1
  C  C231  1  0.297000  0.274000  0.205700  1
  C  C232  1  0.203000  0.226000  0.705700  1
  C  C233  1  0.631000  0.681300  0.829600  1
  C  C234  1  0.869000  0.818700  0.329600  1
  C  C235  1  0.369000  0.318700  0.170400  1
  C  C236  1  0.131000  0.181300  0.670400  1
  C  C237  1  0.280000  0.509000  0.053000  1
  C  C238  1  0.220000  0.991000  0.553000  1
  C  C239  1  0.720000  0.491000  0.947000  1
  C  C240  1  0.780000  0.009000  0.447000  1
  C  C241  1  0.227000  0.396000  0.086100  1
  C  C242  1  0.273000  0.104000  0.586100  1
  C  C243  1  0.773000  0.604000  0.913900  1
  C  C244  1  0.727000  0.896000  0.413900  1
  C  C245  1  0.269000  0.431000  0.047300  1
  C  C246  1  0.231000  0.069000  0.547300  1
  C  C247  1  0.731000  0.569000  0.952700  1
  C  C248  1  0.769000  0.931000  0.452700  1
  C  C249  1  0.886000  0.116000  0.676000  1
  C  C250  1  0.614000  0.384000  0.176000  1
  C  C251  1  0.114000  0.884000  0.324000  1
  C  C252  1  0.386000  0.616000  0.824000  1
  C  C253  1  0.846000  0.004000  0.685000  1
  C  C254  1  0.654000  0.496000  0.185000  1
  C  C255  1  0.154000  0.996000  0.315000  1
  C  C256  1  0.346000  0.504000  0.815000  1
  C  C257  1  0.479300  0.096900  0.778400  1.0
  C  C258  1  0.020700  0.403100  0.278400  1.0
  C  C259  1  0.520700  0.903100  0.221600  1.0
  C  C260  1  0.979300  0.596900  0.721600  1.0
  C  C261  1  0.450900  0.033100  0.787500  1.0
  C  C262  1  0.049100  0.466900  0.287500  1.0
  C  C263  1  0.549100  0.966900  0.212500  1.0
  C  C264  1  0.950900  0.533100  0.712500  1.0
  C  C265  1  0.378600  0.995900  0.770500  1.0
  C  C266  1  0.121400  0.504100  0.270500  1.0
  C  C267  1  0.621400  0.004100  0.229500  1.0
  C  C268  1  0.878600  0.495900  0.729500  1.0
  C  C269  1  0.334800  0.022500  0.744200  1.0
  C  C270  1  0.165200  0.477500  0.244200  1.0
  C  C271  1  0.665200  0.977500  0.255800  1.0
  C  C272  1  0.834800  0.522500  0.755800  1.0
  C  C273  1  0.363300  0.086300  0.735100  1.0
  C  C274  1  0.136700  0.413700  0.235100  1.0
  C  C275  1  0.636700  0.913700  0.264900  1.0
  C  C276  1  0.863300  0.586300  0.764900  1.0
  C  C277  1  0.435500  0.123500  0.752200  1.0
  C  C278  1  0.064500  0.376500  0.252200  1.0
  C  C279  1  0.564500  0.876500  0.247800  1.0
  C  C280  1  0.935500  0.623500  0.747800  1.0
  C  C281  1  0.672800  0.010200  0.708500  1.0
  C  C282  1  0.827200  0.489800  0.208500  1.0
  C  C283  1  0.327200  0.989800  0.291500  1.0
  C  C284  1  0.172800  0.510200  0.791500  1.0
  C  C285  1  0.654000  0.947900  0.721100  1.0
  C  C286  1  0.846000  0.552100  0.221100  1.0
  C  C287  1  0.346000  0.052100  0.278900  1.0
  C  C288  1  0.154000  0.447900  0.778900  1.0
  C  C289  1  0.710000  0.918600  0.717600  1.0
  C  C290  1  0.790000  0.581400  0.217600  1.0
  C  C291  1  0.290000  0.081400  0.282400  1.0
  C  C292  1  0.210000  0.418600  0.782400  1.0
  C  C293  1  0.784700  0.951600  0.701500  1.0
  C  C294  1  0.715300  0.548400  0.201500  1.0
  C  C295  1  0.215300  0.048400  0.298500  1.0
  C  C296  1  0.284700  0.451600  0.798500  1.0
  C  C297  1  0.974500  0.212400  0.203000  1.0
  C  C298  1  0.525500  0.287600  0.703000  1.0
  C  C299  1  0.025500  0.787600  0.797000  1.0
  C  C300  1  0.474500  0.712400  0.297000  1.0
  C  C301  1  0.056400  0.223500  0.207400  1.0
  C  C302  1  0.443600  0.276500  0.707400  1.0
  C  C303  1  0.943600  0.776500  0.792600  1.0
  C  C304  1  0.556400  0.723500  0.292600  1.0
  C  C305  1  0.096600  0.271600  0.176900  1.0
  C  C306  1  0.403400  0.228400  0.676900  1.0
  C  C307  1  0.903400  0.728400  0.823100  1.0
  C  C308  1  0.596600  0.771600  0.323100  1.0
  C  C309  1  0.039600  0.290200  0.153700  1.0
  C  C310  1  0.460400  0.209800  0.653700  1.0
  C  C311  1  0.960400  0.709800  0.846300  1.0
  C  C312  1  0.539600  0.790200  0.346300  1.0
  C  C313  1  0.964100  0.253500  0.169900  1.0
  C  C314  1  0.535900  0.246500  0.669900  1.0
  C  C315  1  0.035900  0.746500  0.830100  1.0
  C  C316  1  0.464100  0.753500  0.330100  1.0
  C  C317  1  0.087700  0.026500  0.214800  1.0
  C  C318  1  0.412300  0.473500  0.714800  1.0
  C  C319  1  0.912300  0.973500  0.785200  1.0
  C  C320  1  0.587700  0.526500  0.285200  1.0
  C  C321  1  0.784200  0.163900  0.872500  1.0
  C  C322  1  0.715800  0.336100  0.372500  1.0
  C  C323  1  0.215800  0.836100  0.127500  1.0
  C  C324  1  0.284200  0.663900  0.627500  1.0
  C  C325  1  0.724700  0.151200  0.902900  1.0
  C  C326  1  0.775300  0.348800  0.402900  1.0
  C  C327  1  0.275300  0.848800  0.097100  1.0
  C  C328  1  0.224700  0.651200  0.597100  1.0
  C  C329  1  0.658800  0.049900  0.867200  1.0
  C  C330  1  0.841200  0.450100  0.367200  1.0
  C  C331  1  0.341200  0.950100  0.132800  1.0
  C  C332  1  0.158800  0.549900  0.632800  1.0
  C  C333  1  0.720400  0.061800  0.836500  1.0
  C  C334  1  0.779600  0.438200  0.336500  1.0
  C  C335  1  0.279600  0.938200  0.163500  1.0
  C  C336  1  0.220400  0.561800  0.663500  1.0
  C  C337  1  0.845700  0.221400  0.872100  1.0
  C  C338  1  0.654300  0.278600  0.372100  1.0
  C  C339  1  0.154300  0.778600  0.127900  1.0
  C  C340  1  0.345700  0.721400  0.627900  1.0
  C  C341  1  0.786000  0.120300  0.838300  1.0
  C  C342  1  0.714000  0.379700  0.338300  1.0
  C  C343  1  0.214000  0.879700  0.161700  1.0
  C  C344  1  0.286000  0.620300  0.661700  1.0
  C  C345  1  0.658800  0.091700  0.900200  1.0
  C  C346  1  0.841200  0.408300  0.400200  1.0
  C  C347  1  0.341200  0.908300  0.099800  1.0
  C  C348  1  0.158800  0.591700  0.599800  1.0
  C  C349  1  0.850000  0.135500  0.807000  1.0
  C  C350  1  0.650000  0.364500  0.307000  1.0
  C  C351  1  0.150000  0.864500  0.193000  1.0
  C  C352  1  0.350000  0.635500  0.693000  1.0
  C  C353  1  0.908300  0.237700  0.837700  1.0
  C  C354  1  0.591700  0.262300  0.337700  1.0
  C  C355  1  0.091700  0.762300  0.162300  1.0
  C  C356  1  0.408300  0.737700  0.662300  1.0
  C  C357  1  0.932900  0.186800  0.049300  1.0
  C  C358  1  0.567100  0.313200  0.549300  1.0
  C  C359  1  0.067100  0.813200  0.950700  1.0
  C  C360  1  0.432900  0.686800  0.450700  1.0
  C  C361  1  0.965800  0.248900  0.035300  1.0
  C  C362  1  0.534200  0.251100  0.535300  1.0
  C  C363  1  0.034200  0.751100  0.964700  1.0
  C  C364  1  0.465800  0.748900  0.464700  1.0
  C  C365  1  0.923100  0.268300  0.007300  1.0
  C  C366  1  0.576900  0.231700  0.507300  1.0
  C  C367  1  0.076900  0.731700  0.992700  1.0
  C  C368  1  0.423100  0.768300  0.492700  1.0
  C  C369  1  0.825900  0.173500  0.004400  1.0
  C  C370  1  0.674100  0.326500  0.504400  1.0
  C  C371  1  0.174100  0.826500  0.995600  1.0
  C  C372  1  0.325900  0.673500  0.495600  1.0
  C  C373  1  0.862500  0.149400  0.032100  1.0
  C  C374  1  0.637500  0.350600  0.532100  1.0
  C  C375  1  0.137500  0.850600  0.967900  1.0
  C  C376  1  0.362500  0.649400  0.467900  1.0
  C  C377  1  0.368500  0.184500  0.888600  1.0
  C  C378  1  0.131500  0.315500  0.388600  1.0
  C  C379  1  0.631500  0.815500  0.111400  1.0
  C  C380  1  0.868500  0.684500  0.611400  1.0
  C  C381  1  0.410600  0.236100  0.963200  1.0
  C  C382  1  0.089400  0.263900  0.463200  1.0
  C  C383  1  0.589400  0.763900  0.036800  1.0
  C  C384  1  0.910600  0.736100  0.536800  1.0
  C  C385  1  0.295000  0.231200  0.839500  1.0
  C  C386  1  0.205000  0.268800  0.339500  1.0
  C  C387  1  0.705000  0.768800  0.160500  1.0
  C  C388  1  0.795000  0.731200  0.660500  1.0
  C  C389  1  0.375100  0.233900  0.923900  1.0
  C  C390  1  0.124900  0.266100  0.423900  1.0
  C  C391  1  0.624900  0.766100  0.076100  1.0
  C  C392  1  0.875100  0.733900  0.576100  1.0
  C  C393  1  0.336600  0.276800  0.914100  1.0
  C  C394  1  0.163400  0.223200  0.414100  1.0
  C  C395  1  0.663400  0.723200  0.085900  1.0
  C  C396  1  0.836600  0.776800  0.585900  1.0
  C  C397  1  0.296800  0.275700  0.869700  1.0
  C  C398  1  0.203200  0.224300  0.369700  1.0
  C  C399  1  0.703200  0.724300  0.130300  1.0
  C  C400  1  0.796800  0.775700  0.630300  1.0
  C  C401  1  0.451800  0.186300  0.963500  1.0
  C  C402  1  0.048200  0.313700  0.463500  1.0
  C  C403  1  0.548200  0.813700  0.036500  1.0
  C  C404  1  0.951800  0.686300  0.536500  1.0
  C  C405  1  0.329300  0.183200  0.844200  1.0
  C  C406  1  0.170700  0.316800  0.344200  1.0
  C  C407  1  0.670700  0.816800  0.155800  1.0
  C  C408  1  0.829300  0.683200  0.655800  1.0
  C  C409  1  0.883900  0.072400  0.131300  1.0
  C  C410  1  0.616100  0.427600  0.631300  1.0
  C  C411  1  0.116100  0.927600  0.868700  1.0
  C  C412  1  0.383900  0.572400  0.368700  1.0
  C  C413  1  0.803100  0.967600  0.158800  1.0
  C  C414  1  0.696900  0.532400  0.658800  1.0
  C  C415  1  0.196900  0.032400  0.841200  1.0
  C  C416  1  0.303100  0.467600  0.341200  1.0
  C  C417  1  0.874000  0.007000  0.145000  1.0
  C  C418  1  0.626000  0.493000  0.645000  1.0
  C  C419  1  0.126000  0.993000  0.855000  1.0
  C  C420  1  0.374000  0.507000  0.355000  1.0
  C  C421  1  0.806000  0.081100  0.136300  1.0
  C  C422  1  0.694000  0.418900  0.636300  1.0
  C  C423  1  0.194000  0.918900  0.863700  1.0
  C  C424  1  0.306000  0.581100  0.363700  1.0
  C  C425  1  0.738000  0.041500  0.151000  1.0
  C  C426  1  0.762000  0.458500  0.651000  1.0
  C  C427  1  0.262000  0.958500  0.849000  1.0
  C  C428  1  0.238000  0.541500  0.349000  1.0
  C  C429  1  0.959200  0.114100  0.116300  1.0
  C  C430  1  0.540800  0.385900  0.616300  1.0
  C  C431  1  0.040800  0.885900  0.883700  1.0
  C  C432  1  0.459200  0.614100  0.383700  1.0
  C  C433  1  0.068500  0.172600  0.088900  1.0
  C  C434  1  0.431500  0.327400  0.588900  1.0
  C  C435  1  0.931500  0.827400  0.911100  1.0
  C  C436  1  0.568500  0.672600  0.411100  1.0
  C  C437  1  0.983800  0.163900  0.083000  1.0
  C  C438  1  0.516200  0.336100  0.583000  1.0
  C  C439  1  0.016200  0.836100  0.917000  1.0
  C  C440  1  0.483800  0.663900  0.417000  1.0
  C  C441  1  0.043800  0.120300  0.124200  1.0
  C  C442  1  0.456200  0.379700  0.624200  1.0
  C  C443  1  0.956200  0.879700  0.875800  1.0
  C  C444  1  0.543800  0.620300  0.375800  1.0
  C  C445  1  0.205000  0.260500  0.003900  1.0
  C  C446  1  0.295000  0.239500  0.503900  1.0
  C  C447  1  0.795000  0.739500  0.996100  1.0
  C  C448  1  0.705000  0.760500  0.496100  1.0
  C  C449  1  0.402100  0.408400  0.059500  1.0
  C  C450  1  0.097900  0.091600  0.559500  1.0
  C  C451  1  0.597900  0.591600  0.940500  1.0
  C  C452  1  0.902100  0.908400  0.440500  1.0
  C  C453  1  0.691500  0.311600  0.935600  1.0
  C  C454  1  0.808500  0.188400  0.435600  1.0
  C  C455  1  0.308500  0.688400  0.064400  1.0
  C  C456  1  0.191500  0.811600  0.564400  1.0
  C  C457  1  0.680100  0.292100  0.981500  1.0
  C  C458  1  0.819900  0.207900  0.481500  1.0
  C  C459  1  0.319900  0.707900  0.018500  1.0
  C  C460  1  0.180100  0.792100  0.518500  1.0
  C  C461  1  0.760700  0.355700  0.917800  1.0
  C  C462  1  0.739300  0.144300  0.417800  1.0
  C  C463  1  0.239300  0.644300  0.082200  1.0
  C  C464  1  0.260700  0.855700  0.582200  1.0
  C  C465  1  0.820000  0.363300  0.995400  1.0
  C  C466  1  0.680000  0.136700  0.495400  1.0
  C  C467  1  0.180000  0.636700  0.004600  1.0
  C  C468  1  0.320000  0.863300  0.504600  1.0
  C  C469  1  0.565000  0.208500  0.811300  1.0
  C  C470  1  0.935000  0.291500  0.311300  1.0
  C  C471  1  0.435000  0.791500  0.188700  1.0
  C  C472  1  0.065000  0.708500  0.688700  1.0
  C  C473  1  0.252000  0.982200  0.728500  1.0
  C  C474  1  0.248000  0.517800  0.228500  1.0
  C  C475  1  0.748000  0.017800  0.271500  1.0
  C  C476  1  0.752000  0.482200  0.771500  1.0
  C  C477  1  0.139500  0.209700  0.067800  1.0
  C  C478  1  0.360500  0.290300  0.567800  1.0
  C  C479  1  0.860500  0.790300  0.932200  1.0
  C  C480  1  0.639500  0.709700  0.432200  1.0
  C  C481  1  0.906000  0.194700  0.807700  1.0
  C  C482  1  0.594000  0.305300  0.307700  1.0
  C  C483  1  0.094000  0.805300  0.192300  1.0
  C  C484  1  0.406000  0.694700  0.692300  1.0
  C  C485  1  0.727000  0.292000  0.059400  1.0
  C  C486  1  0.773000  0.208000  0.559400  1.0
  C  C487  1  0.273000  0.708000  0.940600  1.0
  C  C488  1  0.227000  0.792000  0.440600  1.0
  C  C489  1  0.763000  0.286000  0.074000  1.0
  C  C490  1  0.737000  0.214000  0.574000  1.0
  C  C491  1  0.237000  0.714000  0.926000  1.0
  C  C492  1  0.263000  0.786000  0.426000  1.0
  C  C493  1  0.476600  0.401700  0.040800  1.0
  C  C494  1  0.023400  0.098300  0.540800  1.0
  C  C495  1  0.523400  0.598300  0.959200  1.0
  C  C496  1  0.976600  0.901700  0.459200  1.0
  C  C497  1  0.465000  0.434100  0.966000  1.0
  C  C498  1  0.035000  0.065900  0.466000  1.0
  C  C499  1  0.535000  0.565900  0.034000  1.0
  C  C500  1  0.965000  0.934100  0.534000  1.0
  C  C501  1  0.516000  0.410200  0.998300  1.0
  C  C502  1  0.984000  0.089800  0.498300  1.0
  C  C503  1  0.484000  0.589800  0.001700  1.0
  C  C504  1  0.016000  0.910200  0.501700  1.0
  C  C505  1  0.277800  0.261800  0.064700  1.0
  C  C506  1  0.222200  0.238200  0.564700  1.0
  C  C507  1  0.722200  0.738200  0.935300  1.0
  C  C508  1  0.777800  0.761800  0.435300  1.0
  C  C509  1  0.216000  0.228000  0.087800  1.0
  C  C510  1  0.284000  0.272000  0.587800  1.0
  C  C511  1  0.784000  0.772000  0.912200  1.0
  C  C512  1  0.716000  0.728000  0.412200  1.0
  C  C513  1  0.137600  0.226100  0.024300  1.0
  C  C514  1  0.362400  0.273900  0.524300  1.0
  C  C515  1  0.862400  0.773900  0.975700  1.0
  C  C516  1  0.637600  0.726100  0.475700  1.0
  C  C517  1  0.448400  0.141300  0.934100  1.0
  C  C518  1  0.051600  0.358700  0.434100  1.0
  C  C519  1  0.551600  0.858700  0.065900  1.0
  C  C520  1  0.948400  0.641300  0.565900  1.0
  C  C521  1  0.149000  0.079200  0.135800  1.0
  C  C522  1  0.351000  0.420800  0.635800  1.0
  C  C523  1  0.851000  0.920800  0.864200  1.0
  C  C524  1  0.649000  0.579200  0.364200  1.0
  C  C525  1  0.081300  0.086000  0.150000  1.0
  C  C526  1  0.418700  0.414000  0.650000  1.0
  C  C527  1  0.918700  0.914000  0.850000  1.0
  C  C528  1  0.581300  0.586000  0.350000  1.0
  C  C529  1  0.748900  0.320800  0.012600  1.0
  C  C530  1  0.751100  0.179200  0.512600  1.0
  C  C531  1  0.251100  0.679200  0.987400  1.0
  C  C532  1  0.248900  0.820800  0.487400  1.0
  C  C533  1  0.182400  0.045800  0.163600  1.0
  C  C534  1  0.317600  0.454200  0.663600  1.0
  C  C535  1  0.817600  0.954200  0.836400  1.0
  C  C536  1  0.682400  0.545800  0.336400  1.0
  C  C537  1  0.052800  0.061400  0.191700  1.0
  C  C538  1  0.447200  0.438600  0.691700  1.0
  C  C539  1  0.947200  0.938600  0.808300  1.0
  C  C540  1  0.552800  0.561400  0.308300  1.0
  C  C541  1  0.359000  0.430300  0.027900  1.0
  C  C542  1  0.141000  0.069700  0.527900  1.0
  C  C543  1  0.641000  0.569700  0.972100  1.0
  C  C544  1  0.859000  0.930300  0.472100  1.0
  C  C545  1  0.553700  0.142100  0.798800  1.0
  C  C546  1  0.946300  0.357900  0.298800  1.0
  C  C547  1  0.446300  0.857900  0.201200  1.0
  C  C548  1  0.053700  0.642100  0.701200  1.0
  C  C549  1  0.624000  0.136000  0.767200  1.0
  C  C550  1  0.876000  0.364000  0.267200  1.0
  C  C551  1  0.376000  0.864000  0.232800  1.0
  C  C552  1  0.124000  0.636000  0.732800  1.0
  C  C553  1  0.769000  0.368000  0.862600  1.0
  C  C554  1  0.731000  0.132000  0.362600  1.0
  C  C555  1  0.231000  0.632000  0.137400  1.0
  C  C556  1  0.269000  0.868000  0.637400  1.0
  C  C557  1  0.406500  0.138200  0.892700  1.0
  C  C558  1  0.093500  0.361800  0.392700  1.0
  C  C559  1  0.593500  0.861800  0.107300  1.0
  C  C560  1  0.906500  0.638200  0.607300  1.0
  C  C561  1  0.389400  0.439500  0.988100  1.0
  C  C562  1  0.110600  0.060500  0.488100  1.0
  C  C563  1  0.610600  0.560500  0.011900  1.0
  C  C564  1  0.889400  0.939500  0.511900  1.0
  C  C565  1  0.509000  0.371000  0.071500  1.0
  C  C566  1  0.991000  0.129000  0.571500  1.0
  C  C567  1  0.491000  0.629000  0.928500  1.0
  C  C568  1  0.009000  0.871000  0.428500  1.0
  C  C569  1  0.565000  0.418000  0.103000  1.0
  C  C570  1  0.935000  0.082000  0.603000  1.0
  C  C571  1  0.435000  0.582000  0.897000  1.0
  C  C572  1  0.065000  0.918000  0.397000  1.0
  C  C573  1  0.661000  0.848000  0.739000  1.0
  C  C574  1  0.839000  0.652000  0.239000  1.0
  C  C575  1  0.339000  0.152000  0.261000  1.0
  C  C576  1  0.161000  0.348000  0.761000  1.0
  C  C577  1  0.547000  0.331000  0.060000  1.0
  C  C578  1  0.953000  0.169000  0.560000  1.0
  C  C579  1  0.453000  0.669000  0.940000  1.0
  C  C580  1  0.047000  0.831000  0.440000  1.0
  C  C581  1  0.827600  0.377800  0.950200  1.0
  C  C582  1  0.672400  0.122200  0.450200  1.0
  C  C583  1  0.172400  0.622200  0.049800  1.0
  C  C584  1  0.327600  0.877800  0.549800  1.0
  C  C585  1  0.727000  0.826000  0.752000  1.0
  C  C586  1  0.773000  0.674000  0.252000  1.0
  C  C587  1  0.273000  0.174000  0.248000  1.0
  C  C588  1  0.227000  0.326000  0.748000  1.0
  C  C589  1  0.373000  0.450000  0.931000  1.0
  C  C590  1  0.127000  0.050000  0.431000  1.0
  C  C591  1  0.627000  0.550000  0.069000  1.0
  C  C592  1  0.873000  0.950000  0.569000  1.0
  C  C593  1  0.735000  0.363000  0.079600  1.0
  C  C594  1  0.765000  0.137000  0.579600  1.0
  C  C595  1  0.265000  0.637000  0.920400  1.0
  C  C596  1  0.235000  0.863000  0.420400  1.0
  C  C597  1  0.747500  0.043200  0.692400  1.0
  C  C598  1  0.752500  0.456800  0.192400  1.0
  C  C599  1  0.252500  0.956800  0.307600  1.0
  C  C600  1  0.247500  0.543200  0.807600  1.0
  C  C601  1  0.803500  0.013900  0.688900  1.0
  C  C602  1  0.696500  0.486100  0.188900  1.0
  C  C603  1  0.196500  0.986100  0.311100  1.0
  C  C604  1  0.303500  0.513900  0.811100  1.0
  C  C605  1  0.623000  0.821000  0.689900  1.0
  C  C606  1  0.877000  0.679000  0.189900  1.0
  C  C607  1  0.377000  0.179000  0.310100  1.0
  C  C608  1  0.123000  0.321000  0.810100  1.0
  C  C609  1  0.771000  0.085000  0.683200  1.0
  C  C610  1  0.729000  0.415000  0.183200  1.0
  C  C611  1  0.229000  0.915000  0.316800  1.0
  C  C612  1  0.271000  0.585000  0.816800  1.0
  S  S613  1  0.497800  0.471400  0.521200  1
  S  S614  1  0.002200  0.028600  0.021200  1
  S  S615  1  0.502200  0.528600  0.478800  1
  S  S616  1  0.997800  0.971400  0.978800  1
  S  S617  1  0.990200  0.070700  0.326700  1
  S  S618  1  0.509800  0.429300  0.826700  1
  S  S619  1  0.009800  0.929300  0.673300  1
  S  S620  1  0.490200  0.570700  0.173300  1
  S  S621  1  0.607700  0.935100  0.521200  1
  S  S622  1  0.892300  0.564900  0.021200  1
  S  S623  1  0.392300  0.064900  0.478800  1
  S  S624  1  0.107700  0.435100  0.978800  1
  N  N625  1  0.852400  0.233300  0.989900  1.0
  N  N626  1  0.647600  0.266700  0.489900  1.0
  N  N627  1  0.147600  0.766700  0.010100  1.0
  N  N628  1  0.352400  0.733300  0.510100  1.0
  N  N629  1  0.737300  0.984600  0.162800  1.0
  N  N630  1  0.762700  0.515400  0.662800  1.0
  N  N631  1  0.262700  0.015400  0.837200  1.0
  N  N632  1  0.237300  0.484600  0.337200  1.0
  N  N633  1  0.279900  0.283600  0.023900  1.0
  N  N634  1  0.220100  0.216400  0.523900  1.0
  N  N635  1  0.720100  0.716400  0.976100  1.0
  N  N636  1  0.779900  0.783600  0.476100  1.0
  N  N637  1  0.158100  0.023500  0.203300  1.0
  N  N638  1  0.341900  0.476500  0.703300  1.0
  N  N639  1  0.841900  0.976500  0.796700  1.0
  N  N640  1  0.658100  0.523500  0.296700  1.0
  Cl  Cl641  1  0.228400  0.381000  0.521900  1
  Cl  Cl642  1  0.271600  0.119000  0.021900  1
  Cl  Cl643  1  0.771600  0.619000  0.478100  1
  Cl  Cl644  1  0.728400  0.881000  0.978100  1
  Cl  Cl645  1  0.225000  0.476500  0.459000  1
  Cl  Cl646  1  0.275000  0.023500  0.959000  1
  Cl  Cl647  1  0.775000  0.523500  0.541000  1
  Cl  Cl648  1  0.725000  0.976500  0.041000  1
  Cl  Cl649  1  0.267800  0.509400  0.548800  1
  Cl  Cl650  1  0.232200  0.990600  0.048800  1
  Cl  Cl651  1  0.732200  0.490600  0.451200  1
  Cl  Cl652  1  0.767800  0.009400  0.951200  1
  Cl  Cl653  1  0.609700  0.114900  0.020200  1
  Cl  Cl654  1  0.890300  0.385100  0.520200  1
  Cl  Cl655  1  0.390300  0.885100  0.979800  1
  Cl  Cl656  1  0.109700  0.614900  0.479800  1
  Cl  Cl657  1  0.449000  0.061300  0.045000  1
  Cl  Cl658  1  0.051000  0.438700  0.545000  1
  Cl  Cl659  1  0.551000  0.938700  0.955000  1
  Cl  Cl660  1  0.949000  0.561300  0.455000  1
  Cl  Cl661  1  0.560500  0.015700  0.086000  1
  Cl  Cl662  1  0.939500  0.484300  0.586000  1
  Cl  Cl663  1  0.439500  0.984300  0.914000  1
  Cl  Cl664  1  0.060500  0.515700  0.414000  1
  Cl  Cl665  1  0.977000  0.170800  0.928000  1
  Cl  Cl666  1  0.523000  0.329200  0.428000  1
  Cl  Cl667  1  0.023000  0.829200  0.072000  1
  Cl  Cl668  1  0.477000  0.670800  0.572000  1
  Cl  Cl669  1  0.010000  0.105000  0.854200  1
  Cl  Cl670  1  0.490000  0.395000  0.354200  1
  Cl  Cl671  1  0.990000  0.895000  0.145800  1
  Cl  Cl672  1  0.510000  0.605000  0.645800  1
  Cl  Cl673  1  0.124500  0.167900  0.898500  1
  Cl  Cl674  1  0.375500  0.332100  0.398500  1
  Cl  Cl675  1  0.875500  0.832100  0.101500  1
  Cl  Cl676  1  0.624500  0.667900  0.601500  1
  Cl  Cl677  1  0.142100  0.141000  0.916700  1
  Cl  Cl678  1  0.357900  0.359000  0.416700  1
  Cl  Cl679  1  0.857900  0.859000  0.083300  1
  Cl  Cl680  1  0.642100  0.641000  0.583300  1
  Cl  Cl681  1  0.985000  0.099100  0.862300  1
  Cl  Cl682  1  0.515000  0.400900  0.362300  1
  Cl  Cl683  1  0.015000  0.900900  0.137700  1
  Cl  Cl684  1  0.485000  0.599100  0.637700  1
  Cl  Cl685  1  0.035000  0.211800  0.915000  1
  Cl  Cl686  1  0.465000  0.288200  0.415000  1
  Cl  Cl687  1  0.965000  0.788200  0.085000  1
  Cl  Cl688  1  0.535000  0.711800  0.585000  1
  O  O689  1  0.944000  0.025000  0.360000  1
  O  O690  1  0.556000  0.475000  0.860000  1
  O  O691  1  0.056000  0.975000  0.640000  1
  O  O692  1  0.444000  0.525000  0.140000  1
  O  O693  1  0.950000  0.046000  0.284600  1
  O  O694  1  0.550000  0.454000  0.784600  1
  O  O695  1  0.050000  0.954000  0.715400  1
  O  O696  1  0.450000  0.546000  0.215400  1
  O  O697  1  0.039000  0.060000  0.347400  1
  O  O698  1  0.461000  0.440000  0.847400  1
  O  O699  1  0.961000  0.940000  0.652600  1
  O  O700  1  0.539000  0.560000  0.152600  1
  O  O701  1  0.674700  0.177400  0.167900  1
  O  O702  1  0.825300  0.322600  0.667900  1
  O  O703  1  0.325300  0.822600  0.832100  1
  O  O704  1  0.174700  0.677400  0.332100  1
  O  O705  1  0.740000  0.198100  0.203200  1
  O  O706  1  0.760000  0.301900  0.703200  1
  O  O707  1  0.260000  0.801900  0.796800  1
  O  O708  1  0.240000  0.698100  0.296800  1
  O  O709  1  0.536000  0.436800  0.506800  1
  O  O710  1  0.964000  0.063200  0.006800  1
  O  O711  1  0.464000  0.563200  0.493200  1
  O  O712  1  0.036000  0.936800  0.993200  1
  O  O713  1  0.555100  0.497400  0.550000  1
  O  O714  1  0.944900  0.002600  0.050000  1
  O  O715  1  0.444900  0.502600  0.450000  1
  O  O716  1  0.055100  0.997400  0.950000  1
  O  O717  1  0.429700  0.449000  0.538400  1
  O  O718  1  0.070300  0.051000  0.038400  1
  O  O719  1  0.570300  0.551000  0.461600  1
  O  O720  1  0.929700  0.949000  0.961600  1
  O  O721  1  0.665200  0.625800  0.748700  1
  O  O722  1  0.834800  0.874200  0.248700  1
  O  O723  1  0.334800  0.374200  0.251300  1
  O  O724  1  0.165200  0.125800  0.751300  1
  O  O725  1  0.859700  0.268100  0.901000  1.0
  O  O726  1  0.640300  0.231900  0.401000  1.0
  O  O727  1  0.140300  0.731900  0.099000  1.0
  O  O728  1  0.359700  0.768100  0.599000  1.0
  O  O729  1  0.717500  0.186300  0.936100  1.0
  O  O730  1  0.782500  0.313700  0.436100  1.0
  O  O731  1  0.282500  0.813700  0.063900  1.0
  O  O732  1  0.217500  0.686300  0.563900  1.0
  O  O733  1  0.854500  0.100700  0.775400  1.0
  O  O734  1  0.645500  0.399300  0.275400  1.0
  O  O735  1  0.145500  0.899300  0.224600  1.0
  O  O736  1  0.354500  0.600700  0.724600  1.0
  O  O737  1  0.709300  0.016600  0.809200  1.0
  O  O738  1  0.790700  0.483400  0.309200  1.0
  O  O739  1  0.290700  0.983400  0.190800  1.0
  O  O740  1  0.209300  0.516600  0.690800  1.0
  O  O741  1  0.326100  0.317800  0.937300  1.0
  O  O742  1  0.173900  0.182200  0.437300  1.0
  O  O743  1  0.673900  0.682200  0.062700  1.0
  O  O744  1  0.826100  0.817800  0.562700  1.0
  O  O745  1  0.415800  0.271700  0.994600  1.0
  O  O746  1  0.084200  0.228300  0.494600  1.0
  O  O747  1  0.584200  0.728300  0.005400  1.0
  O  O748  1  0.915800  0.771700  0.505400  1.0
  O  O749  1  0.318300  0.144200  0.814000  1.0
  O  O750  1  0.181700  0.355800  0.314000  1.0
  O  O751  1  0.681700  0.855800  0.186000  1.0
  O  O752  1  0.818300  0.644200  0.686000  1.0
  O  O753  1  0.410700  0.096500  0.871200  1.0
  O  O754  1  0.089300  0.403500  0.371200  1.0
  O  O755  1  0.589300  0.903500  0.128800  1.0
  O  O756  1  0.910700  0.596500  0.628800  1.0
  F  F757  1  0.986300  0.152600  0.375900  1
  F  F758  1  0.513700  0.347400  0.875900  1
  F  F759  1  0.013700  0.847400  0.624100  1
  F  F760  1  0.486300  0.652600  0.124100  1
  F  F761  1  0.914000  0.128000  0.321200  1
  F  F762  1  0.586000  0.372000  0.821200  1
  F  F763  1  0.086000  0.872000  0.678800  1
  F  F764  1  0.414000  0.628000  0.178800  1
  F  F765  1  0.051000  0.117000  0.305000  1
  F  F766  1  0.449000  0.383000  0.805000  1
  F  F767  1  0.949000  0.883000  0.695000  1
  F  F768  1  0.551000  0.617000  0.195000  1
  F  F769  1  0.477000  0.487600  0.556500  1
  F  F770  1  0.023000  0.012400  0.056500  1
  F  F771  1  0.523000  0.512400  0.443500  1
  F  F772  1  0.977000  0.987600  0.943500  1
  F  F773  1  0.458000  0.426000  0.508000  1
  F  F774  1  0.042000  0.074000  0.008000  1
  F  F775  1  0.542000  0.574000  0.492000  1
  F  F776  1  0.958000  0.926000  0.992000  1
  F  F777  1  0.530000  0.867100  0.593100  1
  F  F778  1  0.970000  0.632900  0.093100  1
  F  F779  1  0.470000  0.132900  0.406900  1
  F  F780  1  0.030000  0.367100  0.906900  1
  F  F781  1  0.692400  0.900500  0.582900  1
  F  F782  1  0.807600  0.599500  0.082900  1
  F  F783  1  0.307600  0.099500  0.417100  1
  F  F784  1  0.192400  0.400500  0.917100  1
  F  F785  1  0.570000  0.939000  0.520000  1
  F  F786  1  0.930000  0.561000  0.020000  1
  F  F787  1  0.430000  0.061000  0.480000  1
  F  F788  1  0.070000  0.439000  0.980000  1
