# generated using pymatgen
data_H41Ru2C41N3O5
_symmetry_space_group_name_H-M   'P 1'
_cell_length_a   10.37100000
_cell_length_b   27.31800000
_cell_length_c   34.15600000
_cell_angle_alpha   98.05000000
_cell_angle_beta   90.00000000
_cell_angle_gamma   90.00000000
_symmetry_Int_Tables_number   1
_chemical_formula_structural   H41Ru2C41N3O5
_chemical_formula_sum   'H328 Ru16 C328 N24 O40'
_cell_volume   9581.55247788
_cell_formula_units_Z   8
loop_
 _symmetry_equiv_pos_site_id
 _symmetry_equiv_pos_as_xyz
  1  'x, y, z'
loop_
 _atom_site_type_symbol
 _atom_site_label
 _atom_site_symmetry_multiplicity
 _atom_site_fract_x
 _atom_site_fract_y
 _atom_site_fract_z
 _atom_site_occupancy
  H  H1  1  0.563100  0.398600  0.527800  1.0
  H  H2  1  0.063100  0.101400  0.472200  1.0
  H  H3  1  0.436900  0.601400  0.472200  1.0
  H  H4  1  0.936900  0.898600  0.527800  1.0
  H  H5  1  0.458200  0.641900  0.290500  1.0
  H  H6  1  0.958200  0.858100  0.709500  1.0
  H  H7  1  0.541800  0.358100  0.709500  1.0
  H  H8  1  0.041800  0.141900  0.290500  1.0
  H  H9  1  0.838700  0.636900  0.298700  1.0
  H  H10  1  0.338700  0.863100  0.701300  1.0
  H  H11  1  0.161300  0.363100  0.701300  1.0
  H  H12  1  0.661300  0.136900  0.298700  1.0
  H  H13  1  0.442700  0.590700  0.339700  1.0
  H  H14  1  0.942700  0.909300  0.660300  1.0
  H  H15  1  0.557300  0.409300  0.660300  1.0
  H  H16  1  0.057300  0.090700  0.339700  1.0
  H  H17  1  0.831300  0.585500  0.347300  1.0
  H  H18  1  0.331300  0.914500  0.652700  1.0
  H  H19  1  0.168700  0.414500  0.652700  1.0
  H  H20  1  0.668700  0.085500  0.347300  1.0
  H  H21  1  0.396800  0.495900  0.424200  1.0
  H  H22  1  0.896800  0.004100  0.575800  1.0
  H  H23  1  0.603200  0.504100  0.575800  1.0
  H  H24  1  0.103200  0.995900  0.424200  1.0
  H  H25  1  0.775200  0.481300  0.445600  1.0
  H  H26  1  0.275200  0.018700  0.554400  1.0
  H  H27  1  0.224800  0.518700  0.554400  1.0
  H  H28  1  0.724800  0.981300  0.445600  1.0
  H  H29  1  0.340100  0.444800  0.470200  1.0
  H  H30  1  0.840100  0.055200  0.529800  1.0
  H  H31  1  0.659900  0.555200  0.529800  1.0
  H  H32  1  0.159900  0.944800  0.470200  1.0
  H  H33  1  0.712500  0.430400  0.491100  1.0
  H  H34  1  0.212500  0.069600  0.508900  1.0
  H  H35  1  0.287500  0.569600  0.508900  1.0
  H  H36  1  0.787500  0.930400  0.491100  1.0
  H  H37  1  0.199800  0.353600  0.560400  1.0
  H  H38  1  0.699800  0.146400  0.439600  1.0
  H  H39  1  0.800200  0.646400  0.439600  1.0
  H  H40  1  0.300200  0.853600  0.560400  1.0
  H  H41  1  0.575400  0.320200  0.553900  1.0
  H  H42  1  0.075400  0.179800  0.446100  1.0
  H  H43  1  0.424600  0.679800  0.446100  1.0
  H  H44  1  0.924600  0.820200  0.553900  1.0
  H  H45  1  0.165800  0.288400  0.595500  1.0
  H  H46  1  0.665800  0.211600  0.404500  1.0
  H  H47  1  0.834200  0.711600  0.404500  1.0
  H  H48  1  0.334200  0.788400  0.595500  1.0
  H  H49  1  0.533800  0.254800  0.586000  1.0
  H  H50  1  0.033800  0.245200  0.414000  1.0
  H  H51  1  0.466200  0.745200  0.414000  1.0
  H  H52  1  0.966200  0.754800  0.586000  1.0
  H  H53  1  0.418200  0.206200  0.815200  1.0
  H  H54  1  0.918200  0.293800  0.184800  1.0
  H  H55  1  0.581800  0.793800  0.184800  1.0
  H  H56  1  0.081800  0.706200  0.815200  1.0
  H  H57  1  0.293900  0.199800  0.787200  1.0
  H  H58  1  0.793900  0.300200  0.212800  1.0
  H  H59  1  0.706100  0.800200  0.212800  1.0
  H  H60  1  0.206100  0.699800  0.787200  1.0
  H  H61  1  0.277200  0.214400  0.834000  1.0
  H  H62  1  0.777200  0.285600  0.166000  1.0
  H  H63  1  0.722800  0.785600  0.166000  1.0
  H  H64  1  0.222800  0.714400  0.834000  1.0
  H  H65  1  0.145700  0.278200  0.802300  1.0
  H  H66  1  0.645700  0.221800  0.197700  1.0
  H  H67  1  0.854300  0.721800  0.197700  1.0
  H  H68  1  0.354300  0.778200  0.802300  1.0
  H  H69  1  0.531100  0.283700  0.803400  1.0
  H  H70  1  0.031100  0.216300  0.196600  1.0
  H  H71  1  0.468900  0.716300  0.196600  1.0
  H  H72  1  0.968900  0.783700  0.803400  1.0
  H  H73  1  0.130800  0.361800  0.795700  1.0
  H  H74  1  0.630800  0.138200  0.204300  1.0
  H  H75  1  0.869200  0.638200  0.204300  1.0
  H  H76  1  0.369200  0.861800  0.795700  1.0
  H  H77  1  0.517800  0.367800  0.800700  1.0
  H  H78  1  0.017800  0.132200  0.199300  1.0
  H  H79  1  0.482200  0.632200  0.199300  1.0
  H  H80  1  0.982200  0.867800  0.800700  1.0
  H  H81  1  0.233700  0.431000  0.777000  1.0
  H  H82  1  0.733700  0.069000  0.223000  1.0
  H  H83  1  0.766300  0.569000  0.223000  1.0
  H  H84  1  0.266300  0.931000  0.777000  1.0
  H  H85  1  0.191000  0.438700  0.845200  1.0
  H  H86  1  0.691000  0.061300  0.154800  1.0
  H  H87  1  0.809000  0.561300  0.154800  1.0
  H  H88  1  0.309000  0.938700  0.845200  1.0
  H  H89  1  0.240600  0.489200  0.831700  1.0
  H  H90  1  0.740600  0.010800  0.168300  1.0
  H  H91  1  0.759400  0.510800  0.168300  1.0
  H  H92  1  0.259400  0.989200  0.831700  1.0
  H  H93  1  0.336800  0.456200  0.853700  1.0
  H  H94  1  0.836800  0.043800  0.146300  1.0
  H  H95  1  0.663200  0.543800  0.146300  1.0
  H  H96  1  0.163200  0.956200  0.853700  1.0
  H  H97  1  0.451000  0.433600  0.760400  1.0
  H  H98  1  0.951000  0.066400  0.239600  1.0
  H  H99  1  0.549000  0.566400  0.239600  1.0
  H  H100  1  0.049000  0.933600  0.760400  1.0
  H  H101  1  0.480900  0.454700  0.805600  1.0
  H  H102  1  0.980900  0.045300  0.194400  1.0
  H  H103  1  0.519100  0.545300  0.194400  1.0
  H  H104  1  0.019100  0.954700  0.805600  1.0
  H  H105  1  0.392900  0.485800  0.779500  1.0
  H  H106  1  0.892900  0.014200  0.220500  1.0
  H  H107  1  0.607100  0.514200  0.220500  1.0
  H  H108  1  0.107100  0.985800  0.779500  1.0
  H  H109  1  0.965600  0.198900  0.570100  1.0
  H  H110  1  0.465600  0.301100  0.429900  1.0
  H  H111  1  0.034400  0.801100  0.429900  1.0
  H  H112  1  0.534400  0.698900  0.570100  1.0
  H  H113  1  0.985500  0.198600  0.616600  1.0
  H  H114  1  0.485500  0.301400  0.383400  1.0
  H  H115  1  0.014500  0.801400  0.383400  1.0
  H  H116  1  0.514500  0.698600  0.616600  1.0
  H  H117  1  0.926700  0.151100  0.589700  1.0
  H  H118  1  0.426700  0.348900  0.410300  1.0
  H  H119  1  0.073300  0.848900  0.410300  1.0
  H  H120  1  0.573300  0.651100  0.589700  1.0
  H  H121  1  0.140400  0.121200  0.629700  1.0
  H  H122  1  0.640400  0.378800  0.370300  1.0
  H  H123  1  0.859600  0.878800  0.370300  1.0
  H  H124  1  0.359600  0.621200  0.629700  1.0
  H  H125  1  0.151300  0.183900  0.530700  1.0
  H  H126  1  0.651300  0.316100  0.469300  1.0
  H  H127  1  0.848700  0.816100  0.469300  1.0
  H  H128  1  0.348700  0.683900  0.530700  1.0
  H  H129  1  0.353400  0.093900  0.619900  1.0
  H  H130  1  0.853400  0.406100  0.380100  1.0
  H  H131  1  0.646600  0.906100  0.380100  1.0
  H  H132  1  0.146600  0.593900  0.619900  1.0
  H  H133  1  0.373600  0.174400  0.530000  1.0
  H  H134  1  0.873600  0.325600  0.470000  1.0
  H  H135  1  0.626400  0.825600  0.470000  1.0
  H  H136  1  0.126400  0.674400  0.530000  1.0
  H  H137  1  0.556700  0.139900  0.545400  1.0
  H  H138  1  0.056700  0.360100  0.454600  1.0
  H  H139  1  0.443300  0.860100  0.454600  1.0
  H  H140  1  0.943300  0.639900  0.545400  1.0
  H  H141  1  0.579400  0.143300  0.620200  1.0
  H  H142  1  0.079400  0.356700  0.379800  1.0
  H  H143  1  0.420600  0.856700  0.379800  1.0
  H  H144  1  0.920600  0.643300  0.620200  1.0
  H  H145  1  0.695300  0.139400  0.589000  1.0
  H  H146  1  0.195300  0.360600  0.411000  1.0
  H  H147  1  0.304700  0.860600  0.411000  1.0
  H  H148  1  0.804700  0.639400  0.589000  1.0
  H  H149  1  0.638500  0.090400  0.603400  1.0
  H  H150  1  0.138500  0.409600  0.396600  1.0
  H  H151  1  0.361500  0.909600  0.396600  1.0
  H  H152  1  0.861500  0.590400  0.603400  1.0
  H  H153  1  0.441800  0.055100  0.540500  1.0
  H  H154  1  0.941800  0.444900  0.459500  1.0
  H  H155  1  0.558200  0.944900  0.459500  1.0
  H  H156  1  0.058200  0.555100  0.540500  1.0
  H  H157  1  0.575800  0.047200  0.562000  1.0
  H  H158  1  0.075800  0.452800  0.438000  1.0
  H  H159  1  0.424200  0.952800  0.438000  1.0
  H  H160  1  0.924200  0.547200  0.562000  1.0
  H  H161  1  0.575000  0.066500  0.519900  1.0
  H  H162  1  0.075000  0.433500  0.480100  1.0
  H  H163  1  0.425000  0.933500  0.480100  1.0
  H  H164  1  0.925000  0.566500  0.519900  1.0
  H  H165  1  0.048000  0.391900  0.019600  1.0
  H  H166  1  0.548000  0.108100  0.980400  1.0
  H  H167  1  0.952000  0.608100  0.980400  1.0
  H  H168  1  0.452000  0.891900  0.019600  1.0
  H  H169  1  0.898700  0.629200  0.779700  1.0
  H  H170  1  0.398700  0.870800  0.220300  1.0
  H  H171  1  0.101300  0.370800  0.220300  1.0
  H  H172  1  0.601300  0.129200  0.779700  1.0
  H  H173  1  0.539400  0.610700  0.814900  1.0
  H  H174  1  0.039400  0.889300  0.185100  1.0
  H  H175  1  0.460600  0.389300  0.185100  1.0
  H  H176  1  0.960600  0.110700  0.814900  1.0
  H  H177  1  0.969800  0.597900  0.834800  1.0
  H  H178  1  0.469800  0.902100  0.165200  1.0
  H  H179  1  0.030200  0.402100  0.165200  1.0
  H  H180  1  0.530200  0.097900  0.834800  1.0
  H  H181  1  0.609500  0.571300  0.866900  1.0
  H  H182  1  0.109500  0.928700  0.133100  1.0
  H  H183  1  0.390500  0.428700  0.133100  1.0
  H  H184  1  0.890500  0.071300  0.866900  1.0
  H  H185  1  0.131200  0.498000  0.914100  1.0
  H  H186  1  0.631200  0.002000  0.085900  1.0
  H  H187  1  0.868800  0.502000  0.085900  1.0
  H  H188  1  0.368800  0.998000  0.914100  1.0
  H  H189  1  0.776700  0.474200  0.955700  1.0
  H  H190  1  0.276700  0.025800  0.044300  1.0
  H  H191  1  0.223300  0.525800  0.044300  1.0
  H  H192  1  0.723300  0.974200  0.955700  1.0
  H  H193  1  0.226300  0.444600  0.952900  1.0
  H  H194  1  0.726300  0.055400  0.047100  1.0
  H  H195  1  0.773700  0.555400  0.047100  1.0
  H  H196  1  0.273700  0.944600  0.952900  1.0
  H  H197  1  0.883700  0.436200  0.003400  1.0
  H  H198  1  0.383700  0.063800  0.996600  1.0
  H  H199  1  0.116300  0.563800  0.996600  1.0
  H  H200  1  0.616300  0.936200  0.003400  1.0
  H  H201  1  0.433300  0.360200  0.038000  1.0
  H  H202  1  0.933300  0.139800  0.962000  1.0
  H  H203  1  0.566700  0.639800  0.962000  1.0
  H  H204  1  0.066700  0.860200  0.038000  1.0
  H  H205  1  0.060500  0.341600  0.061200  1.0
  H  H206  1  0.560500  0.158400  0.938800  1.0
  H  H207  1  0.939500  0.658400  0.938800  1.0
  H  H208  1  0.439500  0.841600  0.061200  1.0
  H  H209  1  0.489000  0.303400  0.079200  1.0
  H  H210  1  0.989000  0.196600  0.920800  1.0
  H  H211  1  0.511000  0.696600  0.920800  1.0
  H  H212  1  0.011000  0.803400  0.079200  1.0
  H  H213  1  0.118300  0.282500  0.099100  1.0
  H  H214  1  0.618300  0.217500  0.900900  1.0
  H  H215  1  0.881700  0.717500  0.900900  1.0
  H  H216  1  0.381700  0.782500  0.099100  1.0
  H  H217  1  0.694200  0.196100  0.069300  1.0
  H  H218  1  0.194200  0.303900  0.930700  1.0
  H  H219  1  0.305800  0.803900  0.930700  1.0
  H  H220  1  0.805800  0.696100  0.069300  1.0
  H  H221  1  0.705800  0.150700  0.094000  1.0
  H  H222  1  0.205800  0.349300  0.906000  1.0
  H  H223  1  0.294200  0.849300  0.906000  1.0
  H  H224  1  0.794200  0.650700  0.094000  1.0
  H  H225  1  0.660900  0.203800  0.115500  1.0
  H  H226  1  0.160900  0.296200  0.884500  1.0
  H  H227  1  0.339100  0.796200  0.884500  1.0
  H  H228  1  0.839100  0.703800  0.115500  1.0
  H  H229  1  0.494600  0.197300  0.030400  1.0
  H  H230  1  0.994600  0.302700  0.969600  1.0
  H  H231  1  0.505400  0.802700  0.969600  1.0
  H  H232  1  0.005400  0.697300  0.030400  1.0
  H  H233  1  0.499000  0.126800  0.129200  1.0
  H  H234  1  0.999000  0.373200  0.870800  1.0
  H  H235  1  0.501000  0.873200  0.870800  1.0
  H  H236  1  0.001000  0.626800  0.129200  1.0
  H  H237  1  0.277100  0.188600  0.026200  1.0
  H  H238  1  0.777100  0.311400  0.973800  1.0
  H  H239  1  0.722900  0.811400  0.973800  1.0
  H  H240  1  0.222900  0.688600  0.026200  1.0
  H  H241  1  0.263100  0.114400  0.123000  1.0
  H  H242  1  0.763100  0.385600  0.877000  1.0
  H  H243  1  0.736900  0.885600  0.877000  1.0
  H  H244  1  0.236900  0.614400  0.123000  1.0
  H  H245  1  0.059900  0.139800  0.100300  1.0
  H  H246  1  0.559900  0.360200  0.899700  1.0
  H  H247  1  0.940100  0.860200  0.899700  1.0
  H  H248  1  0.440100  0.639800  0.100300  1.0
  H  H249  1  0.028200  0.212900  0.069900  1.0
  H  H250  1  0.528200  0.287100  0.930100  1.0
  H  H251  1  0.971800  0.787100  0.930100  1.0
  H  H252  1  0.471800  0.712900  0.069900  1.0
  H  H253  1  0.947500  0.170100  0.044000  1.0
  H  H254  1  0.447500  0.329900  0.956000  1.0
  H  H255  1  0.052500  0.829900  0.956000  1.0
  H  H256  1  0.552500  0.670100  0.044000  1.0
  H  H257  1  0.085700  0.185800  0.029100  1.0
  H  H258  1  0.585700  0.314200  0.970900  1.0
  H  H259  1  0.914300  0.814200  0.970900  1.0
  H  H260  1  0.414300  0.685800  0.029100  1.0
  H  H261  1  0.145600  0.073100  0.054300  1.0
  H  H262  1  0.645600  0.426900  0.945700  1.0
  H  H263  1  0.854400  0.926900  0.945700  1.0
  H  H264  1  0.354400  0.573100  0.054300  1.0
  H  H265  1  0.142600  0.107600  0.020100  1.0
  H  H266  1  0.642600  0.392400  0.979900  1.0
  H  H267  1  0.857400  0.892400  0.979900  1.0
  H  H268  1  0.357400  0.607600  0.020100  1.0
  H  H269  1  0.010500  0.089100  0.037300  1.0
  H  H270  1  0.510500  0.410900  0.962700  1.0
  H  H271  1  0.989500  0.910900  0.962700  1.0
  H  H272  1  0.489500  0.589100  0.037300  1.0
  H  H273  1  0.414200  0.221500  0.303000  1.0
  H  H274  1  0.914200  0.278500  0.697000  1.0
  H  H275  1  0.585800  0.778500  0.697000  1.0
  H  H276  1  0.085800  0.721500  0.303000  1.0
  H  H277  1  0.279000  0.216000  0.280200  1.0
  H  H278  1  0.779000  0.284000  0.719800  1.0
  H  H279  1  0.721000  0.784000  0.719800  1.0
  H  H280  1  0.221000  0.716000  0.280200  1.0
  H  H281  1  0.282100  0.226800  0.327500  1.0
  H  H282  1  0.782100  0.273200  0.672500  1.0
  H  H283  1  0.717900  0.773200  0.672500  1.0
  H  H284  1  0.217900  0.726800  0.327500  1.0
  H  H285  1  0.526300  0.306100  0.298300  1.0
  H  H286  1  0.026300  0.193900  0.701700  1.0
  H  H287  1  0.473700  0.693900  0.701700  1.0
  H  H288  1  0.973700  0.806100  0.298300  1.0
  H  H289  1  0.133100  0.305200  0.306900  1.0
  H  H290  1  0.633100  0.194800  0.693100  1.0
  H  H291  1  0.866900  0.694800  0.693100  1.0
  H  H292  1  0.366900  0.805200  0.306900  1.0
  H  H293  1  0.509200  0.388500  0.295400  1.0
  H  H294  1  0.009200  0.111500  0.704600  1.0
  H  H295  1  0.490800  0.611500  0.704600  1.0
  H  H296  1  0.990800  0.888500  0.295400  1.0
  H  H297  1  0.133600  0.386500  0.295400  1.0
  H  H298  1  0.633600  0.113500  0.704600  1.0
  H  H299  1  0.866400  0.613500  0.704600  1.0
  H  H300  1  0.366400  0.886500  0.295400  1.0
  H  H301  1  0.250300  0.458200  0.267500  1.0
  H  H302  1  0.750300  0.041800  0.732500  1.0
  H  H303  1  0.749700  0.541800  0.732500  1.0
  H  H304  1  0.249700  0.958200  0.267500  1.0
  H  H305  1  0.473800  0.448600  0.258200  1.0
  H  H306  1  0.973800  0.051400  0.741800  1.0
  H  H307  1  0.526200  0.551400  0.741800  1.0
  H  H308  1  0.026200  0.948600  0.258200  1.0
  H  H309  1  0.496000  0.457200  0.305000  1.0
  H  H310  1  0.996000  0.042800  0.695000  1.0
  H  H311  1  0.504000  0.542800  0.695000  1.0
  H  H312  1  0.004000  0.957200  0.305000  1.0
  H  H313  1  0.448400  0.501900  0.282900  1.0
  H  H314  1  0.948400  0.998100  0.717100  1.0
  H  H315  1  0.551600  0.498100  0.717100  1.0
  H  H316  1  0.051600  0.001900  0.282900  1.0
  H  H317  1  0.181100  0.476000  0.332000  1.0
  H  H318  1  0.681100  0.024000  0.668000  1.0
  H  H319  1  0.818900  0.524000  0.668000  1.0
  H  H320  1  0.318900  0.976000  0.332000  1.0
  H  H321  1  0.297200  0.514000  0.329400  1.0
  H  H322  1  0.797200  0.986000  0.670600  1.0
  H  H323  1  0.702800  0.486000  0.670600  1.0
  H  H324  1  0.202800  0.014000  0.329400  1.0
  H  H325  1  0.320500  0.464800  0.348800  1.0
  H  H326  1  0.820500  0.035200  0.651200  1.0
  H  H327  1  0.679500  0.535200  0.651200  1.0
  H  H328  1  0.179500  0.964800  0.348800  1.0
  Ru  Ru329  1  0.334590  0.309540  0.753580  1.0
  Ru  Ru330  1  0.834590  0.190460  0.246420  1.0
  Ru  Ru331  1  0.665410  0.690460  0.246420  1.0
  Ru  Ru332  1  0.165410  0.809540  0.753580  1.0
  Ru  Ru333  1  0.296950  0.194980  0.608950  1.0
  Ru  Ru334  1  0.796950  0.305020  0.391050  1.0
  Ru  Ru335  1  0.703050  0.805020  0.391050  1.0
  Ru  Ru336  1  0.203050  0.694980  0.608950  1.0
  Ru  Ru337  1  0.325610  0.327720  0.249420  1.0
  Ru  Ru338  1  0.825610  0.172280  0.750580  1.0
  Ru  Ru339  1  0.674390  0.672280  0.750580  1.0
  Ru  Ru340  1  0.174390  0.827720  0.249420  1.0
  Ru  Ru341  1  0.354340  0.211230  0.106000  1.0
  Ru  Ru342  1  0.854340  0.288770  0.894000  1.0
  Ru  Ru343  1  0.645660  0.788770  0.894000  1.0
  Ru  Ru344  1  0.145660  0.711230  0.106000  1.0
  C  C345  1  0.251700  0.250000  0.684800  1.0
  C  C346  1  0.751700  0.250000  0.315200  1.0
  C  C347  1  0.748300  0.750000  0.315200  1.0
  C  C348  1  0.248300  0.750000  0.684800  1.0
  C  C349  1  0.382500  0.242300  0.685900  1.0
  C  C350  1  0.882500  0.257700  0.314100  1.0
  C  C351  1  0.617500  0.757700  0.314100  1.0
  C  C352  1  0.117500  0.742300  0.685900  1.0
  C  C353  1  0.533300  0.630600  0.302400  1.0
  C  C354  1  0.033300  0.869400  0.697600  1.0
  C  C355  1  0.466700  0.369400  0.697600  1.0
  C  C356  1  0.966700  0.130600  0.302400  1.0
  C  C357  1  0.757200  0.627100  0.307600  1.0
  C  C358  1  0.257200  0.872900  0.692400  1.0
  C  C359  1  0.242800  0.372900  0.692400  1.0
  C  C360  1  0.742800  0.127100  0.307600  1.0
  C  C361  1  0.524000  0.600400  0.330900  1.0
  C  C362  1  0.024000  0.899600  0.669100  1.0
  C  C363  1  0.476000  0.399600  0.669100  1.0
  C  C364  1  0.976000  0.100400  0.330900  1.0
  C  C365  1  0.755000  0.596900  0.335900  1.0
  C  C366  1  0.255000  0.903100  0.664100  1.0
  C  C367  1  0.245000  0.403100  0.664100  1.0
  C  C368  1  0.745000  0.096900  0.335900  1.0
  C  C369  1  0.635000  0.584500  0.346400  1.0
  C  C370  1  0.135000  0.915500  0.653600  1.0
  C  C371  1  0.365000  0.415500  0.653600  1.0
  C  C372  1  0.865000  0.084500  0.346400  1.0
  C  C373  1  0.628000  0.553300  0.375100  1.0
  C  C374  1  0.128000  0.946700  0.624900  1.0
  C  C375  1  0.372000  0.446700  0.624900  1.0
  C  C376  1  0.872000  0.053300  0.375100  1.0
  C  C377  1  0.602000  0.524200  0.401900  1.0
  C  C378  1  0.102000  0.975800  0.598100  1.0
  C  C379  1  0.398000  0.475800  0.598100  1.0
  C  C380  1  0.898000  0.024200  0.401900  1.0
  C  C381  1  0.587000  0.493500  0.430100  1.0
  C  C382  1  0.087000  0.006500  0.569900  1.0
  C  C383  1  0.413000  0.506500  0.569900  1.0
  C  C384  1  0.913000  0.993500  0.430100  1.0
  C  C385  1  0.464000  0.482100  0.438300  1.0
  C  C386  1  0.964000  0.017900  0.561700  1.0
  C  C387  1  0.536000  0.517900  0.561700  1.0
  C  C388  1  0.036000  0.982100  0.438300  1.0
  C  C389  1  0.687000  0.474500  0.450000  1.0
  C  C390  1  0.187000  0.025500  0.550000  1.0
  C  C391  1  0.313000  0.525500  0.550000  1.0
  C  C392  1  0.813000  0.974500  0.450000  1.0
  C  C393  1  0.428000  0.451800  0.465700  1.0
  C  C394  1  0.928000  0.048200  0.534300  1.0
  C  C395  1  0.572000  0.548200  0.534300  1.0
  C  C396  1  0.072000  0.951800  0.465700  1.0
  C  C397  1  0.646000  0.444500  0.477000  1.0
  C  C398  1  0.146000  0.055500  0.523000  1.0
  C  C399  1  0.354000  0.555500  0.523000  1.0
  C  C400  1  0.854000  0.944500  0.477000  1.0
  C  C401  1  0.523000  0.432600  0.486000  1.0
  C  C402  1  0.023000  0.067400  0.514000  1.0
  C  C403  1  0.477000  0.567400  0.514000  1.0
  C  C404  1  0.977000  0.932600  0.486000  1.0
  C  C405  1  0.396000  0.376600  0.525600  1.0
  C  C406  1  0.896000  0.123400  0.474400  1.0
  C  C407  1  0.604000  0.623400  0.474400  1.0
  C  C408  1  0.104000  0.876600  0.525600  1.0
  C  C409  1  0.390000  0.342000  0.551800  1.0
  C  C410  1  0.890000  0.158000  0.448200  1.0
  C  C411  1  0.610000  0.658000  0.448200  1.0
  C  C412  1  0.110000  0.842000  0.551800  1.0
  C  C413  1  0.270000  0.332900  0.565200  1.0
  C  C414  1  0.770000  0.167100  0.434800  1.0
  C  C415  1  0.730000  0.667100  0.434800  1.0
  C  C416  1  0.230000  0.832900  0.565200  1.0
  C  C417  1  0.489400  0.313300  0.561000  1.0
  C  C418  1  0.989400  0.186700  0.439000  1.0
  C  C419  1  0.510600  0.686700  0.439000  1.0
  C  C420  1  0.010600  0.813300  0.561000  1.0
  C  C421  1  0.250000  0.293600  0.585900  1.0
  C  C422  1  0.750000  0.206400  0.414100  1.0
  C  C423  1  0.750000  0.706400  0.414100  1.0
  C  C424  1  0.250000  0.793600  0.585900  1.0
  C  C425  1  0.463200  0.274900  0.580500  1.0
  C  C426  1  0.963200  0.225100  0.419500  1.0
  C  C427  1  0.536800  0.725100  0.419500  1.0
  C  C428  1  0.036800  0.774900  0.580500  1.0
  C  C429  1  0.331000  0.218500  0.811100  1.0
  C  C430  1  0.831000  0.281500  0.188900  1.0
  C  C431  1  0.669000  0.781500  0.188900  1.0
  C  C432  1  0.169000  0.718500  0.811100  1.0
  C  C433  1  0.338000  0.273500  0.806400  1.0
  C  C434  1  0.838000  0.226500  0.193600  1.0
  C  C435  1  0.662000  0.726500  0.193600  1.0
  C  C436  1  0.162000  0.773500  0.806400  1.0
  C  C437  1  0.222600  0.297100  0.802500  1.0
  C  C438  1  0.722600  0.202900  0.197500  1.0
  C  C439  1  0.777400  0.702900  0.197500  1.0
  C  C440  1  0.277400  0.797100  0.802500  1.0
  C  C441  1  0.449500  0.299600  0.803700  1.0
  C  C442  1  0.949500  0.200400  0.196300  1.0
  C  C443  1  0.550500  0.700400  0.196300  1.0
  C  C444  1  0.050500  0.799600  0.803700  1.0
  C  C445  1  0.211900  0.346600  0.798800  1.0
  C  C446  1  0.711900  0.153400  0.201200  1.0
  C  C447  1  0.788100  0.653400  0.201200  1.0
  C  C448  1  0.288100  0.846600  0.798800  1.0
  C  C449  1  0.440700  0.349200  0.801400  1.0
  C  C450  1  0.940700  0.150800  0.198600  1.0
  C  C451  1  0.559300  0.650800  0.198600  1.0
  C  C452  1  0.059300  0.849200  0.801400  1.0
  C  C453  1  0.325000  0.372700  0.799900  1.0
  C  C454  1  0.825000  0.127300  0.200100  1.0
  C  C455  1  0.675000  0.627300  0.200100  1.0
  C  C456  1  0.175000  0.872700  0.799900  1.0
  C  C457  1  0.304000  0.428300  0.796600  1.0
  C  C458  1  0.804000  0.071700  0.203400  1.0
  C  C459  1  0.696000  0.571700  0.203400  1.0
  C  C460  1  0.196000  0.928300  0.796600  1.0
  C  C461  1  0.265000  0.455300  0.835000  1.0
  C  C462  1  0.765000  0.044700  0.165000  1.0
  C  C463  1  0.735000  0.544700  0.165000  1.0
  C  C464  1  0.235000  0.955300  0.835000  1.0
  C  C465  1  0.416000  0.452500  0.784600  1.0
  C  C466  1  0.916000  0.047500  0.215400  1.0
  C  C467  1  0.584000  0.547500  0.215400  1.0
  C  C468  1  0.084000  0.952500  0.784600  1.0
  C  C469  1  0.988300  0.178400  0.590500  1.0
  C  C470  1  0.488300  0.321600  0.409500  1.0
  C  C471  1  0.011700  0.821600  0.409500  1.0
  C  C472  1  0.511700  0.678400  0.590500  1.0
  C  C473  1  0.125700  0.157400  0.582700  1.0
  C  C474  1  0.625700  0.342600  0.417300  1.0
  C  C475  1  0.874300  0.842600  0.417300  1.0
  C  C476  1  0.374300  0.657400  0.582700  1.0
  C  C477  1  0.188000  0.130300  0.608000  1.0
  C  C478  1  0.688000  0.369700  0.392000  1.0
  C  C479  1  0.812000  0.869700  0.392000  1.0
  C  C480  1  0.312000  0.630300  0.608000  1.0
  C  C481  1  0.194000  0.169600  0.551100  1.0
  C  C482  1  0.694000  0.330400  0.448900  1.0
  C  C483  1  0.806000  0.830400  0.448900  1.0
  C  C484  1  0.306000  0.669600  0.551100  1.0
  C  C485  1  0.316000  0.115400  0.603500  1.0
  C  C486  1  0.816000  0.384600  0.396500  1.0
  C  C487  1  0.684000  0.884600  0.396500  1.0
  C  C488  1  0.184000  0.615400  0.603500  1.0
  C  C489  1  0.324000  0.160900  0.549200  1.0
  C  C490  1  0.824000  0.339100  0.450800  1.0
  C  C491  1  0.676000  0.839100  0.450800  1.0
  C  C492  1  0.176000  0.660900  0.549200  1.0
  C  C493  1  0.385200  0.133300  0.574200  1.0
  C  C494  1  0.885200  0.366700  0.425800  1.0
  C  C495  1  0.614800  0.866700  0.425800  1.0
  C  C496  1  0.114800  0.633300  0.574200  1.0
  C  C497  1  0.525000  0.118500  0.564900  1.0
  C  C498  1  0.025000  0.381500  0.435100  1.0
  C  C499  1  0.475000  0.881500  0.435100  1.0
  C  C500  1  0.975000  0.618500  0.564900  1.0
  C  C501  1  0.617000  0.123300  0.597000  1.0
  C  C502  1  0.117000  0.376700  0.403000  1.0
  C  C503  1  0.383000  0.876700  0.403000  1.0
  C  C504  1  0.883000  0.623300  0.597000  1.0
  C  C505  1  0.530000  0.067700  0.545200  1.0
  C  C506  1  0.030000  0.432300  0.454800  1.0
  C  C507  1  0.470000  0.932300  0.454800  1.0
  C  C508  1  0.970000  0.567700  0.545200  1.0
  C  C509  1  0.407200  0.268800  0.179300  1.0
  C  C510  1  0.907200  0.231200  0.820700  1.0
  C  C511  1  0.592800  0.731200  0.820700  1.0
  C  C512  1  0.092800  0.768800  0.179300  1.0
  C  C513  1  0.277800  0.257000  0.179400  1.0
  C  C514  1  0.777800  0.243000  0.820600  1.0
  C  C515  1  0.722200  0.743000  0.820600  1.0
  C  C516  1  0.222200  0.757000  0.179400  1.0
  C  C517  1  0.839600  0.619300  0.798300  1.0
  C  C518  1  0.339600  0.880700  0.201700  1.0
  C  C519  1  0.160400  0.380700  0.201700  1.0
  C  C520  1  0.660400  0.119300  0.798300  1.0
  C  C521  1  0.629200  0.607100  0.819000  1.0
  C  C522  1  0.129200  0.892900  0.181000  1.0
  C  C523  1  0.370800  0.392900  0.181000  1.0
  C  C524  1  0.870800  0.107100  0.819000  1.0
  C  C525  1  0.880600  0.597200  0.828500  1.0
  C  C526  1  0.380600  0.902800  0.171500  1.0
  C  C527  1  0.119400  0.402800  0.171500  1.0
  C  C528  1  0.619400  0.097200  0.828500  1.0
  C  C529  1  0.668500  0.582100  0.848600  1.0
  C  C530  1  0.168500  0.917900  0.151400  1.0
  C  C531  1  0.331500  0.417900  0.151400  1.0
  C  C532  1  0.831500  0.082100  0.848600  1.0
  C  C533  1  0.796600  0.573700  0.850500  1.0
  C  C534  1  0.296600  0.926300  0.149500  1.0
  C  C535  1  0.203400  0.426300  0.149500  1.0
  C  C536  1  0.703400  0.073700  0.850500  1.0
  C  C537  1  0.842500  0.544900  0.878000  1.0
  C  C538  1  0.342500  0.955100  0.122000  1.0
  C  C539  1  0.157500  0.455100  0.122000  1.0
  C  C540  1  0.657500  0.044900  0.878000  1.0
  C  C541  1  0.897300  0.515600  0.901300  1.0
  C  C542  1  0.397300  0.984400  0.098700  1.0
  C  C543  1  0.102700  0.484400  0.098700  1.0
  C  C544  1  0.602700  0.015600  0.901300  1.0
  C  C545  1  0.947200  0.489400  0.929300  1.0
  C  C546  1  0.447200  0.010600  0.070700  1.0
  C  C547  1  0.052800  0.510600  0.070700  1.0
  C  C548  1  0.552800  0.989400  0.929300  1.0
  C  C549  1  0.078000  0.481700  0.930800  1.0
  C  C550  1  0.578000  0.018300  0.069200  1.0
  C  C551  1  0.922000  0.518300  0.069200  1.0
  C  C552  1  0.422000  0.981700  0.930800  1.0
  C  C553  1  0.868000  0.470600  0.955700  1.0
  C  C554  1  0.368000  0.029400  0.044300  1.0
  C  C555  1  0.132000  0.529400  0.044300  1.0
  C  C556  1  0.632000  0.970600  0.955700  1.0
  C  C557  1  0.137000  0.451900  0.955000  1.0
  C  C558  1  0.637000  0.048100  0.045000  1.0
  C  C559  1  0.863000  0.548100  0.045000  1.0
  C  C560  1  0.363000  0.951900  0.955000  1.0
  C  C561  1  0.933000  0.445900  0.982400  1.0
  C  C562  1  0.433000  0.054100  0.017600  1.0
  C  C563  1  0.067000  0.554100  0.017600  1.0
  C  C564  1  0.567000  0.945900  0.982400  1.0
  C  C565  1  0.062000  0.433700  0.981900  1.0
  C  C566  1  0.562000  0.066300  0.018100  1.0
  C  C567  1  0.938000  0.566300  0.018100  1.0
  C  C568  1  0.438000  0.933700  0.981900  1.0
  C  C569  1  0.223000  0.389100  0.020200  1.0
  C  C570  1  0.723000  0.110900  0.979800  1.0
  C  C571  1  0.777000  0.610900  0.979800  1.0
  C  C572  1  0.277000  0.889100  0.020200  1.0
  C  C573  1  0.243300  0.354900  0.045600  1.0
  C  C574  1  0.743300  0.145100  0.954400  1.0
  C  C575  1  0.756700  0.645100  0.954400  1.0
  C  C576  1  0.256700  0.854900  0.045600  1.0
  C  C577  1  0.367900  0.343800  0.050700  1.0
  C  C578  1  0.867900  0.156200  0.949300  1.0
  C  C579  1  0.632100  0.656200  0.949300  1.0
  C  C580  1  0.132100  0.843800  0.050700  1.0
  C  C581  1  0.148400  0.332800  0.063800  1.0
  C  C582  1  0.648400  0.167200  0.936200  1.0
  C  C583  1  0.851600  0.667200  0.936200  1.0
  C  C584  1  0.351600  0.832800  0.063800  1.0
  C  C585  1  0.400800  0.309300  0.074000  1.0
  C  C586  1  0.900800  0.190700  0.926000  1.0
  C  C587  1  0.599200  0.690700  0.926000  1.0
  C  C588  1  0.099200  0.809300  0.074000  1.0
  C  C589  1  0.183400  0.298100  0.085700  1.0
  C  C590  1  0.683400  0.201900  0.914300  1.0
  C  C591  1  0.816600  0.701900  0.914300  1.0
  C  C592  1  0.316600  0.798100  0.085700  1.0
  C  C593  1  0.656900  0.180600  0.090900  1.0
  C  C594  1  0.156900  0.319400  0.909100  1.0
  C  C595  1  0.343100  0.819400  0.909100  1.0
  C  C596  1  0.843100  0.680600  0.090900  1.0
  C  C597  1  0.513500  0.166600  0.081100  1.0
  C  C598  1  0.013500  0.333400  0.918900  1.0
  C  C599  1  0.486500  0.833400  0.918900  1.0
  C  C600  1  0.986500  0.666600  0.081100  1.0
  C  C601  1  0.449000  0.182100  0.049700  1.0
  C  C602  1  0.949000  0.317900  0.950300  1.0
  C  C603  1  0.551000  0.817900  0.950300  1.0
  C  C604  1  0.051000  0.682100  0.049700  1.0
  C  C605  1  0.451000  0.139300  0.109000  1.0
  C  C606  1  0.951000  0.360700  0.891000  1.0
  C  C607  1  0.549000  0.860700  0.891000  1.0
  C  C608  1  0.049000  0.639300  0.109000  1.0
  C  C609  1  0.321000  0.175500  0.046900  1.0
  C  C610  1  0.821000  0.324500  0.953100  1.0
  C  C611  1  0.679000  0.824500  0.953100  1.0
  C  C612  1  0.179000  0.675500  0.046900  1.0
  C  C613  1  0.310000  0.131300  0.105100  1.0
  C  C614  1  0.810000  0.368700  0.894900  1.0
  C  C615  1  0.690000  0.868700  0.894900  1.0
  C  C616  1  0.190000  0.631300  0.105100  1.0
  C  C617  1  0.248000  0.151000  0.071900  1.0
  C  C618  1  0.748000  0.349000  0.928100  1.0
  C  C619  1  0.752000  0.849000  0.928100  1.0
  C  C620  1  0.252000  0.651000  0.071900  1.0
  C  C621  1  0.097000  0.143900  0.073900  1.0
  C  C622  1  0.597000  0.356100  0.926100  1.0
  C  C623  1  0.903000  0.856100  0.926100  1.0
  C  C624  1  0.403000  0.643900  0.073900  1.0
  C  C625  1  0.034000  0.181400  0.052400  1.0
  C  C626  1  0.534000  0.318600  0.947600  1.0
  C  C627  1  0.966000  0.818600  0.947600  1.0
  C  C628  1  0.466000  0.681400  0.052400  1.0
  C  C629  1  0.099000  0.099700  0.043900  1.0
  C  C630  1  0.599000  0.400300  0.956100  1.0
  C  C631  1  0.901000  0.900300  0.956100  1.0
  C  C632  1  0.401000  0.599700  0.043900  1.0
  C  C633  1  0.325000  0.233300  0.303100  1.0
  C  C634  1  0.825000  0.266700  0.696900  1.0
  C  C635  1  0.675000  0.766700  0.696900  1.0
  C  C636  1  0.175000  0.733300  0.303100  1.0
  C  C637  1  0.324000  0.289800  0.301200  1.0
  C  C638  1  0.824000  0.210200  0.698800  1.0
  C  C639  1  0.676000  0.710200  0.698800  1.0
  C  C640  1  0.176000  0.789800  0.301200  1.0
  C  C641  1  0.443000  0.320600  0.298300  1.0
  C  C642  1  0.943000  0.179400  0.701700  1.0
  C  C643  1  0.557000  0.679400  0.701700  1.0
  C  C644  1  0.057000  0.820600  0.298300  1.0
  C  C645  1  0.213700  0.319800  0.302200  1.0
  C  C646  1  0.713700  0.180200  0.697800  1.0
  C  C647  1  0.786300  0.680200  0.697800  1.0
  C  C648  1  0.286300  0.819800  0.302200  1.0
  C  C649  1  0.430000  0.371200  0.295500  1.0
  C  C650  1  0.930000  0.128800  0.704500  1.0
  C  C651  1  0.570000  0.628800  0.704500  1.0
  C  C652  1  0.070000  0.871200  0.295500  1.0
  C  C653  1  0.214000  0.369800  0.296700  1.0
  C  C654  1  0.714000  0.130200  0.703300  1.0
  C  C655  1  0.786000  0.630200  0.703300  1.0
  C  C656  1  0.286000  0.869800  0.296700  1.0
  C  C657  1  0.335000  0.397000  0.293000  1.0
  C  C658  1  0.835000  0.103000  0.707000  1.0
  C  C659  1  0.665000  0.603000  0.707000  1.0
  C  C660  1  0.165000  0.897000  0.293000  1.0
  C  C661  1  0.310000  0.452600  0.289400  1.0
  C  C662  1  0.810000  0.047400  0.710600  1.0
  C  C663  1  0.690000  0.547400  0.710600  1.0
  C  C664  1  0.190000  0.952600  0.289400  1.0
  C  C665  1  0.443000  0.466200  0.283400  1.0
  C  C666  1  0.943000  0.033800  0.716600  1.0
  C  C667  1  0.557000  0.533800  0.716600  1.0
  C  C668  1  0.057000  0.966200  0.283400  1.0
  C  C669  1  0.274000  0.479000  0.328100  1.0
  C  C670  1  0.774000  0.021000  0.671900  1.0
  C  C671  1  0.726000  0.521000  0.671900  1.0
  C  C672  1  0.226000  0.979000  0.328100  1.0
  N  N673  1  0.651600  0.643900  0.291600  1.0
  N  N674  1  0.151600  0.856100  0.708400  1.0
  N  N675  1  0.348400  0.356100  0.708400  1.0
  N  N676  1  0.848400  0.143900  0.291600  1.0
  N  N677  1  0.494300  0.402400  0.513400  1.0
  N  N678  1  0.994300  0.097600  0.486600  1.0
  N  N679  1  0.505700  0.597600  0.486600  1.0
  N  N680  1  0.005700  0.902400  0.513400  1.0
  N  N681  1  0.345000  0.262400  0.592800  1.0
  N  N682  1  0.845000  0.237600  0.407200  1.0
  N  N683  1  0.655000  0.737600  0.407200  1.0
  N  N684  1  0.155000  0.762400  0.592800  1.0
  N  N685  1  0.712800  0.626900  0.795000  1.0
  N  N686  1  0.212800  0.873100  0.205000  1.0
  N  N687  1  0.287200  0.373100  0.205000  1.0
  N  N688  1  0.787200  0.126900  0.795000  1.0
  N  N689  1  0.111700  0.404800  0.007400  1.0
  N  N690  1  0.611700  0.095200  0.992600  1.0
  N  N691  1  0.888300  0.595200  0.992600  1.0
  N  N692  1  0.388300  0.904800  0.007400  1.0
  N  N693  1  0.309000  0.283800  0.089500  1.0
  N  N694  1  0.809000  0.216200  0.910500  1.0
  N  N695  1  0.691000  0.716200  0.910500  1.0
  N  N696  1  0.191000  0.783800  0.089500  1.0
  O  O697  1  0.433500  0.216500  0.656000  1.0
  O  O698  1  0.933500  0.283500  0.344000  1.0
  O  O699  1  0.566500  0.783500  0.344000  1.0
  O  O700  1  0.066500  0.716500  0.656000  1.0
  O  O701  1  0.179400  0.234600  0.655300  1.0
  O  O702  1  0.679400  0.265400  0.344700  1.0
  O  O703  1  0.820600  0.765400  0.344700  1.0
  O  O704  1  0.320600  0.734600  0.655300  1.0
  O  O705  1  0.193900  0.275200  0.713400  1.0
  O  O706  1  0.693900  0.224800  0.286600  1.0
  O  O707  1  0.806100  0.724800  0.286600  1.0
  O  O708  1  0.306100  0.775200  0.713400  1.0
  O  O709  1  0.449800  0.259200  0.715700  1.0
  O  O710  1  0.949800  0.240800  0.284300  1.0
  O  O711  1  0.550200  0.740800  0.284300  1.0
  O  O712  1  0.050200  0.759200  0.715700  1.0
  O  O713  1  0.291000  0.392100  0.507500  1.0
  O  O714  1  0.791000  0.107900  0.492500  1.0
  O  O715  1  0.709000  0.607900  0.492500  1.0
  O  O716  1  0.209000  0.892100  0.507500  1.0
  O  O717  1  0.218500  0.275800  0.210800  1.0
  O  O718  1  0.718500  0.224200  0.789200  1.0
  O  O719  1  0.781500  0.724200  0.789200  1.0
  O  O720  1  0.281500  0.775800  0.210800  1.0
  O  O721  1  0.465900  0.296200  0.207300  1.0
  O  O722  1  0.965900  0.203800  0.792700  1.0
  O  O723  1  0.534100  0.703800  0.792700  1.0
  O  O724  1  0.034100  0.796200  0.207300  1.0
  O  O725  1  0.478400  0.253000  0.149800  1.0
  O  O726  1  0.978400  0.247000  0.850200  1.0
  O  O727  1  0.521600  0.747000  0.850200  1.0
  O  O728  1  0.021600  0.753000  0.149800  1.0
  O  O729  1  0.222300  0.229800  0.150800  1.0
  O  O730  1  0.722300  0.270200  0.849200  1.0
  O  O731  1  0.777700  0.770200  0.849200  1.0
  O  O732  1  0.277700  0.729800  0.150800  1.0
  O  O733  1  0.314100  0.411700  0.002400  1.0
  O  O734  1  0.814100  0.088300  0.997600  1.0
  O  O735  1  0.685900  0.588300  0.997600  1.0
  O  O736  1  0.185900  0.911700  0.002400  1.0
