# generated using pymatgen
data_Mo4P4H134C178NO38
_symmetry_space_group_name_H-M   'P 1'
_cell_length_a   14.77480000
_cell_length_b   21.88100000
_cell_length_c   24.44200000
_cell_angle_alpha   73.20900000
_cell_angle_beta   82.45200000
_cell_angle_gamma   87.04300000
_symmetry_Int_Tables_number   1
_chemical_formula_structural   Mo4P4H134C178NO38
_chemical_formula_sum   'Mo8 P8 H268 C356 N2 O76'
_cell_volume   7498.57373038
_cell_formula_units_Z   2
loop_
 _symmetry_equiv_pos_site_id
 _symmetry_equiv_pos_as_xyz
  1  'x, y, z'
loop_
 _atom_site_type_symbol
 _atom_site_label
 _atom_site_symmetry_multiplicity
 _atom_site_fract_x
 _atom_site_fract_y
 _atom_site_fract_z
 _atom_site_occupancy
  Mo  Mo1  1  0.354000  0.403574  0.447381  1
  Mo  Mo2  1  0.646000  0.596426  0.552619  1
  Mo  Mo3  1  0.137280  0.834310  0.472540  1
  Mo  Mo4  1  0.862720  0.165690  0.527460  1
  Mo  Mo5  1  0.553260  0.103550  0.127550  1
  Mo  Mo6  1  0.446740  0.896450  0.872450  1
  Mo  Mo7  1  0.781270  0.673080  0.097390  1
  Mo  Mo8  1  0.218730  0.326920  0.902610  1
  P  P9  1  0.307050  0.591480  0.540880  1
  P  P10  1  0.692950  0.408520  0.459120  1
  P  P11  1  0.295730  0.240870  0.243770  1
  P  P12  1  0.704270  0.759130  0.756230  1
  P  P13  1  0.912930  0.255950  0.087460  1
  P  P14  1  0.087070  0.744050  0.912540  1
  P  P15  1  0.269200  0.269400  0.246500  1
  P  P16  1  0.730800  0.730600  0.753500  1
  H  H17  1  0.133500  0.241900  0.470500  1
  H  H18  1  0.866500  0.758100  0.529500  1
  H  H19  1  0.449300  0.210200  0.424200  1
  H  H20  1  0.550700  0.789800  0.575800  1
  H  H21  1  0.366100  0.979200  0.436900  1
  H  H22  1  0.633900  0.020800  0.563100  1
  H  H23  1  0.062700  0.041100  0.490600  1
  H  H24  1  0.937300  0.958900  0.509400  1
  H  H25  1  0.412200  0.101200  0.333900  1
  H  H26  1  0.587800  0.898800  0.666100  1
  H  H27  1  0.563900  0.098000  0.289400  1
  H  H28  1  0.436100  0.902000  0.710600  1
  H  H29  1  0.684800  0.073600  0.344700  1
  H  H30  1  0.315200  0.926400  0.655300  1
  H  H31  1  0.654900  0.062000  0.442400  1
  H  H32  1  0.345100  0.938000  0.557600  1
  H  H33  1  0.507900  0.074700  0.485300  1
  H  H34  1  0.492100  0.925300  0.514700  1
  H  H35  1  0.061600  0.980100  0.298200  1
  H  H36  1  0.938400  0.019900  0.701800  1
  H  H37  1  0.845800  0.837600  0.427200  1
  H  H38  1  0.154200  0.162400  0.572800  1
  H  H39  1  0.613400  0.946400  0.288400  1
  H  H40  1  0.386600  0.053600  0.711600  1
  H  H41  1  0.850800  0.085000  0.185600  1
  H  H42  1  0.149200  0.915000  0.814400  1
  H  H43  1  0.770600  0.790700  0.359300  1
  H  H44  1  0.229400  0.209300  0.640700  1
  H  H45  1  0.656900  0.716700  0.408200  1
  H  H46  1  0.343100  0.283300  0.591800  1
  H  H47  1  0.518400  0.752100  0.449800  1
  H  H48  1  0.481600  0.247900  0.550200  1
  H  H49  1  0.497500  0.859600  0.444100  1
  H  H50  1  0.502500  0.140400  0.555900  1
  H  H51  1  0.608200  0.933200  0.394600  1
  H  H52  1  0.391800  0.066800  0.605400  1
  H  H53  1  0.580200  0.266900  0.220300  1
  H  H54  1  0.419800  0.733100  0.779700  1
  H  H55  1  0.611000  0.307900  0.017700  1
  H  H56  1  0.389000  0.692100  0.982300  1
  H  H57  1  0.697900  0.534900  0.006300  1
  H  H58  1  0.302100  0.465100  0.993700  1
  H  H59  1  0.670800  0.464100  0.210100  1
  H  H60  1  0.329200  0.535900  0.789900  1
  H  H61  1  0.508500  0.431100  0.984900  1
  H  H62  1  0.491500  0.568900  0.015100  1
  H  H63  1  0.513100  0.467900  0.883900  1
  H  H64  1  0.486900  0.532100  0.116100  1
  H  H65  1  0.656300  0.464900  0.826900  1
  H  H66  1  0.343700  0.535100  0.173100  1
  H  H67  1  0.785400  0.423400  0.870100  1
  H  H68  1  0.214600  0.576600  0.129900  1
  H  H69  1  0.780700  0.394700  0.970300  1
  H  H70  1  0.219300  0.605300  0.029700  1
  H  H71  1  0.035800  0.534100  0.145100  1
  H  H72  1  0.964200  0.465900  0.854900  1
  H  H73  1  0.914200  0.670700  0.256300  1
  H  H74  1  0.085800  0.329300  0.743700  1
  H  H75  1  0.133700  0.556700  0.400600  1
  H  H76  1  0.866300  0.443300  0.599400  1
  H  H77  1  0.247300  0.448600  0.263100  1
  H  H78  1  0.752700  0.551400  0.736900  1
  H  H79  1  0.120600  0.679300  0.340400  1
  H  H80  1  0.879400  0.320700  0.659600  1
  H  H81  1  0.059200  0.737200  0.403300  1
  H  H82  1  0.940800  0.262800  0.596700  1
  H  H83  1  0.905600  0.721100  0.445800  1
  H  H84  1  0.094400  0.278900  0.554200  1
  H  H85  1  0.817300  0.647800  0.424600  1
  H  H86  1  0.182700  0.352200  0.575400  1
  H  H87  1  0.879400  0.592000  0.359400  1
  H  H88  1  0.120600  0.408000  0.640600  1
  H  H89  1  0.412300  0.513400  0.574700  1
  H  H90  1  0.587700  0.486600  0.425300  1
  H  H91  1  0.326800  0.483000  0.558600  1
  H  H92  1  0.673200  0.517000  0.441400  1
  H  H93  1  0.318900  0.502400  0.617400  1
  H  H94  1  0.681100  0.497600  0.382600  1
  H  H95  1  0.175600  0.500100  0.541500  1
  H  H96  1  0.824400  0.499900  0.458500  1
  H  H97  1  0.016600  0.502200  0.545000  1
  H  H98  1  0.983400  0.497800  0.455000  1
  H  H99  1  0.932500  0.592800  0.546900  1
  H  H100  1  0.067500  0.407200  0.453100  1
  H  H101  1  0.005300  0.684100  0.549200  1
  H  H102  1  0.994700  0.315900  0.450800  1
  H  H103  1  0.163300  0.683100  0.550600  1
  H  H104  1  0.836700  0.316900  0.449400  1
  H  H105  1  0.481600  0.579000  0.481200  1
  H  H106  1  0.518400  0.421000  0.518800  1
  H  H107  1  0.544400  0.612600  0.384900  1
  H  H108  1  0.455600  0.387400  0.615100  1
  H  H109  1  0.453200  0.664500  0.313200  1
  H  H110  1  0.546800  0.335500  0.686800  1
  H  H111  1  0.299300  0.691400  0.339000  1
  H  H112  1  0.700700  0.308600  0.661000  1
  H  H113  1  0.235700  0.653300  0.435100  1
  H  H114  1  0.764300  0.346700  0.564900  1
  H  H115  1  0.323500  0.726500  0.506100  1
  H  H116  1  0.676500  0.273500  0.493900  1
  H  H117  1  0.353200  0.803000  0.551000  1
  H  H118  1  0.646800  0.197000  0.449000  1
  H  H119  1  0.398500  0.769800  0.643600  1
  H  H120  1  0.601500  0.230200  0.356400  1
  H  H121  1  0.406100  0.660900  0.693200  1
  H  H122  1  0.593900  0.339100  0.306800  1
  H  H123  1  0.367400  0.584400  0.649700  1
  H  H124  1  0.632600  0.415600  0.350300  1
  H  H125  1  0.441900  0.222500  0.266600  1
  H  H126  1  0.558100  0.777500  0.733400  1
  H  H127  1  0.374600  0.233300  0.320000  1
  H  H128  1  0.625400  0.766700  0.680000  1
  H  H129  1  0.408500  0.293200  0.267000  1
  H  H130  1  0.591500  0.706800  0.733000  1
  H  H131  1  0.370300  0.133100  0.211100  1
  H  H132  1  0.629700  0.866900  0.788900  1
  H  H133  1  0.350600  0.027600  0.241800  1
  H  H134  1  0.649400  0.972400  0.758200  1
  H  H135  1  0.229900  0.982500  0.317200  1
  H  H136  1  0.770100  0.017500  0.682800  1
  H  H137  1  0.129500  0.054200  0.353300  1
  H  H138  1  0.870500  0.945800  0.646700  1
  H  H139  1  0.157000  0.163400  0.323800  1
  H  H140  1  0.843000  0.836600  0.676200  1
  H  H141  1  0.385300  0.352000  0.173300  1
  H  H142  1  0.614700  0.648000  0.826700  1
  H  H143  1  0.408800  0.399700  0.070000  1
  H  H144  1  0.591200  0.600300  0.930000  1
  H  H145  1  0.382800  0.338600  0.009500  1
  H  H146  1  0.617200  0.661400  0.990500  1
  H  H147  1  0.315400  0.242100  0.047200  1
  H  H148  1  0.684600  0.757900  0.952800  1
  H  H149  1  0.276800  0.201200  0.142200  1
  H  H150  1  0.723200  0.798800  0.857800  1
  H  H151  1  0.243700  0.284500  0.342100  1
  H  H152  1  0.756300  0.715500  0.657900  1
  H  H153  1  0.119200  0.342700  0.371600  1
  H  H154  1  0.880800  0.657300  0.628400  1
  H  H155  1  0.000000  0.380200  0.311400  1
  H  H156  1  0.000000  0.619800  0.688600  1
  H  H157  1  0.020500  0.360100  0.222600  1
  H  H158  1  0.979500  0.639900  0.777400  1
  H  H159  1  0.143200  0.305100  0.193900  1
  H  H160  1  0.856800  0.694900  0.806100  1
  H  H161  1  0.770600  0.272600  0.131300  1
  H  H162  1  0.229400  0.727400  0.868700  1
  H  H163  1  0.838200  0.242000  0.178400  1
  H  H164  1  0.161800  0.758000  0.821600  1
  H  H165  1  0.795000  0.197900  0.146800  1
  H  H166  1  0.205000  0.802100  0.853200  1
  H  H167  1  0.971200  0.311200  0.966000  1
  H  H168  1  0.028800  0.688800  0.034000  1
  H  H169  1  0.919300  0.304400  0.883600  1
  H  H170  1  0.080700  0.695600  0.116400  1
  H  H171  1  0.795000  0.241700  0.886000  1
  H  H172  1  0.205000  0.758300  0.114000  1
  H  H173  1  0.716500  0.189600  0.976100  1
  H  H174  1  0.283500  0.810400  0.023900  1
  H  H175  1  0.770100  0.191500  0.059500  1
  H  H176  1  0.229900  0.808500  0.940500  1
  H  H177  1  0.091100  0.308600  0.051100  1
  H  H178  1  0.908900  0.691400  0.948900  1
  H  H179  1  0.152000  0.408900  0.044000  1
  H  H180  1  0.848000  0.591100  0.956000  1
  H  H181  1  0.050800  0.496900  0.052100  1
  H  H182  1  0.949200  0.503100  0.947900  1
  H  H183  1  0.900200  0.471100  0.095200  1
  H  H184  1  0.099800  0.528900  0.904800  1
  H  H185  1  0.839900  0.374600  0.102100  1
  H  H186  1  0.160100  0.625400  0.897900  1
  H  H187  1  0.976900  0.193400  0.193100  1
  H  H188  1  0.023100  0.806600  0.806900  1
  H  H189  1  0.093300  0.118700  0.221400  1
  H  H190  1  0.906700  0.881300  0.778600  1
  H  H191  1  0.185100  0.079900  0.152800  1
  H  H192  1  0.814900  0.920100  0.847200  1
  H  H193  1  0.160500  0.115800  0.056000  1
  H  H194  1  0.839500  0.884200  0.944000  1
  H  H195  1  0.044100  0.190500  0.027700  1
  H  H196  1  0.955900  0.809500  0.972300  1
  H  H197  1  0.803700  0.829600  0.220500  1
  H  H198  1  0.196300  0.170400  0.779500  1
  H  H199  1  0.853800  0.897000  0.192600  1
  H  H200  1  0.146200  0.103000  0.807400  1
  H  H201  1  0.943600  0.777200  0.185400  1
  H  H202  1  0.056400  0.222800  0.814600  1
  H  H203  1  0.993000  0.845000  0.167200  1
  H  H204  1  0.007000  0.155000  0.832800  1
  H  H205  1  0.027000  0.784400  0.260600  1
  H  H206  1  0.973000  0.215600  0.739400  1
  H  H207  1  0.920300  0.779400  0.283500  1
  H  H208  1  0.079700  0.220600  0.716500  1
  H  H209  1  0.969500  0.847000  0.265500  1
  H  H210  1  0.030500  0.153000  0.734500  1
  H  H211  1  0.778900  0.974500  0.137500  1
  H  H212  1  0.221100  0.025500  0.862500  1
  H  H213  1  0.707100  0.990700  0.091400  1
  H  H214  1  0.292900  0.009300  0.908600  1
  H  H215  1  0.826700  0.970100  0.020200  1
  H  H216  1  0.173300  0.029900  0.979800  1
  H  H217  1  0.897800  0.960100  0.066400  1
  H  H218  1  0.102200  0.039900  0.933600  1
  H  H219  1  0.798400  0.078700  0.023400  1
  H  H220  1  0.201600  0.921300  0.976600  1
  H  H221  1  0.867500  0.068800  0.070800  1
  H  H222  1  0.132500  0.931200  0.929200  1
  H  H223  1  0.943800  0.121700  0.977900  1
  H  H224  1  0.056200  0.878300  0.022100  1
  H  H225  1  0.922400  0.063300  0.954700  1
  H  H226  1  0.077600  0.936700  0.045300  1
  H  H227  1  0.991300  0.053400  0.002000  1
  H  H228  1  0.008700  0.946600  0.998000  1
  H  H229  1  0.620400  0.953400  0.056100  1
  H  H230  1  0.379600  0.046600  0.943900  1
  H  H231  1  0.565400  0.887500  0.079300  1
  H  H232  1  0.434600  0.112500  0.920700  1
  H  H233  1  0.611200  0.921500  0.145800  1
  H  H234  1  0.388800  0.078500  0.854200  1
  H  H235  1  0.676700  0.902500  0.195500  1
  H  H236  1  0.323300  0.097500  0.804500  1
  H  H237  1  0.663100  0.793300  0.205400  1
  H  H238  1  0.336900  0.206700  0.794600  1
  H  H239  1  0.610900  0.808400  0.149300  1
  H  H240  1  0.389100  0.191600  0.850700  1
  H  H241  1  0.521000  0.467500  0.980100  1
  H  H242  1  0.479000  0.532500  0.019900  1
  H  H243  1  0.536700  0.502900  0.880200  1
  H  H244  1  0.463300  0.497100  0.119800  1
  H  H245  1  0.788300  0.476600  0.866700  1
  H  H246  1  0.211700  0.523400  0.133300  1
  H  H247  1  0.786100  0.446400  0.967700  1
  H  H248  1  0.213900  0.553600  0.032300  1
  H  H249  1  0.406200  0.265300  0.282900  1
  H  H250  1  0.593800  0.734700  0.717100  1
  H  H251  1  0.324100  0.280100  0.327100  1
  H  H252  1  0.675900  0.719900  0.672900  1
  H  H253  1  0.362300  0.335600  0.271500  1
  H  H254  1  0.637700  0.664400  0.728500  1
  H  H255  1  0.363900  0.155400  0.230600  1
  H  H256  1  0.636100  0.844600  0.769400  1
  H  H257  1  0.337200  0.045800  0.266900  1
  H  H258  1  0.662800  0.954200  0.733100  1
  H  H259  1  0.204800  0.009200  0.329500  1
  H  H260  1  0.795200  0.990800  0.670500  1
  H  H261  1  0.099100  0.082200  0.355700  1
  H  H262  1  0.900900  0.917800  0.644300  1
  H  H263  1  0.125800  0.191800  0.319400  1
  H  H264  1  0.874200  0.808200  0.680600  1
  H  H265  1  0.181900  0.311600  0.341000  1
  H  H266  1  0.818100  0.688400  0.659000  1
  H  H267  1  0.043200  0.364900  0.354900  1
  H  H268  1  0.956800  0.635100  0.645100  1
  H  H269  1  0.953600  0.401000  0.279400  1
  H  H270  1  0.046400  0.599000  0.720600  1
  H  H271  1  0.002800  0.383900  0.189900  1
  H  H272  1  0.997200  0.616100  0.810100  1
  H  H273  1  0.141600  0.330600  0.176000  1
  H  H274  1  0.858400  0.669400  0.824000  1
  H  H275  1  0.373300  0.370200  0.177000  1
  H  H276  1  0.626700  0.629800  0.823000  1
  H  H277  1  0.424200  0.409100  0.078700  1
  H  H278  1  0.575800  0.590900  0.921300  1
  H  H279  1  0.388200  0.355400  0.014500  1
  H  H280  1  0.611800  0.644600  0.985500  1
  H  H281  1  0.301200  0.262600  0.048700  1
  H  H282  1  0.698800  0.737400  0.951300  1
  H  H283  1  0.250200  0.223700  0.147000  1
  H  H284  1  0.749800  0.776300  0.853000  1
  C  C285  1  0.174800  0.519800  0.717200  1
  C  C286  1  0.825200  0.480200  0.282800  1
  C  C287  1  0.178600  0.718400  0.720200  1
  C  C288  1  0.821400  0.281600  0.279800  1
  C  C289  1  0.665000  0.286000  0.793300  1
  C  C290  1  0.335000  0.714000  0.206700  1
  C  C291  1  0.363800  0.856400  0.348500  1
  C  C292  1  0.636200  0.143600  0.651500  1
  C  C293  1  0.703000  0.634300  0.319100  1
  C  C294  1  0.297000  0.365700  0.680900  1
  C  C295  1  0.231800  0.177800  0.456900  1
  C  C296  1  0.768200  0.822200  0.543100  1
  C  C297  1  0.197400  0.235500  0.462300  1
  C  C298  1  0.802600  0.764500  0.537700  1
  C  C299  1  0.259200  0.285100  0.455300  1
  C  C300  1  0.740800  0.714900  0.544700  1
  C  C301  1  0.356300  0.272400  0.442000  1
  C  C302  1  0.643700  0.727600  0.558000  1
  C  C303  1  0.386000  0.216300  0.434900  1
  C  C304  1  0.614000  0.783700  0.565100  1
  C  C305  1  0.325100  0.165100  0.442800  1
  C  C306  1  0.674900  0.834900  0.557200  1
  C  C307  1  0.351500  0.104500  0.436600  1
  C  C308  1  0.648500  0.895500  0.563400  1
  C  C309  1  0.286800  0.056300  0.449500  1
  C  C310  1  0.713200  0.943700  0.550500  1
  C  C311  1  0.305700  0.991700  0.448200  1
  C  C312  1  0.694300  0.008300  0.551800  1
  C  C313  1  0.237900  0.948300  0.462900  1
  C  C314  1  0.762100  0.051700  0.537100  1
  C  C315  1  0.143400  0.965500  0.479500  1
  C  C316  1  0.856600  0.034500  0.520500  1
  C  C317  1  0.123500  0.028300  0.480400  1
  C  C318  1  0.876500  0.971700  0.519600  1
  C  C319  1  0.193500  0.071500  0.466300  1
  C  C320  1  0.806500  0.928500  0.533700  1
  C  C321  1  0.446900  0.092900  0.413400  1
  C  C322  1  0.553100  0.907100  0.586600  1
  C  C323  1  0.462000  0.096100  0.355900  1
  C  C324  1  0.538000  0.903900  0.644100  1
  C  C325  1  0.552700  0.091600  0.329800  1
  C  C326  1  0.447300  0.908400  0.670200  1
  C  C327  1  0.624400  0.078200  0.362000  1
  C  C328  1  0.375600  0.921800  0.638000  1
  C  C329  1  0.606200  0.071800  0.419300  1
  C  C330  1  0.393800  0.928200  0.580700  1
  C  C331  1  0.518200  0.079200  0.445200  1
  C  C332  1  0.481800  0.920800  0.554800  1
  C  C333  1  0.928200  0.954000  0.314700  1
  C  C334  1  0.071800  0.046000  0.685300  1
  C  C335  1  0.018600  0.951500  0.324100  1
  C  C336  1  0.981400  0.048500  0.675900  1
  C  C337  1  0.045700  0.906100  0.372700  1
  C  C338  1  0.954300  0.093900  0.627300  1
  C  C339  1  0.976900  0.864700  0.411700  1
  C  C340  1  0.023100  0.135300  0.588300  1
  C  C341  1  0.888500  0.866500  0.401400  1
  C  C342  1  0.111500  0.133500  0.598600  1
  C  C343  1  0.859900  0.911900  0.351400  1
  C  C344  1  0.140100  0.088100  0.648600  1
  C  C345  1  0.771700  0.916900  0.336100  1
  C  C346  1  0.228300  0.083100  0.663900  1
  C  C347  1  0.748700  0.965300  0.287700  1
  C  C348  1  0.251300  0.034700  0.712300  1
  C  C349  1  0.661600  0.974300  0.268200  1
  C  C350  1  0.338400  0.025700  0.731800  1
  C  C351  1  0.646400  0.022800  0.220800  1
  C  C352  1  0.353600  0.977200  0.779200  1
  C  C353  1  0.718400  0.065500  0.187200  1
  C  C354  1  0.281600  0.934500  0.812800  1
  C  C355  1  0.802800  0.056900  0.205900  1
  C  C356  1  0.197200  0.943100  0.794100  1
  C  C357  1  0.818900  0.007700  0.253800  1
  C  C358  1  0.181100  0.992300  0.746200  1
  C  C359  1  0.700000  0.869700  0.370900  1
  C  C360  1  0.300000  0.130300  0.629100  1
  C  C361  1  0.714600  0.804900  0.375900  1
  C  C362  1  0.285400  0.195100  0.624100  1
  C  C363  1  0.647200  0.760700  0.405200  1
  C  C364  1  0.352800  0.239300  0.594800  1
  C  C365  1  0.565000  0.781700  0.430300  1
  C  C366  1  0.435000  0.218300  0.569700  1
  C  C367  1  0.552500  0.845500  0.426300  1
  C  C368  1  0.447500  0.154500  0.573700  1
  C  C369  1  0.618400  0.889300  0.397000  1
  C  C370  1  0.381600  0.110700  0.603000  1
  C  C371  1  0.610500  0.334600  0.143600  1
  C  C372  1  0.389500  0.665400  0.856400  1
  C  C373  1  0.586500  0.275100  0.179600  1
  C  C374  1  0.413500  0.724900  0.820400  1
  C  C375  1  0.571200  0.225900  0.153900  1
  C  C376  1  0.428800  0.774100  0.846100  1
  C  C377  1  0.584400  0.240400  0.092400  1
  C  C378  1  0.415600  0.759600  0.907600  1
  C  C379  1  0.605500  0.299500  0.058300  1
  C  C380  1  0.394500  0.700500  0.941700  1
  C  C381  1  0.619600  0.349200  0.082400  1
  C  C382  1  0.380400  0.650800  0.917600  1
  C  C383  1  0.644400  0.412700  0.050000  1
  C  C384  1  0.355600  0.587300  0.950000  1
  C  C385  1  0.664200  0.456100  0.077200  1
  C  C386  1  0.335800  0.543900  0.922800  1
  C  C387  1  0.692900  0.520500  0.047100  1
  C  C388  1  0.307100  0.479500  0.952900  1
  C  C389  1  0.713000  0.560600  0.077300  1
  C  C390  1  0.287000  0.439400  0.922700  1
  C  C391  1  0.705000  0.539700  0.139800  1
  C  C392  1  0.295000  0.460300  0.860200  1
  C  C393  1  0.676200  0.478500  0.169300  1
  C  C394  1  0.323800  0.521500  0.830700  1
  C  C395  1  0.655600  0.439500  0.138400  1
  C  C396  1  0.344400  0.560500  0.861600  1
  C  C397  1  0.649300  0.430900  0.985500  1
  C  C398  1  0.350700  0.569100  0.014500  1
  C  C399  1  0.565200  0.439300  0.961000  1
  C  C400  1  0.434800  0.560700  0.039000  1
  C  C401  1  0.568200  0.459900  0.901100  1
  C  C402  1  0.431800  0.540100  0.098900  1
  C  C403  1  0.657500  0.469400  0.864300  1
  C  C404  1  0.342500  0.530600  0.135700  1
  C  C405  1  0.733200  0.434200  0.892800  1
  C  C406  1  0.266800  0.565800  0.107200  1
  C  C407  1  0.730300  0.416200  0.952200  1
  C  C408  1  0.269700  0.583800  0.047800  1
  C  C409  1  0.045700  0.561400  0.216800  1
  C  C410  1  0.954300  0.438600  0.783200  1
  C  C411  1  0.011300  0.561900  0.167100  1
  C  C412  1  0.988700  0.438100  0.832900  1
  C  C413  1  0.939400  0.604100  0.149300  1
  C  C414  1  0.060600  0.395900  0.850700  1
  C  C415  1  0.904000  0.644800  0.184600  1
  C  C416  1  0.096000  0.355200  0.815400  1
  C  C417  1  0.938600  0.643200  0.234200  1
  C  C418  1  0.061400  0.356800  0.765800  1
  C  C419  1  0.011100  0.600100  0.252400  1
  C  C420  1  0.988900  0.399900  0.747600  1
  C  C421  1  0.046400  0.592300  0.304400  1
  C  C422  1  0.953600  0.407700  0.695600  1
  C  C423  1  0.118100  0.548800  0.319800  1
  C  C424  1  0.881900  0.451200  0.680200  1
  C  C425  1  0.156200  0.534800  0.373100  1
  C  C426  1  0.843800  0.465200  0.626900  1
  C  C427  1  0.223900  0.490700  0.384600  1
  C  C428  1  0.776100  0.509300  0.615400  1
  C  C429  1  0.261500  0.457200  0.342500  1
  C  C430  1  0.738500  0.542800  0.657500  1
  C  C431  1  0.224100  0.469800  0.291000  1
  C  C432  1  0.775900  0.530200  0.709000  1
  C  C433  1  0.153200  0.513500  0.280800  1
  C  C434  1  0.846800  0.486500  0.719200  1
  C  C435  1  0.006200  0.630000  0.344500  1
  C  C436  1  0.993800  0.370000  0.655500  1
  C  C437  1  0.058900  0.673200  0.357400  1
  C  C438  1  0.941100  0.326800  0.642600  1
  C  C439  1  0.022800  0.707500  0.394700  1
  C  C440  1  0.977200  0.292500  0.605300  1
  C  C441  1  0.931200  0.697800  0.420000  1
  C  C442  1  0.068800  0.302200  0.580000  1
  C  C443  1  0.878700  0.654700  0.407300  1
  C  C444  1  0.121300  0.345300  0.592700  1
  C  C445  1  0.916000  0.621000  0.368900  1
  C  C446  1  0.084000  0.379000  0.631100  1
  C  C447  1  0.345600  0.513900  0.576900  1
  C  C448  1  0.654400  0.486100  0.423100  1
  C  C449  1  0.185700  0.591800  0.545100  1
  C  C450  1  0.814300  0.408200  0.454900  1
  C  C451  1  0.141600  0.537600  0.543600  1
  C  C452  1  0.858400  0.462400  0.456400  1
  C  C453  1  0.046900  0.539400  0.545100  1
  C  C454  1  0.953100  0.460600  0.454900  1
  C  C455  1  0.996800  0.592600  0.546800  1
  C  C456  1  0.003200  0.407400  0.453200  1
  C  C457  1  0.040100  0.646600  0.548300  1
  C  C458  1  0.959900  0.353400  0.451700  1
  C  C459  1  0.134100  0.646400  0.548400  1
  C  C460  1  0.865900  0.353600  0.451600  1
  C  C461  1  0.352600  0.614000  0.466400  1
  C  C462  1  0.647400  0.386000  0.533600  1
  C  C463  1  0.445000  0.601000  0.452200  1
  C  C464  1  0.555000  0.399000  0.547800  1
  C  C465  1  0.481700  0.620800  0.395300  1
  C  C466  1  0.518300  0.379200  0.604700  1
  C  C467  1  0.427600  0.652700  0.352500  1
  C  C468  1  0.572400  0.347300  0.647500  1
  C  C469  1  0.335400  0.667300  0.367500  1
  C  C470  1  0.664600  0.332700  0.632500  1
  C  C471  1  0.298600  0.646000  0.424500  1
  C  C472  1  0.701400  0.354000  0.575500  1
  C  C473  1  0.341300  0.648200  0.574700  1
  C  C474  1  0.658700  0.351800  0.425300  1
  C  C475  1  0.338500  0.713500  0.544400  1
  C  C476  1  0.661500  0.286500  0.455600  1
  C  C477  1  0.357700  0.758800  0.570500  1
  C  C478  1  0.642300  0.241200  0.429500  1
  C  C479  1  0.383600  0.738900  0.625900  1
  C  C480  1  0.616400  0.261100  0.374100  1
  C  C481  1  0.388100  0.674000  0.655600  1
  C  C482  1  0.611900  0.326000  0.344400  1
  C  C483  1  0.365700  0.628500  0.629600  1
  C  C484  1  0.634300  0.371500  0.370400  1
  C  C485  1  0.390800  0.248300  0.278200  1
  C  C486  1  0.609200  0.751700  0.721800  1
  C  C487  1  0.269100  0.159000  0.264000  1
  C  C488  1  0.730900  0.841000  0.736000  1
  C  C489  1  0.322600  0.116500  0.241100  1
  C  C490  1  0.677400  0.883500  0.758900  1
  C  C491  1  0.311000  0.054700  0.258600  1
  C  C492  1  0.689000  0.945300  0.741400  1
  C  C493  1  0.238300  0.027300  0.303200  1
  C  C494  1  0.761700  0.972700  0.696800  1
  C  C495  1  0.180100  0.070400  0.325400  1
  C  C496  1  0.819900  0.929600  0.674600  1
  C  C497  1  0.195100  0.135300  0.307500  1
  C  C498  1  0.804900  0.864700  0.692500  1
  C  C499  1  0.325700  0.272400  0.167100  1
  C  C500  1  0.674300  0.727600  0.832900  1
  C  C501  1  0.368100  0.330700  0.147500  1
  C  C502  1  0.631900  0.669300  0.852500  1
  C  C503  1  0.385300  0.357800  0.085800  1
  C  C504  1  0.614700  0.642200  0.914200  1
  C  C505  1  0.367300  0.322500  0.050000  1
  C  C506  1  0.632700  0.677500  0.950000  1
  C  C507  1  0.328100  0.265700  0.072300  1
  C  C508  1  0.671900  0.734300  0.927700  1
  C  C509  1  0.306400  0.241300  0.128300  1
  C  C510  1  0.693600  0.758700  0.871700  1
  C  C511  1  0.200700  0.287700  0.265400  1
  C  C512  1  0.799300  0.712300  0.734600  1
  C  C513  1  0.196900  0.299600  0.318200  1
  C  C514  1  0.803100  0.700400  0.681800  1
  C  C515  1  0.122800  0.334300  0.335400  1
  C  C516  1  0.877200  0.665700  0.664600  1
  C  C517  1  0.052100  0.357500  0.299900  1
  C  C518  1  0.947900  0.642500  0.700100  1
  C  C519  1  0.065100  0.344700  0.248300  1
  C  C520  1  0.934900  0.655300  0.751700  1
  C  C521  1  0.137600  0.311500  0.231100  1
  C  C522  1  0.862400  0.688500  0.768900  1
  C  C523  1  0.818700  0.240400  0.142100  1
  C  C524  1  0.181300  0.759600  0.857900  1
  C  C525  1  0.875600  0.252900  0.021200  1
  C  C526  1  0.124400  0.747100  0.978800  1
  C  C527  1  0.919700  0.285800  0.968300  1
  C  C528  1  0.080300  0.714200  0.031700  1
  C  C529  1  0.888700  0.281400  0.919800  1
  C  C530  1  0.111300  0.718600  0.080200  1
  C  C531  1  0.814400  0.244900  0.920600  1
  C  C532  1  0.185600  0.755100  0.079400  1
  C  C533  1  0.769600  0.213300  0.974000  1
  C  C534  1  0.230400  0.786700  0.026000  1
  C  C535  1  0.799900  0.215400  0.023400  1
  C  C536  1  0.200100  0.784600  0.976600  1
  C  C537  1  0.958200  0.332900  0.078900  1
  C  C538  1  0.041800  0.667100  0.921100  1
  C  C539  1  0.053200  0.341900  0.059600  1
  C  C540  1  0.946800  0.658100  0.940400  1
  C  C541  1  0.088100  0.402300  0.053600  1
  C  C542  1  0.911900  0.597700  0.946400  1
  C  C543  1  0.029000  0.454500  0.061500  1
  C  C544  1  0.971000  0.545500  0.938500  1
  C  C545  1  0.938500  0.439600  0.083900  1
  C  C546  1  0.061500  0.560400  0.916100  1
  C  C547  1  0.903200  0.381600  0.090000  1
  C  C548  1  0.096800  0.618400  0.910000  1
  C  C549  1  0.999600  0.199000  0.107700  1
  C  C550  1  0.000400  0.801000  0.892300  1
  C  C551  1  0.014200  0.177600  0.165300  1
  C  C552  1  0.985800  0.822400  0.834700  1
  C  C553  1  0.083300  0.133300  0.182100  1
  C  C554  1  0.916700  0.866700  0.817900  1
  C  C555  1  0.137800  0.110200  0.141400  1
  C  C556  1  0.862200  0.889800  0.858600  1
  C  C557  1  0.123200  0.131500  0.083800  1
  C  C558  1  0.876800  0.868500  0.916200  1
  C  C559  1  0.054100  0.175900  0.067000  1
  C  C560  1  0.945900  0.824100  0.933000  1
  C  C561  1  0.823000  0.855100  0.129900  1
  C  C562  1  0.177000  0.144900  0.870100  1
  C  C563  1  0.849900  0.853100  0.189400  1
  C  C564  1  0.150100  0.146900  0.810600  1
  C  C565  1  0.945300  0.818200  0.194700  1
  C  C566  1  0.054700  0.181800  0.805300  1
  C  C567  1  0.967500  0.806100  0.256700  1
  C  C568  1  0.032500  0.193900  0.743300  1
  C  C569  1  0.762000  0.964800  0.103100  1
  C  C570  1  0.238000  0.035200  0.896900  1
  C  C571  1  0.841100  0.982800  0.053800  1
  C  C572  1  0.158900  0.017200  0.946200  1
  C  C573  1  0.854800  0.056200  0.036800  1
  C  C574  1  0.145200  0.943800  0.963200  1
  C  C575  1  0.935400  0.075400  0.988400  1
  C  C576  1  0.064600  0.924600  0.011600  1
  C  C577  1  0.707700  0.872900  0.071300  1
  C  C578  1  0.292300  0.127100  0.928700  1
  C  C579  1  0.619000  0.909100  0.053600  1
  C  C580  1  0.381000  0.090900  0.946400  1
  C  C581  1  0.613200  0.909200  0.989900  1
  C  C582  1  0.386800  0.090800  0.010100  1
  C  C583  1  0.658900  0.890800  0.162200  1
  C  C584  1  0.341100  0.109200  0.837800  1
  C  C585  1  0.620000  0.823200  0.182800  1
  C  C586  1  0.380000  0.176800  0.817200  1
  C  C587  1  0.525900  0.824300  0.221300  1
  C  C588  1  0.474100  0.175700  0.778700  1
  C  C589  1  0.087300  0.899200  0.629700  1
  C  C590  1  0.912700  0.100800  0.370300  1
  C  C591  1  0.576700  0.460400  0.958500  1
  C  C592  1  0.423300  0.539600  0.041500  1
  C  C593  1  0.586400  0.479900  0.898100  1
  C  C594  1  0.413600  0.520100  0.101900  1
  C  C595  1  0.731500  0.466000  0.890100  1
  C  C596  1  0.268500  0.534000  0.109900  1
  C  C597  1  0.731200  0.447400  0.951200  1
  C  C598  1  0.268800  0.552600  0.048800  1
  C  C599  1  0.349500  0.289900  0.286500  1
  C  C600  1  0.650500  0.710100  0.713500  1
  C  C601  1  0.247400  0.183900  0.271500  1
  C  C602  1  0.752600  0.816100  0.728500  1
  C  C603  1  0.310200  0.140600  0.256000  1
  C  C604  1  0.689800  0.859400  0.744000  1
  C  C605  1  0.294300  0.075400  0.277600  1
  C  C606  1  0.705700  0.924600  0.722400  1
  C  C607  1  0.215700  0.053700  0.314700  1
  C  C608  1  0.784300  0.946300  0.685300  1
  C  C609  1  0.152900  0.097100  0.330300  1
  C  C610  1  0.847100  0.902900  0.669700  1
  C  C611  1  0.168700  0.162200  0.308700  1
  C  C612  1  0.831300  0.837800  0.691300  1
  C  C613  1  0.174800  0.316100  0.257200  1
  C  C614  1  0.825200  0.683900  0.742800  1
  C  C615  1  0.145600  0.326300  0.310300  1
  C  C616  1  0.854400  0.673700  0.689700  1
  C  C617  1  0.063100  0.357900  0.318600  1
  C  C618  1  0.936900  0.642100  0.681400  1
  C  C619  1  0.009900  0.379400  0.273700  1
  C  C620  1  0.990100  0.620600  0.726300  1
  C  C621  1  0.039200  0.369200  0.220600  1
  C  C622  1  0.960800  0.630800  0.779400  1
  C  C623  1  0.121600  0.337600  0.212300  1
  C  C624  1  0.878400  0.662400  0.787700  1
  C  C625  1  0.307000  0.293300  0.171300  1
  C  C626  1  0.693000  0.706700  0.828700  1
  C  C627  1  0.358600  0.348400  0.150900  1
  C  C628  1  0.641400  0.651600  0.849100  1
  C  C629  1  0.388900  0.371500  0.092500  1
  C  C630  1  0.611100  0.628500  0.907500  1
  C  C631  1  0.367500  0.339500  0.054500  1
  C  C632  1  0.632500  0.660500  0.945500  1
  C  C633  1  0.315800  0.284500  0.074800  1
  C  C634  1  0.684200  0.715500  0.925200  1
  C  C635  1  0.285500  0.261300  0.133200  1
  C  C636  1  0.714500  0.738700  0.866800  1
  C  C637  1  0.521800  0.479800  0.288600  1
  C  C638  1  0.478200  0.520200  0.711400  1
  C  C639  1  0.463100  0.453100  0.259800  1
  C  C640  1  0.536900  0.546900  0.740200  1
  N  N641  1  0.740400  0.895500  0.117800  1
  N  N642  1  0.259600  0.104500  0.882200  1
  O  O643  1  0.254400  0.479800  0.717100  1
  O  O644  1  0.745600  0.520200  0.282900  1
  O  O645  1  0.103800  0.756700  0.738100  1
  O  O646  1  0.896200  0.243300  0.261900  1
  O  O647  1  0.724500  0.342300  0.779200  1
  O  O648  1  0.275500  0.657700  0.220800  1
  O  O649  1  0.284300  0.861700  0.322100  1
  O  O650  1  0.715700  0.138300  0.677900  1
  O  O651  1  0.685700  0.680000  0.278800  1
  O  O652  1  0.314300  0.320000  0.721200  1
  O  O653  1  0.454600  0.443230  0.420600  1
  O  O654  1  0.545400  0.556770  0.579400  1
  O  O655  1  0.343800  0.395440  0.519580  1
  O  O656  1  0.656200  0.604560  0.480420  1
  O  O657  1  0.408900  0.321300  0.439330  1
  O  O658  1  0.591100  0.678700  0.560670  1
  O  O659  1  0.236800  0.341140  0.459780  1
  O  O660  1  0.763200  0.658860  0.540220  1
  O  O661  1  0.248900  0.886870  0.464180  1
  O  O662  1  0.751100  0.113130  0.535820  1
  O  O663  1  0.085300  0.921180  0.490390  1
  O  O664  1  0.914700  0.078820  0.509610  1
  O  O665  1  0.168400  0.131840  0.467150  1
  O  O666  1  0.831600  0.868160  0.532850  1
  O  O667  1  0.198800  0.780700  0.442400  1
  O  O668  1  0.801200  0.219300  0.557600  1
  O  O669  1  0.116200  0.794020  0.545100  1
  O  O670  1  0.883800  0.205980  0.454900  1
  O  O671  1  0.009700  0.824820  0.458360  1
  O  O672  1  0.990300  0.175180  0.541640  1
  O  O673  1  0.127500  0.899200  0.385970  1
  O  O674  1  0.872500  0.100800  0.614030  1
  O  O675  1  0.566100  0.034500  0.199600  1
  O  O676  1  0.433900  0.965500  0.800400  1
  O  O677  1  0.696800  0.108300  0.141700  1
  O  O678  1  0.303200  0.891700  0.858300  1
  O  O679  1  0.905100  0.001300  0.267420  1
  O  O680  1  0.094900  0.998700  0.732580  1
  O  O681  1  0.587400  0.067800  0.074600  1
  O  O682  1  0.412600  0.932200  0.925400  1
  O  O683  1  0.437800  0.098300  0.137700  1
  O  O684  1  0.562200  0.901700  0.862300  1
  O  O685  1  0.576000  0.190200  0.073170  1
  O  O686  1  0.424000  0.809800  0.926830  1
  O  O687  1  0.545500  0.169100  0.182600  1
  O  O688  1  0.454500  0.830900  0.817400  1
  O  O689  1  0.743000  0.620000  0.051550  1
  O  O690  1  0.257000  0.380000  0.948450  1
  O  O691  1  0.728100  0.583200  0.162620  1
  O  O692  1  0.271900  0.416800  0.837380  1
  O  O693  1  0.627900  0.378800  0.169730  1
  O  O694  1  0.372100  0.621200  0.830270  1
  O  O695  1  0.832500  0.728200  0.039100  1
  O  O696  1  0.167500  0.271800  0.960900  1
  O  O697  1  0.684200  0.711000  0.115900  1
  O  O698  1  0.315800  0.289000  0.884100  1
  O  O699  1  0.834900  0.684500  0.163570  1
  O  O700  1  0.165100  0.315500  0.836430  1
  O  O701  1  0.900300  0.610500  0.103760  1
  O  O702  1  0.099700  0.389500  0.896240  1
  O  O703  1  0.261100  0.473200  0.433960  1
  O  O704  1  0.738900  0.526800  0.566040  1
  O  O705  1  0.325000  0.416070  0.357880  1
  O  O706  1  0.675000  0.583930  0.642120  1
  O  O707  1  0.116300  0.520520  0.231190  1
  O  O708  1  0.883700  0.479480  0.768810  1
  O  O709  1  0.495700  0.534700  0.280800  1
  O  O710  1  0.504300  0.465300  0.719200  1
  O  O711  1  0.043200  0.837600  0.639400  1
  O  O712  1  0.956800  0.162400  0.360600  1
  O  O713  1  0.237500  0.799800  0.254400  1
  O  O714  1  0.762500  0.200200  0.745600  1
  O  O715  1  0.431000  0.400200  0.256000  1
  O  O716  1  0.569000  0.599800  0.744000  1
  O  O717  1  0.490900  0.528400  0.238000  1
  O  O718  1  0.509100  0.471600  0.762000  1
