# generated using pymatgen
data_P2H54W2(C27O7)3
_symmetry_space_group_name_H-M   'P 1'
_cell_length_a   14.76790000
_cell_length_b   22.10040000
_cell_length_c   24.41640000
_cell_angle_alpha   72.92700000
_cell_angle_beta   82.58800000
_cell_angle_gamma   87.11400000
_symmetry_Int_Tables_number   1
_chemical_formula_structural   P2H54W2(C27O7)3
_chemical_formula_sum   'P8 H216 W8 C324 O84'
_cell_volume   7553.45280164
_cell_formula_units_Z   4
loop_
 _symmetry_equiv_pos_site_id
 _symmetry_equiv_pos_as_xyz
  1  'x, y, z'
loop_
 _atom_site_type_symbol
 _atom_site_label
 _atom_site_symmetry_multiplicity
 _atom_site_fract_x
 _atom_site_fract_y
 _atom_site_fract_z
 _atom_site_occupancy
  P  P1  1  0.188000  0.404600  0.965500  1
  P  P2  1  0.812000  0.595400  0.034500  1
  P  P3  1  0.214900  0.750800  0.253900  1
  P  P4  1  0.785100  0.249200  0.746100  1
  P  P5  1  0.410700  0.264600  0.594100  1
  P  P6  1  0.589300  0.735400  0.405900  1
  P  P7  1  0.669700  0.117300  0.387500  1
  P  P8  1  0.330300  0.882700  0.612500  1
  H  H9  1  0.367000  0.760400  0.024000  1
  H  H10  1  0.633000  0.239600  0.976000  1
  H  H11  1  0.054200  0.793100  0.069500  1
  H  H12  1  0.945800  0.206900  0.930500  1
  H  H13  1  0.135900  0.015300  0.064900  1
  H  H14  1  0.864100  0.984700  0.935100  1
  H  H15  1  0.437000  0.959800  0.011000  1
  H  H16  1  0.563000  0.040200  0.989000  1
  H  H17  1  0.992700  0.923000  0.012600  1
  H  H18  1  0.007300  0.077000  0.987400  1
  H  H19  1  0.844700  0.940300  0.053800  1
  H  H20  1  0.155300  0.059700  0.946200  1
  H  H21  1  0.816900  0.925300  0.152700  1
  H  H22  1  0.183100  0.074700  0.847300  1
  H  H23  1  0.935100  0.898600  0.209900  1
  H  H24  1  0.064900  0.101400  0.790100  1
  H  H25  1  0.087800  0.891900  0.165300  1
  H  H26  1  0.912200  0.108100  0.834700  1
  H  H27  1  0.446100  0.014500  0.208500  1
  H  H28  1  0.553900  0.985500  0.791500  1
  H  H29  1  0.655500  0.159300  0.078100  1
  H  H30  1  0.344500  0.840700  0.921900  1
  H  H31  1  0.893700  0.051200  0.213300  1
  H  H32  1  0.106300  0.948800  0.786700  1
  H  H33  1  0.655100  0.911100  0.319400  1
  H  H34  1  0.344900  0.088900  0.680600  1
  H  H35  1  0.737500  0.205600  0.145600  1
  H  H36  1  0.262500  0.794400  0.854400  1
  H  H37  1  0.847800  0.277400  0.091300  1
  H  H38  1  0.152200  0.722600  0.908700  1
  H  H39  1  0.988600  0.244800  0.055100  1
  H  H40  1  0.011400  0.755200  0.944900  1
  H  H41  1  0.007400  0.137200  0.056800  1
  H  H42  1  0.992600  0.862800  0.943200  1
  H  H43  1  0.895600  0.063500  0.108900  1
  H  H44  1  0.104400  0.936500  0.891100  1
  H  H45  1  0.932100  0.734100  0.280800  1
  H  H46  1  0.067900  0.265900  0.719200  1
  H  H47  1  0.898200  0.691300  0.484900  1
  H  H48  1  0.101800  0.308700  0.515100  1
  H  H49  1  0.800200  0.470800  0.496300  1
  H  H50  1  0.199800  0.529200  0.503700  1
  H  H51  1  0.835000  0.541200  0.291000  1
  H  H52  1  0.165000  0.458800  0.709000  1
  H  H53  1  0.991200  0.551700  0.518400  1
  H  H54  1  0.008800  0.448300  0.481600  1
  H  H55  1  0.983300  0.520900  0.621100  1
  H  H56  1  0.016700  0.479100  0.378900  1
  H  H57  1  0.845900  0.506700  0.678800  1
  H  H58  1  0.154100  0.493300  0.321200  1
  H  H59  1  0.713300  0.556600  0.632400  1
  H  H60  1  0.286700  0.443400  0.367600  1
  H  H61  1  0.717800  0.580000  0.533400  1
  H  H62  1  0.282200  0.420000  0.466600  1
  H  H63  1  0.461100  0.473600  0.351500  1
  H  H64  1  0.538900  0.526400  0.648500  1
  H  H65  1  0.583600  0.331400  0.246200  1
  H  H66  1  0.416400  0.668600  0.753800  1
  H  H67  1  0.367300  0.445300  0.097100  1
  H  H68  1  0.632700  0.554700  0.902900  1
  H  H69  1  0.251600  0.555400  0.231400  1
  H  H70  1  0.748400  0.444600  0.768600  1
  H  H71  1  0.618600  0.407300  0.140400  1
  H  H72  1  0.381400  0.592700  0.859600  1
  H  H73  1  0.678600  0.346200  0.079700  1
  H  H74  1  0.321400  0.653800  0.920300  1
  H  H75  1  0.586100  0.274800  0.060000  1
  H  H76  1  0.413900  0.725200  0.940000  1
  H  H77  1  0.433700  0.264300  0.098500  1
  H  H78  1  0.566300  0.735700  0.901500  1
  H  H79  1  0.371400  0.326100  0.157900  1
  H  H80  1  0.628600  0.673900  0.842100  1
  H  H81  1  0.163500  0.511500  0.949300  1
  H  H82  1  0.836500  0.488500  0.050700  1
  H  H83  1  0.078500  0.480000  0.934100  1
  H  H84  1  0.921500  0.520000  0.065900  1
  H  H85  1  0.170300  0.493600  0.890000  1
  H  H86  1  0.829700  0.506400  0.110000  1
  H  H87  1  0.333200  0.313600  0.958200  1
  H  H88  1  0.666800  0.686400  0.041800  1
  H  H89  1  0.489900  0.314200  0.957400  1
  H  H90  1  0.510100  0.685800  0.042600  1
  H  H91  1  0.565200  0.407200  0.955100  1
  H  H92  1  0.434800  0.592800  0.044900  1
  H  H93  1  0.475400  0.500200  0.956800  1
  H  H94  1  0.524600  0.499800  0.043200  1
  H  H95  1  0.317800  0.497500  0.960600  1
  H  H96  1  0.682200  0.502500  0.039400  1
  H  H97  1  0.260100  0.337100  0.067300  1
  H  H98  1  0.739900  0.662900  0.932700  1
  H  H99  1  0.198800  0.295500  0.168600  1
  H  H100  1  0.801200  0.704500  0.831400  1
  H  H101  1  0.040200  0.320200  0.194000  1
  H  H102  1  0.959800  0.679800  0.806000  1
  H  H103  1  0.952500  0.382100  0.123400  1
  H  H104  1  0.047500  0.617900  0.876600  1
  H  H105  1  0.016800  0.418600  0.026300  1
  H  H106  1  0.983200  0.581400  0.973700  1
  H  H107  1  0.122300  0.413100  0.857900  1
  H  H108  1  0.877700  0.586900  0.142100  1
  H  H109  1  0.080800  0.336500  0.815200  1
  H  H110  1  0.919200  0.663500  0.184800  1
  H  H111  1  0.100800  0.229200  0.860500  1
  H  H112  1  0.899200  0.770800  0.139500  1
  H  H113  1  0.145000  0.194300  0.955800  1
  H  H114  1  0.855000  0.805700  0.044200  1
  H  H115  1  0.178800  0.271500  0.999200  1
  H  H116  1  0.821200  0.728500  0.000800  1
  H  H117  1  0.065200  0.769000  0.229900  1
  H  H118  1  0.934800  0.231000  0.770100  1
  H  H119  1  0.098800  0.699500  0.228400  1
  H  H120  1  0.901200  0.300500  0.771600  1
  H  H121  1  0.132300  0.759800  0.176000  1
  H  H122  1  0.867700  0.240200  0.824000  1
  H  H123  1  0.132100  0.636800  0.323400  1
  H  H124  1  0.867900  0.363200  0.676600  1
  H  H125  1  0.095200  0.592100  0.423700  1
  H  H126  1  0.904800  0.407900  0.576300  1
  H  H127  1  0.116100  0.648800  0.487600  1
  H  H128  1  0.883900  0.351200  0.512400  1
  H  H129  1  0.190000  0.747300  0.453300  1
  H  H130  1  0.810000  0.252700  0.546700  1
  H  H131  1  0.234600  0.790700  0.354100  1
  H  H132  1  0.765400  0.209300  0.645900  1
  H  H133  1  0.265600  0.714600  0.156200  1
  H  H134  1  0.734400  0.285400  0.843800  1
  H  H135  1  0.391000  0.659000  0.125100  1
  H  H136  1  0.609000  0.341000  0.874900  1
  H  H137  1  0.505200  0.619900  0.185000  1
  H  H138  1  0.494800  0.380100  0.815000  1
  H  H139  1  0.494000  0.636400  0.276000  1
  H  H140  1  0.506000  0.363600  0.724000  1
  H  H141  1  0.368500  0.692000  0.307200  1
  H  H142  1  0.631500  0.308000  0.692800  1
  H  H143  1  0.354800  0.831000  0.179200  1
  H  H144  1  0.645200  0.169000  0.820800  1
  H  H145  1  0.376600  0.940500  0.146100  1
  H  H146  1  0.623400  0.059500  0.853900  1
  H  H147  1  0.275000  0.008400  0.182000  1
  H  H148  1  0.725000  0.991600  0.818000  1
  H  H149  1  0.151600  0.966700  0.251000  1
  H  H150  1  0.848400  0.033300  0.749000  1
  H  H151  1  0.129800  0.857200  0.284200  1
  H  H152  1  0.870200  0.142800  0.715800  1
  H  H153  1  0.287800  0.209000  0.651400  1
  H  H154  1  0.712200  0.791000  0.348600  1
  H  H155  1  0.266100  0.283500  0.634700  1
  H  H156  1  0.733900  0.716500  0.365300  1
  H  H157  1  0.330100  0.252000  0.684100  1
  H  H158  1  0.669900  0.748000  0.315900  1
  H  H159  1  0.591900  0.319200  0.555800  1
  H  H160  1  0.408100  0.680800  0.444200  1
  H  H161  1  0.653200  0.415500  0.546100  1
  H  H162  1  0.346800  0.584500  0.453900  1
  H  H163  1  0.554200  0.502200  0.556800  1
  H  H164  1  0.445800  0.497800  0.443200  1
  H  H165  1  0.401400  0.482000  0.593600  1
  H  H166  1  0.598600  0.518000  0.406400  1
  H  H167  1  0.336800  0.382000  0.606900  1
  H  H168  1  0.663200  0.618000  0.393100  1
  H  H169  1  0.272300  0.199000  0.568100  1
  H  H170  1  0.727700  0.801000  0.431900  1
  H  H171  1  0.209400  0.201900  0.479500  1
  H  H172  1  0.790600  0.798100  0.520500  1
  H  H173  1  0.286400  0.255700  0.391600  1
  H  H174  1  0.713600  0.744300  0.608400  1
  H  H175  1  0.418900  0.309300  0.385900  1
  H  H176  1  0.581100  0.690700  0.614100  1
  H  H177  1  0.471700  0.320800  0.472600  1
  H  H178  1  0.528300  0.679200  0.527400  1
  H  H179  1  0.565300  0.211700  0.539500  1
  H  H180  1  0.434700  0.788300  0.460500  1
  H  H181  1  0.684500  0.135000  0.576400  1
  H  H182  1  0.315500  0.865000  0.423600  1
  H  H183  1  0.666000  0.082400  0.676700  1
  H  H184  1  0.334000  0.917600  0.323300  1
  H  H185  1  0.554400  0.104900  0.736600  1
  H  H186  1  0.445600  0.895100  0.263400  1
  H  H187  1  0.445700  0.185900  0.705300  1
  H  H188  1  0.554300  0.814100  0.294700  1
  H  H189  1  0.698500  0.131000  0.475800  1
  H  H190  1  0.301500  0.869000  0.524200  1
  H  H191  1  0.594400  0.149200  0.465700  1
  H  H192  1  0.405600  0.850800  0.534300  1
  H  H193  1  0.673900  0.197900  0.432400  1
  H  H194  1  0.326100  0.802100  0.567600  1
  H  H195  1  0.831900  0.034800  0.384600  1
  H  H196  1  0.168100  0.965200  0.615400  1
  H  H197  1  0.984500  0.054100  0.345500  1
  H  H198  1  0.015500  0.945900  0.654500  1
  H  H199  1  0.030900  0.157000  0.294200  1
  H  H200  1  0.969100  0.843000  0.705800  1
  H  H201  1  0.924700  0.240700  0.282200  1
  H  H202  1  0.075300  0.759300  0.717800  1
  H  H203  1  0.772100  0.221500  0.321300  1
  H  H204  1  0.227900  0.778500  0.678700  1
  H  H205  1  0.676800  0.140900  0.263300  1
  H  H206  1  0.323200  0.859100  0.736700  1
  H  H207  1  0.570200  0.183100  0.198500  1
  H  H208  1  0.429800  0.816900  0.801500  1
  H  H209  1  0.429000  0.221100  0.231000  1
  H  H210  1  0.571000  0.778900  0.769000  1
  H  H211  1  0.394300  0.217100  0.328200  1
  H  H212  1  0.605700  0.782900  0.671800  1
  H  H213  1  0.500800  0.174900  0.393000  1
  H  H214  1  0.499200  0.825100  0.607000  1
  H  H215  1  0.555200  0.034500  0.363000  1
  H  H216  1  0.444800  0.965500  0.637000  1
  H  H217  1  0.509800  0.929600  0.406300  1
  H  H218  1  0.490200  0.070400  0.593700  1
  H  H219  1  0.571100  0.868900  0.489200  1
  H  H220  1  0.428900  0.131100  0.510800  1
  H  H221  1  0.677900  0.913000  0.528800  1
  H  H222  1  0.322100  0.087000  0.471200  1
  H  H223  1  0.723300  0.017900  0.485500  1
  H  H224  1  0.276700  0.982100  0.514500  1
  W  W225  1  0.150670  0.601110  0.045720  1
  W  W226  1  0.849330  0.398890  0.954280  1
  W  W227  1  0.363630  0.160390  0.034990  1
  W  W228  1  0.636370  0.839610  0.965010  1
  W  W229  1  0.957060  0.893550  0.374380  1
  W  W230  1  0.042940  0.106450  0.625620  1
  W  W231  1  0.712420  0.337080  0.404390  1
  W  W232  1  0.287580  0.662920  0.595610  1
  C  C233  1  0.406000  0.104400  0.872300  1
  C  C234  1  0.594000  0.895600  0.127700  1
  C  C235  1  0.126000  0.131000  0.168100  1
  C  C236  1  0.874000  0.869000  0.831900  1
  C  C237  1  0.679000  0.520600  0.210700  1
  C  C238  1  0.321000  0.479400  0.789300  1
  C  C239  1  0.033000  0.308000  0.400000  1
  C  C240  1  0.967000  0.692000  0.600000  1
  C  C241  1  0.005000  0.466000  0.213400  1
  C  C242  1  0.995000  0.534000  0.786600  1
  C  C243  1  0.283000  0.301000  0.279000  1
  C  C244  1  0.717000  0.699000  0.721000  1
  C  C245  1  0.951000  0.983000  0.530000  1
  C  C246  1  0.049000  0.017000  0.470000  1
  C  C247  1  0.833000  0.116000  0.529000  1
  C  C248  1  0.167000  0.884000  0.471000  1
  C  C249  1  0.700000  0.947000  0.646000  1
  C  C250  1  0.300000  0.053000  0.354000  1
  C  C251  1  0.271800  0.824700  0.040600  1
  C  C252  1  0.728200  0.175300  0.959400  1
  C  C253  1  0.303500  0.767000  0.033300  1
  C  C254  1  0.696500  0.233000  0.966700  1
  C  C255  1  0.242300  0.719000  0.039400  1
  C  C256  1  0.757700  0.281000  0.960600  1
  C  C257  1  0.149500  0.728700  0.052900  1
  C  C258  1  0.850500  0.271300  0.947100  1
  C  C259  1  0.117700  0.786400  0.060300  1
  C  C260  1  0.882300  0.213600  0.939700  1
  C  C261  1  0.178900  0.834400  0.054100  1
  C  C262  1  0.821100  0.165600  0.945900  1
  C  C263  1  0.150500  0.894700  0.062300  1
  C  C264  1  0.849500  0.105300  0.937700  1
  C  C265  1  0.217700  0.943100  0.050500  1
  C  C266  1  0.782300  0.056900  0.949500  1
  C  C267  1  0.197000  0.004100  0.053900  1
  C  C268  1  0.803000  0.995900  0.946100  1
  C  C269  1  0.265700  0.048500  0.041400  1
  C  C270  1  0.734300  0.951500  0.958600  1
  C  C271  1  0.355200  0.032000  0.025400  1
  C  C272  1  0.644800  0.968000  0.974600  1
  C  C273  1  0.375900  0.971100  0.021900  1
  C  C274  1  0.624100  0.028900  0.978100  1
  C  C275  1  0.307100  0.926600  0.034500  1
  C  C276  1  0.692900  0.073400  0.965500  1
  C  C277  1  0.054700  0.905400  0.085400  1
  C  C278  1  0.945300  0.094600  0.914600  1
  C  C279  1  0.981900  0.919500  0.052600  1
  C  C280  1  0.018100  0.080500  0.947400  1
  C  C281  1  0.893100  0.928600  0.077100  1
  C  C282  1  0.106900  0.071400  0.922900  1
  C  C283  1  0.877300  0.920400  0.135500  1
  C  C284  1  0.122700  0.079600  0.864500  1
  C  C285  1  0.947000  0.905300  0.169400  1
  C  C286  1  0.053000  0.094700  0.830600  1
  C  C287  1  0.038400  0.899700  0.142700  1
  C  C288  1  0.961600  0.100300  0.857300  1
  C  C289  1  0.577800  0.041600  0.189700  1
  C  C290  1  0.422200  0.958400  0.810300  1
  C  C291  1  0.488000  0.043000  0.181700  1
  C  C292  1  0.512000  0.957000  0.818300  1
  C  C293  1  0.458900  0.087400  0.132900  1
  C  C294  1  0.541100  0.912600  0.867100  1
  C  C295  1  0.526500  0.129700  0.094300  1
  C  C296  1  0.473500  0.870300  0.905700  1
  C  C297  1  0.614300  0.129300  0.103800  1
  C  C298  1  0.385700  0.870700  0.896200  1
  C  C299  1  0.645600  0.083200  0.152900  1
  C  C300  1  0.354400  0.916800  0.847100  1
  C  C301  1  0.734100  0.080800  0.165600  1
  C  C302  1  0.265900  0.919200  0.834400  1
  C  C303  1  0.757200  0.030900  0.215800  1
  C  C304  1  0.242800  0.969100  0.784200  1
  C  C305  1  0.846200  0.023000  0.234000  1
  C  C306  1  0.153800  0.977000  0.766000  1
  C  C307  1  0.862900  0.972500  0.283400  1
  C  C308  1  0.137100  0.027500  0.716600  1
  C  C309  1  0.790400  0.930500  0.314200  1
  C  C310  1  0.209600  0.069500  0.685800  1
  C  C311  1  0.703300  0.938400  0.298200  1
  C  C312  1  0.296700  0.061600  0.701800  1
  C  C313  1  0.689500  0.987700  0.250100  1
  C  C314  1  0.310500  0.012300  0.749900  1
  C  C315  1  0.805000  0.125900  0.132100  1
  C  C316  1  0.195000  0.874100  0.867900  1
  C  C317  1  0.791700  0.191100  0.127600  1
  C  C318  1  0.208300  0.808900  0.872400  1
  C  C319  1  0.859200  0.233500  0.096500  1
  C  C320  1  0.140800  0.766500  0.903500  1
  C  C321  1  0.941500  0.215200  0.072700  1
  C  C322  1  0.058500  0.784800  0.927300  1
  C  C323  1  0.953400  0.151000  0.075500  1
  C  C324  1  0.046600  0.849000  0.924500  1
  C  C325  1  0.885600  0.107100  0.106100  1
  C  C326  1  0.114400  0.892900  0.893900  1
  C  C327  1  0.898000  0.666800  0.357300  1
  C  C328  1  0.102000  0.333200  0.642700  1
  C  C329  1  0.924200  0.725400  0.321600  1
  C  C330  1  0.075800  0.274600  0.678400  1
  C  C331  1  0.939000  0.772400  0.348400  1
  C  C332  1  0.061000  0.227600  0.651600  1
  C  C333  1  0.925400  0.760400  0.409800  1
  C  C334  1  0.074600  0.239600  0.590200  1
  C  C335  1  0.903300  0.700200  0.444100  1
  C  C336  1  0.096700  0.299800  0.555900  1
  C  C337  1  0.888200  0.651700  0.420100  1
  C  C338  1  0.111800  0.348300  0.579900  1
  C  C339  1  0.859700  0.590800  0.452100  1
  C  C340  1  0.140300  0.409200  0.547900  1
  C  C341  1  0.838600  0.546500  0.424600  1
  C  C342  1  0.161400  0.453500  0.575400  1
  C  C343  1  0.806100  0.484600  0.455300  1
  C  C344  1  0.193900  0.515400  0.544700  1
  C  C345  1  0.784100  0.446500  0.426100  1
  C  C346  1  0.215900  0.553500  0.573900  1
  C  C347  1  0.793700  0.465900  0.361600  1
  C  C348  1  0.206300  0.534100  0.638400  1
  C  C349  1  0.827100  0.527000  0.332000  1
  C  C350  1  0.172900  0.473000  0.668000  1
  C  C351  1  0.847700  0.565000  0.363000  1
  C  C352  1  0.152300  0.435000  0.637000  1
  C  C353  1  0.855800  0.570600  0.516800  1
  C  C354  1  0.144200  0.429400  0.483200  1
  C  C355  1  0.934300  0.551600  0.541500  1
  C  C356  1  0.065700  0.448400  0.458500  1
  C  C357  1  0.928300  0.531100  0.603900  1
  C  C358  1  0.071700  0.468900  0.396100  1
  C  C359  1  0.849500  0.525900  0.638300  1
  C  C360  1  0.150500  0.474100  0.361700  1
  C  C361  1  0.769000  0.551700  0.609700  1
  C  C362  1  0.231000  0.448300  0.390300  1
  C  C363  1  0.772500  0.569000  0.551000  1
  C  C364  1  0.227500  0.431000  0.449000  1
  C  C365  1  0.451000  0.444100  0.280000  1
  C  C366  1  0.549000  0.555900  0.720000  1
  C  C367  1  0.485500  0.445400  0.330400  1
  C  C368  1  0.514500  0.554600  0.669600  1
  C  C369  1  0.556700  0.404000  0.348500  1
  C  C370  1  0.443300  0.596000  0.651500  1
  C  C371  1  0.592800  0.361800  0.315600  1
  C  C372  1  0.407200  0.638200  0.684400  1
  C  C373  1  0.559800  0.360600  0.266400  1
  C  C374  1  0.440200  0.639400  0.733600  1
  C  C375  1  0.488300  0.404300  0.245600  1
  C  C376  1  0.511700  0.595700  0.754400  1
  C  C377  1  0.452000  0.410700  0.193900  1
  C  C378  1  0.548000  0.589300  0.806100  1
  C  C379  1  0.381600  0.453800  0.177400  1
  C  C380  1  0.618400  0.546200  0.822600  1
  C  C381  1  0.344300  0.468000  0.123700  1
  C  C382  1  0.655700  0.532000  0.876300  1
  C  C383  1  0.276600  0.513100  0.108700  1
  C  C384  1  0.723400  0.486900  0.891300  1
  C  C385  1  0.240500  0.547000  0.151900  1
  C  C386  1  0.759500  0.453000  0.848100  1
  C  C387  1  0.275400  0.534400  0.203800  1
  C  C388  1  0.724600  0.465600  0.796200  1
  C  C389  1  0.346400  0.490300  0.214900  1
  C  C390  1  0.653600  0.509700  0.785100  1
  C  C391  1  0.489700  0.372000  0.155600  1
  C  C392  1  0.510300  0.628000  0.844400  1
  C  C393  1  0.580900  0.378400  0.132000  1
  C  C394  1  0.419100  0.621600  0.868000  1
  C  C395  1  0.616500  0.342000  0.096100  1
  C  C396  1  0.383500  0.658000  0.903900  1
  C  C397  1  0.561200  0.299800  0.084200  1
  C  C398  1  0.438800  0.700200  0.915800  1
  C  C399  1  0.470900  0.293400  0.107000  1
  C  C400  1  0.529100  0.706600  0.893000  1
  C  C401  1  0.434000  0.329800  0.142500  1
  C  C402  1  0.566000  0.670200  0.857500  1
  C  C403  1  0.145300  0.481000  0.930800  1
  C  C404  1  0.854700  0.519000  0.069200  1
  C  C405  1  0.310000  0.404900  0.959800  1
  C  C406  1  0.690000  0.595100  0.040200  1
  C  C407  1  0.362200  0.350900  0.958500  1
  C  C408  1  0.637800  0.649100  0.041500  1
  C  C409  1  0.455200  0.351600  0.957500  1
  C  C410  1  0.544800  0.648400  0.042500  1
  C  C411  1  0.500600  0.406900  0.956400  1
  C  C412  1  0.499400  0.593100  0.043600  1
  C  C413  1  0.446700  0.462400  0.957500  1
  C  C414  1  0.553300  0.537600  0.042500  1
  C  C415  1  0.353500  0.460800  0.959400  1
  C  C416  1  0.646500  0.539200  0.040600  1
  C  C417  1  0.142800  0.380800  0.041500  1
  C  C418  1  0.857200  0.619200  0.958500  1
  C  C419  1  0.198400  0.345300  0.080000  1
  C  C420  1  0.801600  0.654700  0.920000  1
  C  C421  1  0.162000  0.320200  0.140500  1
  C  C422  1  0.838000  0.679800  0.859500  1
  C  C423  1  0.067000  0.335300  0.155200  1
  C  C424  1  0.933000  0.664700  0.844800  1
  C  C425  1  0.014000  0.372300  0.112600  1
  C  C426  1  0.986000  0.627700  0.887400  1
  C  C427  1  0.052400  0.394600  0.055200  1
  C  C428  1  0.947600  0.605400  0.944800  1
  C  C429  1  0.156000  0.347900  0.932800  1
  C  C430  1  0.844000  0.652100  0.067200  1
  C  C431  1  0.126400  0.369200  0.877300  1
  C  C432  1  0.873600  0.630800  0.122700  1
  C  C433  1  0.103200  0.323400  0.851700  1
  C  C434  1  0.896800  0.676600  0.148300  1
  C  C435  1  0.112800  0.259300  0.879300  1
  C  C436  1  0.887200  0.740700  0.120700  1
  C  C437  1  0.140600  0.238200  0.936000  1
  C  C438  1  0.859400  0.761800  0.064000  1
  C  C439  1  0.161000  0.284400  0.961400  1
  C  C440  1  0.839000  0.715600  0.038600  1
  C  C441  1  0.116400  0.744000  0.217900  1
  C  C442  1  0.883600  0.256000  0.782100  1
  C  C443  1  0.182500  0.719100  0.328100  1
  C  C444  1  0.817500  0.280900  0.671900  1
  C  C445  1  0.143500  0.659600  0.349200  1
  C  C446  1  0.856500  0.340400  0.650800  1
  C  C447  1  0.120800  0.633200  0.409300  1
  C  C448  1  0.879200  0.366800  0.590700  1
  C  C449  1  0.135200  0.666100  0.447600  1
  C  C450  1  0.864800  0.333900  0.552400  1
  C  C451  1  0.178300  0.725300  0.427000  1
  C  C452  1  0.821700  0.274700  0.573000  1
  C  C453  1  0.203600  0.751600  0.368000  1
  C  C454  1  0.796400  0.248400  0.632000  1
  C  C455  1  0.305300  0.708500  0.234600  1
  C  C456  1  0.694700  0.291500  0.765400  1
  C  C457  1  0.312000  0.698700  0.180600  1
  C  C458  1  0.688000  0.301300  0.819400  1
  C  C459  1  0.386500  0.665700  0.162000  1
  C  C460  1  0.613500  0.334300  0.838000  1
  C  C461  1  0.454300  0.642500  0.197600  1
  C  C462  1  0.545700  0.357500  0.802400  1
  C  C463  1  0.447600  0.652300  0.251700  1
  C  C464  1  0.552400  0.347700  0.748300  1
  C  C465  1  0.373100  0.685300  0.270200  1
  C  C466  1  0.626900  0.314700  0.729800  1
  C  C467  1  0.240300  0.833800  0.234800  1
  C  C468  1  0.759700  0.166200  0.765200  1
  C  C469  1  0.313600  0.858500  0.193800  1
  C  C470  1  0.686400  0.141500  0.806200  1
  C  C471  1  0.326500  0.923600  0.174100  1
  C  C472  1  0.673500  0.076400  0.825900  1
  C  C473  1  0.266200  0.963900  0.195400  1
  C  C474  1  0.733800  0.036100  0.804600  1
  C  C475  1  0.192800  0.939200  0.236400  1
  C  C476  1  0.807200  0.060800  0.763600  1
  C  C477  1  0.179900  0.874100  0.256100  1
  C  C478  1  0.820100  0.125900  0.743900  1
  C  C479  1  0.312600  0.250700  0.647100  1
  C  C480  1  0.687400  0.749300  0.352900  1
  C  C481  1  0.459600  0.339500  0.583700  1
  C  C482  1  0.540400  0.660500  0.416300  1
  C  C483  1  0.553400  0.351900  0.564000  1
  C  C484  1  0.446600  0.648100  0.436000  1
  C  C485  1  0.589000  0.409200  0.556700  1
  C  C486  1  0.411000  0.590800  0.443300  1
  C  C487  1  0.530700  0.460900  0.565100  1
  C  C488  1  0.469300  0.539100  0.434900  1
  C  C489  1  0.439000  0.448800  0.585400  1
  C  C490  1  0.561000  0.551200  0.414600  1
  C  C491  1  0.400000  0.389000  0.594300  1
  C  C492  1  0.600000  0.611000  0.405700  1
  C  C493  1  0.374600  0.261600  0.528000  1
  C  C494  1  0.625400  0.738400  0.472000  1
  C  C495  1  0.299700  0.224100  0.531700  1
  C  C496  1  0.700300  0.775900  0.468300  1
  C  C497  1  0.264000  0.224100  0.477900  1
  C  C498  1  0.736000  0.775900  0.522100  1
  C  C499  1  0.309000  0.256300  0.426200  1
  C  C500  1  0.691000  0.743700  0.573800  1
  C  C501  1  0.386700  0.289600  0.422700  1
  C  C502  1  0.613300  0.710400  0.577300  1
  C  C503  1  0.421000  0.295300  0.474800  1
  C  C504  1  0.579000  0.704700  0.525200  1
  C  C505  1  0.497900  0.203800  0.619400  1
  C  C506  1  0.502100  0.796200  0.380600  1
  C  C507  1  0.564700  0.191000  0.579500  1
  C  C508  1  0.435300  0.809000  0.420500  1
  C  C509  1  0.634000  0.144600  0.601200  1
  C  C510  1  0.366000  0.855400  0.398800  1
  C  C511  1  0.623000  0.114400  0.661500  1
  C  C512  1  0.377000  0.885600  0.338500  1
  C  C513  1  0.557700  0.127800  0.696900  1
  C  C514  1  0.442300  0.872200  0.303100  1
  C  C515  1  0.491700  0.174600  0.678900  1
  C  C516  1  0.508300  0.825400  0.321100  1
  C  C517  1  0.658000  0.153000  0.447400  1
  C  C518  1  0.342000  0.847000  0.552600  1
  C  C519  1  0.787700  0.126400  0.356600  1
  C  C520  1  0.212300  0.873600  0.643400  1
  C  C521  1  0.850800  0.076600  0.363800  1
  C  C522  1  0.149200  0.923400  0.636200  1
  C  C523  1  0.941400  0.088100  0.340600  1
  C  C524  1  0.058600  0.911900  0.659400  1
  C  C525  1  0.969000  0.149200  0.310100  1
  C  C526  1  0.031000  0.850800  0.689900  1
  C  C527  1  0.906000  0.199000  0.303000  1
  C  C528  1  0.094000  0.801000  0.697000  1
  C  C529  1  0.815300  0.187500  0.326200  1
  C  C530  1  0.184700  0.812500  0.673800  1
  C  C531  1  0.599000  0.154000  0.334300  1
  C  C532  1  0.401000  0.846000  0.665700  1
  C  C533  1  0.619400  0.156400  0.276500  1
  C  C534  1  0.380600  0.843600  0.723500  1
  C  C535  1  0.556000  0.181400  0.238000  1
  C  C536  1  0.444000  0.818600  0.762000  1
  C  C537  1  0.472300  0.204000  0.257300  1
  C  C538  1  0.527700  0.796000  0.742700  1
  C  C539  1  0.451600  0.201600  0.315100  1
  C  C540  1  0.548400  0.798400  0.684900  1
  C  C541  1  0.515000  0.176600  0.353500  1
  C  C542  1  0.485000  0.823400  0.646500  1
  C  C543  1  0.643500  0.036000  0.420200  1
  C  C544  1  0.356500  0.964000  0.579800  1
  C  C545  1  0.580100  0.009800  0.396600  1
  C  C546  1  0.419900  0.990200  0.603400  1
  C  C547  1  0.553100  0.947500  0.422400  1
  C  C548  1  0.446900  0.052500  0.577600  1
  C  C549  1  0.589500  0.911400  0.471600  1
  C  C550  1  0.410500  0.088600  0.528400  1
  C  C551  1  0.653000  0.937700  0.495100  1
  C  C552  1  0.347000  0.062300  0.504900  1
  C  C553  1  0.680000  0.000000  0.469400  1
  C  C554  1  0.320000  0.000000  0.530600  1
  C  C555  1  0.823000  0.376000  0.228000  1
  C  C556  1  0.177000  0.624000  0.772000  1
  O  O557  1  0.449400  0.167300  0.865400  1
  O  O558  1  0.550600  0.832700  0.134600  1
  O  O559  1  0.211800  0.146600  0.183800  1
  O  O560  1  0.788200  0.853400  0.816200  1
  O  O561  1  0.763100  0.485600  0.214900  1
  O  O562  1  0.236900  0.514400  0.785100  1
  O  O563  1  0.982000  0.352300  0.346000  1
  O  O564  1  0.018000  0.647700  0.654000  1
  O  O565  1  0.068800  0.596800  0.239100  1
  O  O566  1  0.931200  0.403200  0.760900  1
  O  O567  1  0.007300  0.473900  0.264700  1
  O  O568  1  0.992700  0.526100  0.735300  1
  O  O569  1  0.222000  0.345100  0.277700  1
  O  O570  1  0.778000  0.654900  0.722300  1
  O  O571  1  0.876000  0.943000  0.533200  1
  O  O572  1  0.124000  0.057000  0.466800  1
  O  O573  1  0.889000  0.157600  0.480000  1
  O  O574  1  0.111000  0.842400  0.520000  1
  O  O575  1  0.381500  0.248600  0.769900  1
  O  O576  1  0.618500  0.751400  0.230100  1
  O  O577  1  0.209000  0.193500  0.276400  1
  O  O578  1  0.791000  0.806500  0.723600  1
  O  O579  1  0.794000  0.330500  0.210300  1
  O  O580  1  0.206000  0.669500  0.789700  1
  O  O581  1  0.771000  0.904000  0.627000  1
  O  O582  1  0.229000  0.096000  0.373000  1
  O  O583  1  0.162900  0.610000  0.971900  1
  O  O584  1  0.837100  0.390000  0.028100  1
  O  O585  1  0.049100  0.559900  0.070000  1
  O  O586  1  0.950900  0.440100  0.930000  1
  O  O587  1  0.266600  0.662300  0.034200  1
  O  O588  1  0.733400  0.337700  0.965800  1
  O  O589  1  0.095000  0.682500  0.054100  1
  O  O590  1  0.905000  0.317500  0.945900  1
  O  O591  1  0.416300  0.075900  0.014300  1
  O  O592  1  0.583700  0.924100  0.985700  1
  O  O593  1  0.252600  0.108600  0.044100  1
  O  O594  1  0.747400  0.891400  0.955900  1
  O  O595  1  0.333700  0.869400  0.030800  1
  O  O596  1  0.666300  0.130600  0.969200  1
  O  O597  1  0.301300  0.212400  0.067500  1
  O  O598  1  0.698700  0.787600  0.932500  1
  O  O599  1  0.381600  0.203300  0.962100  1
  O  O600  1  0.618400  0.796700  0.037900  1
  O  O601  1  0.378100  0.094600  0.120200  1
  O  O602  1  0.621900  0.905400  0.879800  1
  O  O603  1  0.491000  0.170900  0.048300  1
  O  O604  1  0.509000  0.829100  0.951700  1
  O  O605  1  0.943000  0.962100  0.301100  1
  O  O606  1  0.057000  0.037900  0.698900  1
  O  O607  1  0.816200  0.887800  0.358500  1
  O  O608  1  0.183800  0.112200  0.641500  1
  O  O609  1  0.602800  0.995300  0.236600  1
  O  O610  1  0.397200  0.004700  0.763400  1
  O  O611  1  0.922500  0.931300  0.427200  1
  O  O612  1  0.077500  0.068700  0.572800  1
  O  O613  1  0.074800  0.900000  0.364700  1
  O  O614  1  0.925200  0.100000  0.635300  1
  O  O615  1  0.964600  0.830800  0.319600  1
  O  O616  1  0.035400  0.169200  0.680400  1
  O  O617  1  0.935000  0.808200  0.430100  1
  O  O618  1  0.065000  0.191800  0.569900  1
  O  O619  1  0.770000  0.423300  0.340200  1
  O  O620  1  0.230000  0.576700  0.659800  1
  O  O621  1  0.749600  0.388600  0.451400  1
  O  O622  1  0.250400  0.611400  0.548600  1
  O  O623  1  0.878200  0.623500  0.332200  1
  O  O624  1  0.121800  0.376500  0.667800  1
  O  O625  1  0.812000  0.296900  0.390500  1
  O  O626  1  0.188000  0.703100  0.609500  1
  O  O627  1  0.655500  0.283400  0.463500  1
  O  O628  1  0.344500  0.716600  0.536500  1
  O  O629  1  0.596600  0.399500  0.394500  1
  O  O630  1  0.403400  0.600500  0.605500  1
  O  O631  1  0.661400  0.323200  0.337900  1
  O  O632  1  0.338600  0.676800  0.662100  1
  O  O633  1  0.177200  0.589000  0.134100  1
  O  O634  1  0.822800  0.411000  0.865900  1
  O  O635  1  0.243300  0.531900  0.060000  1
  O  O636  1  0.756700  0.468100  0.940000  1
  O  O637  1  0.381500  0.484700  0.265000  1
  O  O638  1  0.618500  0.515300  0.735000  1
  O  O639  1  0.791000  0.382000  0.164100  1
  O  O640  1  0.209000  0.618000  0.835900  1
