# generated using pymatgen
data_P4H157W4C174NO41
_symmetry_space_group_name_H-M   'P 1'
_cell_length_a   14.75330000
_cell_length_b   21.84390000
_cell_length_c   24.53550000
_cell_angle_alpha   73.33500000
_cell_angle_beta   81.16400000
_cell_angle_gamma   86.66800000
_symmetry_Int_Tables_number   1
_chemical_formula_structural   P4H157W4C174NO41
_chemical_formula_sum   'P8 H314 W8 C348 N2 O82'
_cell_volume   7484.20733930
_cell_formula_units_Z   2
loop_
 _symmetry_equiv_pos_site_id
 _symmetry_equiv_pos_as_xyz
  1  'x, y, z'
loop_
 _atom_site_type_symbol
 _atom_site_label
 _atom_site_symmetry_multiplicity
 _atom_site_fract_x
 _atom_site_fract_y
 _atom_site_fract_z
 _atom_site_occupancy
  P  P1  1  0.187900  0.907350  0.463200  1
  P  P2  1  0.812100  0.092650  0.536800  1
  P  P3  1  0.585900  0.246020  0.913320  1
  P  P4  1  0.414100  0.753980  0.086680  1
  P  P5  1  0.760300  0.766700  0.247900  1
  P  P6  1  0.239700  0.233300  0.752100  1
  P  P7  1  0.793000  0.741100  0.244200  1
  P  P8  1  0.207000  0.258900  0.755800  1
  H  H9  1  0.673800  0.203200  0.692000  1
  H  H10  1  0.326200  0.796800  0.308000  1
  H  H11  1  0.696200  0.181800  0.756600  1
  H  H12  1  0.303800  0.818200  0.243400  1
  H  H13  1  0.740600  0.245100  0.711900  1
  H  H14  1  0.259400  0.754900  0.288100  1
  H  H15  1  0.371200  0.003500  0.259100  1
  H  H16  1  0.628800  0.996500  0.740900  1
  H  H17  1  0.304400  0.943600  0.283200  1
  H  H18  1  0.695600  0.056400  0.716800  1
  H  H19  1  0.339700  0.976000  0.326800  1
  H  H20  1  0.660300  0.024000  0.673200  1
  H  H21  1  0.528500  0.033300  0.142400  1
  H  H22  1  0.471500  0.966700  0.857600  1
  H  H23  1  0.407900  0.171600  0.254400  1
  H  H24  1  0.592100  0.828400  0.745600  1
  H  H25  1  0.627500  0.059000  0.395300  1
  H  H26  1  0.372500  0.941000  0.604700  1
  H  H27  1  0.740600  0.946100  0.259300  1
  H  H28  1  0.259400  0.053900  0.740700  1
  H  H29  1  0.618400  0.180600  0.333900  1
  H  H30  1  0.381600  0.819400  0.666100  1
  H  H31  1  0.557700  0.236900  0.399900  1
  H  H32  1  0.442300  0.763100  0.600100  1
  H  H33  1  0.406600  0.220700  0.445700  1
  H  H34  1  0.593400  0.779300  0.554300  1
  H  H35  1  0.311200  0.153000  0.423100  1
  H  H36  1  0.688800  0.847000  0.576900  1
  H  H37  1  0.372800  0.091800  0.359600  1
  H  H38  1  0.627200  0.908200  0.640400  1
  H  H39  1  0.632000  0.744500  0.469000  1
  H  H40  1  0.368000  0.255500  0.531000  1
  H  H41  1  0.951000  0.711300  0.419500  1
  H  H42  1  0.049000  0.288700  0.580500  1
  H  H43  1  0.869400  0.479700  0.433600  1
  H  H44  1  0.130600  0.520300  0.566400  1
  H  H45  1  0.561600  0.540100  0.492800  1
  H  H46  1  0.438400  0.459900  0.507200  1
  H  H47  1  0.001100  0.569200  0.485900  1
  H  H48  1  0.998900  0.430800  0.514100  1
  H  H49  1  0.156800  0.558100  0.444600  1
  H  H50  1  0.843200  0.441900  0.555400  1
  H  H51  1  0.191800  0.572400  0.345600  1
  H  H52  1  0.808200  0.427600  0.654400  1
  H  H53  1  0.078200  0.606100  0.287000  1
  H  H54  1  0.921800  0.393900  0.713000  1
  H  H55  1  0.923300  0.615100  0.330000  1
  H  H56  1  0.076700  0.384900  0.670000  1
  H  H57  1  0.562500  0.482600  0.296900  1
  H  H58  1  0.437500  0.517400  0.703100  1
  H  H59  1  0.344500  0.337600  0.426700  1
  H  H60  1  0.655500  0.662400  0.573300  1
  H  H61  1  0.109900  0.443900  0.290500  1
  H  H62  1  0.890100  0.556100  0.709500  1
  H  H63  1  0.352000  0.584100  0.183000  1
  H  H64  1  0.648000  0.415900  0.817000  1
  H  H65  1  0.109400  0.434100  0.394500  1
  H  H66  1  0.890600  0.565900  0.605500  1
  H  H67  1  0.994700  0.358600  0.448800  1
  H  H68  1  0.005300  0.641400  0.551200  1
  H  H69  1  0.020700  0.247000  0.455100  1
  H  H70  1  0.979300  0.753000  0.544900  1
  H  H71  1  0.160000  0.214900  0.413500  1
  H  H72  1  0.840000  0.785100  0.586500  1
  H  H73  1  0.271600  0.290000  0.357100  1
  H  H74  1  0.728400  0.710000  0.642900  1
  H  H75  1  0.072200  0.765500  0.222100  1
  H  H76  1  0.927800  0.234500  0.777900  1
  H  H77  1  0.114200  0.804700  0.018400  1
  H  H78  1  0.885800  0.195300  0.981600  1
  H  H79  1  0.195700  0.034300  0.005000  1
  H  H80  1  0.804300  0.965700  0.995000  1
  H  H81  1  0.163600  0.965400  0.211800  1
  H  H82  1  0.836400  0.034600  0.788200  1
  H  H83  1  0.015100  0.947100  0.983500  1
  H  H84  1  0.984900  0.052900  0.016500  1
  H  H85  1  0.022200  0.977500  0.885200  1
  H  H86  1  0.977800  0.022500  0.114800  1
  H  H87  1  0.165000  0.974900  0.827800  1
  H  H88  1  0.835000  0.025100  0.172200  1
  H  H89  1  0.292100  0.956300  0.872200  1
  H  H90  1  0.707900  0.043700  0.127800  1
  H  H91  1  0.285300  0.935800  0.971800  1
  H  H92  1  0.714700  0.064200  0.028200  1
  H  H93  1  0.078400  0.984400  0.428800  1
  H  H94  1  0.921600  0.015600  0.571200  1
  H  H95  1  0.173300  0.997600  0.386200  1
  H  H96  1  0.826700  0.002400  0.613800  1
  H  H97  1  0.160800  0.017100  0.445100  1
  H  H98  1  0.839200  0.982900  0.554900  1
  H  H99  1  0.131100  0.911900  0.355400  1
  H  H100  1  0.868900  0.088100  0.644600  1
  H  H101  1  0.093200  0.834300  0.312400  1
  H  H102  1  0.906800  0.165700  0.687600  1
  H  H103  1  0.106500  0.725600  0.360300  1
  H  H104  1  0.893500  0.274400  0.639700  1
  H  H105  1  0.152000  0.693100  0.453000  1
  H  H106  1  0.848000  0.306900  0.547000  1
  H  H107  1  0.177600  0.772500  0.499100  1
  H  H108  1  0.822400  0.227500  0.500900  1
  H  H109  1  0.313600  0.004500  0.456400  1
  H  H110  1  0.686400  0.995500  0.543600  1
  H  H111  1  0.470600  0.006000  0.458500  1
  H  H112  1  0.529400  0.994000  0.541500  1
  H  H113  1  0.564300  0.913900  0.457100  1
  H  H114  1  0.435700  0.086100  0.542900  1
  H  H115  1  0.495300  0.819100  0.459800  1
  H  H116  1  0.504700  0.180900  0.540200  1
  H  H117  1  0.335700  0.817000  0.456300  1
  H  H118  1  0.664300  0.183000  0.543700  1
  H  H119  1  0.009700  0.911500  0.522900  1
  H  H120  1  0.990300  0.088500  0.477100  1
  H  H121  1  0.945200  0.882500  0.616800  1
  H  H122  1  0.054800  0.117500  0.383200  1
  H  H123  1  0.032800  0.840000  0.691700  1
  H  H124  1  0.967200  0.160000  0.308300  1
  H  H125  1  0.194000  0.820600  0.667600  1
  H  H126  1  0.806000  0.179400  0.332400  1
  H  H127  1  0.260000  0.851900  0.569100  1
  H  H128  1  0.740000  0.148100  0.430900  1
  H  H129  1  0.665300  0.259300  0.821200  1
  H  H130  1  0.334700  0.740700  0.178800  1
  H  H131  1  0.731600  0.228400  0.868100  1
  H  H132  1  0.268400  0.771600  0.131900  1
  H  H133  1  0.708200  0.303300  0.852400  1
  H  H134  1  0.291800  0.696700  0.147600  1
  H  H135  1  0.524900  0.306800  0.807200  1
  H  H136  1  0.475100  0.693200  0.192800  1
  H  H137  1  0.413200  0.384300  0.776300  1
  H  H138  1  0.586800  0.615700  0.223700  1
  H  H139  1  0.322100  0.429100  0.842200  1
  H  H140  1  0.677900  0.570900  0.157800  1
  H  H141  1  0.342500  0.396500  0.939100  1
  H  H142  1  0.657500  0.603500  0.060900  1
  H  H143  1  0.454200  0.319000  0.970100  1
  H  H144  1  0.545800  0.681000  0.029900  1
  H  H145  1  0.662000  0.125300  0.901700  1
  H  H146  1  0.338000  0.874700  0.098300  1
  H  H147  1  0.598800  0.025300  0.908100  1
  H  H148  1  0.401200  0.974700  0.091900  1
  H  H149  1  0.443000  0.005900  0.948100  1
  H  H150  1  0.557000  0.994100  0.051900  1
  H  H151  1  0.346900  0.090800  0.960600  1
  H  H152  1  0.653100  0.909200  0.039400  1
  H  H153  1  0.404200  0.193100  0.945600  1
  H  H154  1  0.595800  0.806900  0.054400  1
  H  H155  1  0.524100  0.188000  0.034100  1
  H  H156  1  0.475900  0.812000  0.965900  1
  H  H157  1  0.567800  0.199100  0.119600  1
  H  H158  1  0.432200  0.800900  0.880400  1
  H  H159  1  0.698200  0.257600  0.115700  1
  H  H160  1  0.301800  0.742400  0.884300  1
  H  H161  1  0.780700  0.311600  0.025900  1
  H  H162  1  0.219300  0.688400  0.974100  1
  H  H163  1  0.730800  0.304100  0.941000  1
  H  H164  1  0.269200  0.695900  0.059000  1
  H  H165  1  0.900900  0.757700  0.281700  1
  H  H166  1  0.099100  0.242300  0.718300  1
  H  H167  1  0.820200  0.768200  0.329900  1
  H  H168  1  0.179800  0.231800  0.670100  1
  H  H169  1  0.857500  0.827500  0.277100  1
  H  H170  1  0.142500  0.172500  0.722900  1
  H  H171  1  0.773200  0.697600  0.147600  1
  H  H172  1  0.226800  0.302400  0.852400  1
  H  H173  1  0.808300  0.739500  0.047900  1
  H  H174  1  0.191700  0.260500  0.952100  1
  H  H175  1  0.879600  0.838600  0.009000  1
  H  H176  1  0.120400  0.161400  0.991000  1
  H  H177  1  0.915800  0.895800  0.069900  1
  H  H178  1  0.084200  0.104200  0.930100  1
  H  H179  1  0.880700  0.854000  0.169700  1
  H  H180  1  0.119300  0.146000  0.830300  1
  H  H181  1  0.835600  0.546900  0.264900  1
  H  H182  1  0.164400  0.453100  0.735100  1
  H  H183  1  0.705600  0.506800  0.330600  1
  H  H184  1  0.294400  0.493200  0.669400  1
  H  H185  1  0.595600  0.577100  0.359400  1
  H  H186  1  0.404400  0.422900  0.640600  1
  H  H187  1  0.615600  0.687600  0.322600  1
  H  H188  1  0.384400  0.312400  0.677400  1
  H  H189  1  0.663400  0.795100  0.344700  1
  H  H190  1  0.336600  0.204900  0.655300  1
  H  H191  1  0.527200  0.851500  0.361400  1
  H  H192  1  0.472800  0.148500  0.638600  1
  H  H193  1  0.443000  0.898000  0.286000  1
  H  H194  1  0.557000  0.102000  0.714000  1
  H  H195  1  0.495200  0.888100  0.193900  1
  H  H196  1  0.504800  0.111900  0.806100  1
  H  H197  1  0.631400  0.831700  0.177200  1
  H  H198  1  0.368600  0.168300  0.822800  1
  H  H199  1  0.799100  0.667800  0.929600  1
  H  H200  1  0.200900  0.332200  0.070400  1
  H  H201  1  0.730200  0.612600  0.967700  1
  H  H202  1  0.269800  0.387400  0.032300  1
  H  H203  1  0.920000  0.586000  0.931400  1
  H  H204  1  0.080000  0.414000  0.068600  1
  H  H205  1  0.850000  0.536000  0.976900  1
  H  H206  1  0.150000  0.464000  0.023100  1
  H  H207  1  0.922400  0.572400  0.039100  1
  H  H208  1  0.077600  0.427600  0.960900  1
  H  H209  1  0.835100  0.620400  0.033200  1
  H  H210  1  0.164900  0.379600  0.966800  1
  H  H211  1  0.974800  0.682100  0.010800  1
  H  H212  1  0.025200  0.317900  0.989200  1
  H  H213  1  0.924900  0.697200  0.954800  1
  H  H214  1  0.075100  0.302800  0.045200  1
  H  H215  1  0.011700  0.649500  0.960700  1
  H  H216  1  0.988300  0.350500  0.039300  1
  H  H217  1  0.703000  0.526900  0.871800  1
  H  H218  1  0.297000  0.473100  0.128200  1
  H  H219  1  0.786300  0.505900  0.908300  1
  H  H220  1  0.213700  0.494100  0.091700  1
  H  H221  1  0.610100  0.547100  0.955700  1
  H  H222  1  0.389900  0.452900  0.044300  1
  H  H223  1  0.693400  0.518100  0.991900  1
  H  H224  1  0.306600  0.481900  0.008100  1
  H  H225  1  0.602800  0.445900  0.927000  1
  H  H226  1  0.397200  0.554100  0.073000  1
  H  H227  1  0.696400  0.418900  0.952500  1
  H  H228  1  0.303600  0.581100  0.047500  1
  H  H229  1  0.561300  0.373100  0.028200  1
  H  H230  1  0.438700  0.626900  0.971800  1
  H  H231  1  0.525700  0.444000  0.026800  1
  H  H232  1  0.474300  0.556000  0.973200  1
  H  H233  1  0.618500  0.417200  0.052100  1
  H  H234  1  0.381500  0.582800  0.947900  1
  H  H235  1  0.692800  0.695300  0.862800  1
  H  H236  1  0.307200  0.304700  0.137200  1
  H  H237  1  0.628400  0.637200  0.900900  1
  H  H238  1  0.371600  0.362800  0.099100  1
  H  H239  1  0.644700  0.594600  0.814700  1
  H  H240  1  0.355300  0.405400  0.185300  1
  H  H241  1  0.694400  0.660700  0.777500  1
  H  H242  1  0.305600  0.339300  0.222500  1
  H  H243  1  0.500500  0.652400  0.840800  1
  H  H244  1  0.499500  0.347600  0.159200  1
  H  H245  1  0.551600  0.720100  0.820400  1
  H  H246  1  0.448400  0.279900  0.179600  1
  H  H247  1  0.467000  0.710900  0.746000  1
  H  H248  1  0.533000  0.289100  0.254000  1
  H  H249  1  0.523800  0.647100  0.742700  1
  H  H250  1  0.476200  0.352900  0.257300  1
  H  H251  1  0.574500  0.714400  0.722400  1
  H  H252  1  0.425500  0.285600  0.277600  1
  H  H253  1  0.821500  0.595900  0.805900  1
  H  H254  1  0.178500  0.404100  0.194100  1
  H  H255  1  0.893800  0.584400  0.850500  1
  H  H256  1  0.106200  0.415600  0.149500  1
  H  H257  1  0.879500  0.701100  0.840100  1
  H  H258  1  0.120500  0.298900  0.159900  1
  H  H259  1  0.829000  0.706300  0.785600  1
  H  H260  1  0.171000  0.293700  0.214400  1
  H  H261  1  0.547300  0.425400  0.613400  1
  H  H262  1  0.452700  0.574600  0.386600  1
  H  H263  1  0.648100  0.397700  0.598700  1
  H  H264  1  0.351900  0.602300  0.401300  1
  H  H265  1  0.610200  0.398900  0.663100  1
  H  H266  1  0.389800  0.601100  0.336900  1
  H  H267  1  0.289800  0.928400  0.869100  1
  H  H268  1  0.710200  0.071600  0.130900  1
  H  H269  1  0.282500  0.900600  0.969300  1
  H  H270  1  0.717500  0.099400  0.030700  1
  H  H271  1  0.943700  0.726800  0.267400  1
  H  H272  1  0.056300  0.273200  0.732600  1
  H  H273  1  0.873900  0.736400  0.321200  1
  H  H274  1  0.126100  0.263600  0.678800  1
  H  H275  1  0.906300  0.796800  0.268200  1
  H  H276  1  0.093700  0.203200  0.731800  1
  H  H277  1  0.874800  0.636200  0.214800  1
  H  H278  1  0.125200  0.363800  0.785200  1
  H  H279  1  0.855600  0.525500  0.248000  1
  H  H280  1  0.144400  0.474500  0.752000  1
  H  H281  1  0.732300  0.482600  0.318500  1
  H  H282  1  0.267700  0.517400  0.681500  1
  H  H283  1  0.647300  0.661300  0.322400  1
  H  H284  1  0.352700  0.338700  0.677600  1
  H  H285  1  0.735300  0.780200  0.345200  1
  H  H286  1  0.264700  0.219800  0.654800  1
  H  H287  1  0.607700  0.837400  0.375200  1
  H  H288  1  0.392300  0.162600  0.624800  1
  H  H289  1  0.497100  0.876900  0.314400  1
  H  H290  1  0.502900  0.123100  0.685600  1
  H  H291  1  0.514000  0.859200  0.223700  1
  H  H292  1  0.486000  0.140800  0.776300  1
  H  H293  1  0.641700  0.802100  0.193700  1
  H  H294  1  0.358300  0.197900  0.806300  1
  H  H295  1  0.868500  0.869400  0.179400  1
  H  H296  1  0.131500  0.130600  0.820600  1
  H  H297  1  0.922400  0.910000  0.081300  1
  H  H298  1  0.077600  0.090000  0.918700  1
  H  H299  1  0.888400  0.857900  0.016000  1
  H  H300  1  0.111600  0.142100  0.984000  1
  H  H301  1  0.800500  0.765300  0.048600  1
  H  H302  1  0.199500  0.234700  0.951400  1
  H  H303  1  0.746600  0.724600  0.146700  1
  H  H304  1  0.253400  0.275400  0.853300  1
  H  H305  1  0.966200  0.670500  0.940000  1
  H  H306  1  0.033800  0.329500  0.060000  1
  H  H307  1  0.016000  0.655300  0.996100  1
  H  H308  1  0.984000  0.344700  0.003900  1
  H  H309  1  0.929300  0.703000  0.990100  1
  H  H310  1  0.070700  0.297000  0.009900  1
  H  H311  1  0.575700  0.449800  0.043200  1
  H  H312  1  0.424300  0.550200  0.956800  1
  H  H313  1  0.611300  0.378900  0.044600  1
  H  H314  1  0.388700  0.621100  0.955400  1
  H  H315  1  0.518500  0.405600  0.019300  1
  H  H316  1  0.481500  0.594400  0.980700  1
  H  H317  1  0.576500  0.670700  0.728100  1
  H  H318  1  0.423500  0.329300  0.271900  1
  H  H319  1  0.519800  0.734500  0.731400  1
  H  H320  1  0.480200  0.265500  0.268600  1
  H  H321  1  0.469100  0.667200  0.751700  1
  H  H322  1  0.530900  0.332800  0.248300  1
  W  W323  1  0.275900  0.172360  0.097230  1
  W  W324  1  0.724100  0.827640  0.902770  1
  W  W325  1  0.850220  0.906468  0.440360  1
  W  W326  1  0.149780  0.093532  0.559640  1
  W  W327  1  0.638510  0.335382  0.468540  1
  W  W328  1  0.361490  0.664618  0.531460  1
  W  W329  1  0.051640  0.601340  0.131030  1
  W  W330  1  0.948360  0.398660  0.868970  1
  C  C331  1  0.708000  0.197200  0.228700  1
  C  C332  1  0.292000  0.802800  0.771300  1
  C  C333  1  0.685900  0.218400  0.724000  1
  C  C334  1  0.314100  0.781600  0.276000  1
  C  C335  1  0.320700  0.984000  0.288800  1
  C  C336  1  0.679300  0.016000  0.711200  1
  C  C337  1  0.720000  0.306900  0.301100  1
  C  C338  1  0.280000  0.693100  0.698900  1
  C  C339  1  0.539400  0.060100  0.214400  1
  C  C340  1  0.460600  0.939900  0.785600  1
  C  C341  1  0.504300  0.061200  0.164600  1
  C  C342  1  0.495700  0.938800  0.835400  1
  C  C343  1  0.433600  0.103700  0.148100  1
  C  C344  1  0.566400  0.896300  0.851900  1
  C  C345  1  0.395600  0.143400  0.183700  1
  C  C346  1  0.604400  0.856600  0.816300  1
  C  C347  1  0.431700  0.143000  0.232800  1
  C  C348  1  0.568300  0.857000  0.767200  1
  C  C349  1  0.504900  0.099300  0.250700  1
  C  C350  1  0.495100  0.900700  0.749300  1
  C  C351  1  0.540200  0.092100  0.301900  1
  C  C352  1  0.459800  0.907900  0.698100  1
  C  C353  1  0.612700  0.048500  0.316200  1
  C  C354  1  0.387300  0.951500  0.683800  1
  C  C355  1  0.649500  0.036200  0.368200  1
  C  C356  1  0.350500  0.963800  0.631800  1
  C  C357  1  0.718200  0.990200  0.378900  1
  C  C358  1  0.281800  0.009800  0.621100  1
  C  C359  1  0.751600  0.956100  0.338200  1
  C  C360  1  0.248400  0.043900  0.661800  1
  C  C361  1  0.717000  0.967900  0.287000  1
  C  C362  1  0.283000  0.032100  0.713000  1
  C  C363  1  0.646600  0.012600  0.277500  1
  C  C364  1  0.353400  0.987400  0.722500  1
  C  C365  1  0.501100  0.130600  0.341500  1
  C  C366  1  0.498900  0.869400  0.658500  1
  C  C367  1  0.556900  0.174100  0.352600  1
  C  C368  1  0.443100  0.825900  0.647400  1
  C  C369  1  0.520600  0.207600  0.391500  1
  C  C370  1  0.479400  0.792400  0.608500  1
  C  C371  1  0.430000  0.198400  0.418400  1
  C  C372  1  0.570000  0.801600  0.581600  1
  C  C373  1  0.373600  0.157200  0.406000  1
  C  C374  1  0.626400  0.842800  0.594000  1
  C  C375  1  0.409800  0.121400  0.367600  1
  C  C376  1  0.590200  0.878600  0.632400  1
  C  C377  1  0.730600  0.678300  0.456300  1
  C  C378  1  0.269400  0.321700  0.543700  1
  C  C379  1  0.696200  0.737500  0.460600  1
  C  C380  1  0.303800  0.262500  0.539400  1
  C  C381  1  0.756800  0.785500  0.452500  1
  C  C382  1  0.243200  0.214500  0.547500  1
  C  C383  1  0.853500  0.773800  0.439000  1
  C  C384  1  0.146500  0.226200  0.561000  1
  C  C385  1  0.887400  0.716900  0.431200  1
  C  C386  1  0.112600  0.283100  0.568800  1
  C  C387  1  0.825000  0.665900  0.441100  1
  C  C388  1  0.175000  0.334100  0.558900  1
  C  C389  1  0.852400  0.604800  0.434900  1
  C  C390  1  0.147600  0.395200  0.565100  1
  C  C391  1  0.787700  0.556700  0.447900  1
  C  C392  1  0.212300  0.443300  0.552100  1
  C  C393  1  0.808400  0.492100  0.445200  1
  C  C394  1  0.191600  0.507900  0.554800  1
  C  C395  1  0.739600  0.449400  0.459500  1
  C  C396  1  0.260400  0.550600  0.540500  1
  C  C397  1  0.646200  0.466700  0.477800  1
  C  C398  1  0.353800  0.533300  0.522200  1
  C  C399  1  0.622800  0.528200  0.481000  1
  C  C400  1  0.377200  0.471800  0.519000  1
  C  C401  1  0.694800  0.571600  0.465800  1
  C  C402  1  0.305200  0.428400  0.534200  1
  C  C403  1  0.949300  0.593500  0.411000  1
  C  C404  1  0.050700  0.406500  0.589000  1
  C  C405  1  0.016300  0.576400  0.445500  1
  C  C406  1  0.983700  0.423600  0.554500  1
  C  C407  1  0.109900  0.569200  0.420800  1
  C  C408  1  0.890100  0.430800  0.579200  1
  C  C409  1  0.130600  0.578800  0.362100  1
  C  C410  1  0.869400  0.421200  0.637900  1
  C  C411  1  0.063500  0.597500  0.327500  1
  C  C412  1  0.936500  0.402500  0.672500  1
  C  C413  1  0.970600  0.603700  0.353500  1
  C  C414  1  0.029400  0.396300  0.646500  1
  C  C415  1  0.428800  0.454000  0.313500  1
  C  C416  1  0.571200  0.546000  0.686500  1
  C  C417  1  0.519700  0.453100  0.322600  1
  C  C418  1  0.480300  0.546900  0.677400  1
  C  C419  1  0.546100  0.408000  0.370000  1
  C  C420  1  0.453900  0.592000  0.630000  1
  C  C421  1  0.475900  0.365400  0.410200  1
  C  C422  1  0.524100  0.634600  0.589800  1
  C  C423  1  0.387600  0.366600  0.400600  1
  C  C424  1  0.612400  0.633400  0.599400  1
  C  C425  1  0.359700  0.411700  0.351200  1
  C  C426  1  0.640300  0.588300  0.648800  1
  C  C427  1  0.271100  0.416000  0.337100  1
  C  C428  1  0.728900  0.584000  0.662900  1
  C  C429  1  0.247100  0.463500  0.288500  1
  C  C430  1  0.752900  0.536500  0.711500  1
  C  C431  1  0.158600  0.471700  0.270100  1
  C  C432  1  0.841400  0.528300  0.729900  1
  C  C433  1  0.146300  0.520200  0.222800  1
  C  C434  1  0.853700  0.479800  0.777200  1
  C  C435  1  0.217900  0.563600  0.188200  1
  C  C436  1  0.782100  0.436400  0.811800  1
  C  C437  1  0.303600  0.556600  0.204500  1
  C  C438  1  0.696400  0.443400  0.795500  1
  C  C439  1  0.317400  0.506900  0.254100  1
  C  C440  1  0.682600  0.493100  0.745900  1
  C  C441  1  0.200200  0.368700  0.372400  1
  C  C442  1  0.799800  0.631300  0.627600  1
  C  C443  1  0.119300  0.389800  0.398200  1
  C  C444  1  0.880700  0.610200  0.601800  1
  C  C445  1  0.050200  0.344600  0.430500  1
  C  C446  1  0.949800  0.655400  0.569500  1
  C  C447  1  0.066200  0.277600  0.434900  1
  C  C448  1  0.933800  0.722400  0.565100  1
  C  C449  1  0.148200  0.259100  0.409200  1
  C  C450  1  0.851800  0.740900  0.590800  1
  C  C451  1  0.216600  0.303800  0.376100  1
  C  C452  1  0.783400  0.696200  0.623900  1
  C  C453  1  0.107400  0.832600  0.145100  1
  C  C454  1  0.892600  0.167400  0.854900  1
  C  C455  1  0.081000  0.773100  0.181600  1
  C  C456  1  0.919000  0.226900  0.818400  1
  C  C457  1  0.067800  0.724900  0.157000  1
  C  C458  1  0.932200  0.275100  0.843000  1
  C  C459  1  0.084500  0.739200  0.094500  1
  C  C460  1  0.915500  0.260800  0.905500  1
  C  C461  1  0.106700  0.797400  0.058900  1
  C  C462  1  0.893300  0.202600  0.941100  1
  C  C463  1  0.119100  0.848800  0.083600  1
  C  C464  1  0.880900  0.151200  0.916400  1
  C  C465  1  0.142300  0.909600  0.051100  1
  C  C466  1  0.857700  0.090400  0.948900  1
  C  C467  1  0.160400  0.954900  0.077700  1
  C  C468  1  0.839600  0.045100  0.922300  1
  C  C469  1  0.190300  0.020100  0.045700  1
  C  C470  1  0.809700  0.979900  0.954300  1
  C  C471  1  0.210100  0.059800  0.077000  1
  C  C472  1  0.789900  0.940200  0.923000  1
  C  C473  1  0.200100  0.040700  0.140000  1
  C  C474  1  0.799900  0.959300  0.860000  1
  C  C475  1  0.170600  0.979000  0.171000  1
  C  C476  1  0.829400  0.021000  0.829000  1
  C  C477  1  0.151900  0.938200  0.139700  1
  C  C478  1  0.848100  0.061800  0.860300  1
  C  C479  1  0.149600  0.928300  0.986500  1
  C  C480  1  0.850400  0.071700  0.013500  1
  C  C481  1  0.072800  0.947000  0.960200  1
  C  C482  1  0.927200  0.053000  0.039800  1
  C  C483  1  0.076600  0.965400  0.902200  1
  C  C484  1  0.923400  0.034600  0.097800  1
  C  C485  1  0.160100  0.966200  0.868400  1
  C  C486  1  0.839900  0.033800  0.131600  1
  C  C487  1  0.234000  0.954200  0.895100  1
  C  C488  1  0.766000  0.045800  0.104900  1
  C  C489  1  0.231000  0.939000  0.955000  1
  C  C490  1  0.769000  0.061000  0.045000  1
  C  C491  1  0.145200  0.985600  0.426600  1
  C  C492  1  0.854800  0.014400  0.573400  1
  C  C493  1  0.157100  0.850100  0.429700  1
  C  C494  1  0.842900  0.149900  0.570300  1
  C  C495  1  0.133400  0.867900  0.375700  1
  C  C496  1  0.866600  0.132100  0.624300  1
  C  C497  1  0.112200  0.821300  0.349400  1
  C  C498  1  0.887800  0.178700  0.650600  1
  C  C499  1  0.119300  0.756800  0.378100  1
  C  C500  1  0.880700  0.243200  0.621900  1
  C  C501  1  0.145700  0.737300  0.433900  1
  C  C502  1  0.854300  0.262700  0.566100  1
  C  C503  1  0.162800  0.784600  0.461100  1
  C  C504  1  0.837200  0.215400  0.538900  1
  C  C505  1  0.308400  0.909800  0.459100  1
  C  C506  1  0.691600  0.090200  0.540900  1
  C  C507  1  0.349800  0.966800  0.457600  1
  C  C508  1  0.650200  0.033200  0.542400  1
  C  C509  1  0.443400  0.967800  0.458100  1
  C  C510  1  0.556600  0.032200  0.541900  1
  C  C511  1  0.499900  0.912500  0.457800  1
  C  C512  1  0.500100  0.087500  0.542200  1
  C  C513  1  0.458800  0.856700  0.458700  1
  C  C514  1  0.541200  0.143300  0.541300  1
  C  C515  1  0.362800  0.854800  0.457800  1
  C  C516  1  0.637200  0.145200  0.542200  1
  C  C517  1  0.139900  0.882600  0.537900  1
  C  C518  1  0.860100  0.117400  0.462100  1
  C  C519  1  0.046700  0.892900  0.552100  1
  C  C520  1  0.953300  0.107100  0.447900  1
  C  C521  1  0.009400  0.876300  0.607500  1
  C  C522  1  0.990600  0.123700  0.392500  1
  C  C523  1  0.061000  0.850200  0.652800  1
  C  C524  1  0.939000  0.149800  0.347200  1
  C  C525  1  0.157100  0.839400  0.638400  1
  C  C526  1  0.842900  0.160600  0.361600  1
  C  C527  1  0.196000  0.857200  0.579700  1
  C  C528  1  0.804000  0.142800  0.420300  1
  C  C529  1  0.684000  0.261000  0.857300  1
  C  C530  1  0.316000  0.739000  0.142700  1
  C  C531  1  0.500000  0.305600  0.891500  1
  C  C532  1  0.500000  0.694400  0.108500  1
  C  C533  1  0.487800  0.325000  0.834000  1
  C  C534  1  0.512200  0.675000  0.166000  1
  C  C535  1  0.421500  0.371000  0.815600  1
  C  C536  1  0.578500  0.629000  0.184400  1
  C  C537  1  0.367400  0.397700  0.854800  1
  C  C538  1  0.632600  0.602300  0.145200  1
  C  C539  1  0.379500  0.378300  0.912300  1
  C  C540  1  0.620500  0.621700  0.087700  1
  C  C541  1  0.445900  0.332300  0.930700  1
  C  C542  1  0.554100  0.667700  0.069300  1
  C  C543  1  0.540100  0.169400  0.922500  1
  C  C544  1  0.459900  0.830600  0.077500  1
  C  C545  1  0.597900  0.118800  0.912500  1
  C  C546  1  0.402100  0.881200  0.087500  1
  C  C547  1  0.560900  0.058000  0.918400  1
  C  C548  1  0.439100  0.942000  0.081600  1
  C  C549  1  0.467400  0.047400  0.939700  1
  C  C550  1  0.532600  0.952600  0.060300  1
  C  C551  1  0.410600  0.098100  0.948400  1
  C  C552  1  0.589400  0.901900  0.051600  1
  C  C553  1  0.444300  0.159200  0.939900  1
  C  C554  1  0.555700  0.840800  0.060100  1
  C  C555  1  0.620800  0.249300  0.978500  1
  C  C556  1  0.379200  0.750700  0.021500  1
  C  C557  1  0.573900  0.214600  0.032300  1
  C  C558  1  0.426100  0.785400  0.967700  1
  C  C559  1  0.601800  0.219800  0.083400  1
  C  C560  1  0.398200  0.780200  0.916600  1
  C  C561  1  0.679000  0.255300  0.081100  1
  C  C562  1  0.321000  0.744700  0.918900  1
  C  C563  1  0.728100  0.287400  0.027900  1
  C  C564  1  0.271900  0.712600  0.972100  1
  C  C565  1  0.697300  0.283000  0.977200  1
  C  C566  1  0.302700  0.717000  0.022800  1
  C  C567  1  0.844400  0.781700  0.288800  1
  C  C568  1  0.155600  0.218300  0.711200  1
  C  C569  1  0.823600  0.771900  0.168000  1
  C  C570  1  0.176400  0.228100  0.832000  1
  C  C571  1  0.802200  0.737900  0.131900  1
  C  C572  1  0.197800  0.262100  0.868100  1
  C  C573  1  0.823000  0.762700  0.072600  1
  C  C574  1  0.177000  0.237300  0.927400  1
  C  C575  1  0.865400  0.821600  0.049500  1
  C  C576  1  0.134600  0.178400  0.950500  1
  C  C577  1  0.886900  0.855600  0.085700  1
  C  C578  1  0.113100  0.144400  0.914300  1
  C  C579  1  0.866000  0.830800  0.145000  1
  C  C580  1  0.134000  0.169200  0.855000  1
  C  C581  1  0.737400  0.682900  0.271900  1
  C  C582  1  0.262600  0.317100  0.728100  1
  C  C583  1  0.802800  0.641100  0.254800  1
  C  C584  1  0.197200  0.358900  0.745200  1
  C  C585  1  0.790900  0.575500  0.276600  1
  C  C586  1  0.209100  0.424500  0.723400  1
  C  C587  1  0.713700  0.551600  0.315600  1
  C  C588  1  0.286300  0.448400  0.684400  1
  C  C589  1  0.648400  0.593400  0.332800  1
  C  C590  1  0.351600  0.406600  0.667200  1
  C  C591  1  0.660200  0.659000  0.310900  1
  C  C592  1  0.339800  0.341000  0.689100  1
  C  C593  1  0.660200  0.808100  0.259400  1
  C  C594  1  0.339800  0.191900  0.740600  1
  C  C595  1  0.629000  0.814000  0.314100  1
  C  C596  1  0.371000  0.186000  0.685900  1
  C  C597  1  0.548000  0.847500  0.324000  1
  C  C598  1  0.452000  0.152500  0.676000  1
  C  C599  1  0.498400  0.875100  0.279200  1
  C  C600  1  0.501600  0.124900  0.720800  1
  C  C601  1  0.529300  0.869200  0.224500  1
  C  C602  1  0.470700  0.130800  0.775500  1
  C  C603  1  0.610300  0.835700  0.214600  1
  C  C604  1  0.389700  0.164300  0.785400  1
  C  C605  1  0.785400  0.621900  0.938300  1
  C  C606  1  0.214600  0.378100  0.061700  1
  C  C607  1  0.866700  0.581600  0.962100  1
  C  C608  1  0.133300  0.418400  0.037900  1
  C  C609  1  0.891000  0.606400  0.011900  1
  C  C610  1  0.109000  0.393600  0.988100  1
  C  C611  1  0.957000  0.664200  0.981700  1
  C  C612  1  0.043000  0.335800  0.018300  1
  C  C613  1  0.732100  0.534800  0.902900  1
  C  C614  1  0.267900  0.465200  0.097100  1
  C  C615  1  0.665000  0.518300  0.958000  1
  C  C616  1  0.335000  0.481700  0.042000  1
  C  C617  1  0.640000  0.444800  0.957600  1
  C  C618  1  0.360000  0.555200  0.042400  1
  C  C619  1  0.580000  0.416900  0.022900  1
  C  C620  1  0.420000  0.583100  0.977100  1
  C  C621  1  0.679300  0.649800  0.868700  1
  C  C622  1  0.320700  0.350200  0.131300  1
  C  C623  1  0.651000  0.640400  0.811900  1
  C  C624  1  0.349000  0.359600  0.188100  1
  C  C625  1  0.548000  0.678700  0.812000  1
  C  C626  1  0.452000  0.321300  0.188000  1
  C  C627  1  0.526000  0.689000  0.750100  1
  C  C628  1  0.474000  0.311000  0.249900  1
  C  C629  1  0.842000  0.611800  0.835800  1
  C  C630  1  0.158000  0.388200  0.164200  1
  C  C631  1  0.874500  0.681300  0.809100  1
  C  C632  1  0.125500  0.318700  0.190900  1
  C  C633  1  0.969800  0.683000  0.770700  1
  C  C634  1  0.030200  0.317000  0.229300  1
  C  C635  1  0.593400  0.393100  0.627700  1
  C  C636  1  0.406600  0.606900  0.372300  1
  C  C637  1  0.236000  0.936600  0.892600  1
  C  C638  1  0.764000  0.063400  0.107400  1
  C  C639  1  0.230000  0.919000  0.952000  1
  C  C640  1  0.770000  0.081000  0.048000  1
  C  C641  1  0.890700  0.751500  0.279400  1
  C  C642  1  0.109300  0.248500  0.720600  1
  C  C643  1  0.762900  0.659200  0.265500  1
  C  C644  1  0.237100  0.340800  0.734500  1
  C  C645  1  0.824700  0.618800  0.243400  1
  C  C646  1  0.175300  0.381200  0.756600  1
  C  C647  1  0.813300  0.553000  0.263100  1
  C  C648  1  0.186700  0.447000  0.736900  1
  C  C649  1  0.740100  0.527600  0.305000  1
  C  C650  1  0.259900  0.472400  0.695000  1
  C  C651  1  0.678200  0.567900  0.327100  1
  C  C652  1  0.321800  0.432100  0.672900  1
  C  C653  1  0.689600  0.633700  0.307300  1
  C  C654  1  0.310400  0.366300  0.692700  1
  C  C655  1  0.700500  0.785800  0.266600  1
  C  C656  1  0.299500  0.214200  0.733400  1
  C  C657  1  0.690400  0.796300  0.320500  1
  C  C658  1  0.309600  0.203700  0.679500  1
  C  C659  1  0.614600  0.830200  0.338300  1
  C  C660  1  0.385400  0.169800  0.661700  1
  C  C661  1  0.548900  0.853700  0.302300  1
  C  C662  1  0.451100  0.146300  0.697700  1
  C  C663  1  0.559000  0.843200  0.248400  1
  C  C664  1  0.441000  0.156800  0.751600  1
  C  C665  1  0.634800  0.809200  0.230600  1
  C  C666  1  0.365200  0.190800  0.769400  1
  C  C667  1  0.802500  0.793200  0.172200  1
  C  C668  1  0.197500  0.206800  0.827800  1
  C  C669  1  0.854700  0.848200  0.152800  1
  C  C670  1  0.145300  0.151800  0.847200  1
  C  C671  1  0.886700  0.872300  0.094600  1
  C  C672  1  0.113300  0.127700  0.905400  1
  C  C673  1  0.866600  0.841400  0.055800  1
  C  C674  1  0.133400  0.158600  0.944200  1
  C  C675  1  0.814300  0.786400  0.075200  1
  C  C676  1  0.185700  0.213600  0.924800  1
  C  C677  1  0.782300  0.762300  0.133400  1
  C  C678  1  0.217700  0.237700  0.866600  1
  N  N679  1  0.765900  0.607700  0.883200  1
  N  N680  1  0.234100  0.392300  0.116800  1
  O  O681  1  0.779900  0.159700  0.217800  1
  O  O682  1  0.220100  0.840300  0.782200  1
  O  O683  1  0.609200  0.255200  0.740600  1
  O  O684  1  0.390800  0.744800  0.259400  1
  O  O685  1  0.239700  0.028200  0.284600  1
  O  O686  1  0.760300  0.971800  0.715400  1
  O  O687  1  0.808100  0.325200  0.329100  1
  O  O688  1  0.191900  0.674800  0.670900  1
  O  O689  1  0.935600  0.909100  0.253000  1
  O  O690  1  0.064400  0.090900  0.747000  1
  O  O691  1  0.027500  0.005100  0.288000  1
  O  O692  1  0.972500  0.994900  0.712000  1
  O  O693  1  0.816000  0.496900  0.162000  1
  O  O694  1  0.184000  0.503100  0.838000  1
  O  O695  1  0.868000  0.414300  0.041400  1
  O  O696  1  0.132000  0.585700  0.958600  1
  O  O697  1  0.123000  0.690400  0.872300  1
  O  O698  1  0.877000  0.309600  0.127700  1
  O  O699  1  0.719000  0.475300  0.083800  1
  O  O700  1  0.281000  0.524700  0.916200  1
  O  O701  1  0.987400  0.201900  0.135300  1
  O  O702  1  0.012600  0.798100  0.864700  1
  O  O703  1  0.175800  0.210200  0.116300  1
  O  O704  1  0.824200  0.789800  0.883700  1
  O  O705  1  0.328500  0.227900  0.038700  1
  O  O706  1  0.671500  0.772100  0.961300  1
  O  O707  1  0.329000  0.184000  0.163000  1
  O  O708  1  0.671000  0.816000  0.837000  1
  O  O709  1  0.394800  0.109000  0.103100  1
  O  O710  1  0.605200  0.891000  0.896900  1
  O  O711  1  0.755100  0.973800  0.428300  1
  O  O712  1  0.244900  0.026200  0.571700  1
  O  O713  1  0.818300  0.914700  0.353300  1
  O  O714  1  0.181700  0.085300  0.646700  1
  O  O715  1  0.608900  0.017900  0.228400  1
  O  O716  1  0.391100  0.982100  0.771600  1
  O  O717  1  0.949400  0.948000  0.409200  1
  O  O718  1  0.050600  0.052000  0.590800  1
  O  O719  1  0.843100  0.900900  0.512700  1
  O  O720  1  0.156900  0.099100  0.487300  1
  O  O721  1  0.907600  0.824800  0.433000  1
  O  O722  1  0.092400  0.175200  0.567000  1
  O  O723  1  0.734500  0.842500  0.457100  1
  O  O724  1  0.265500  0.157500  0.542900  1
  O  O725  1  0.750300  0.387000  0.460400  1
  O  O726  1  0.249700  0.613000  0.539600  1
  O  O727  1  0.585600  0.421300  0.488900  1
  O  O728  1  0.414400  0.578700  0.511100  1
  O  O729  1  0.668700  0.631200  0.467300  1
  O  O730  1  0.331300  0.368800  0.532700  1
  O  O731  1  0.701400  0.281300  0.437300  1
  O  O732  1  0.298600  0.718700  0.562700  1
  O  O733  1  0.619600  0.293800  0.539900  1
  O  O734  1  0.380400  0.706200  0.460100  1
  O  O735  1  0.510300  0.325800  0.456500  1
  O  O736  1  0.489700  0.674200  0.543500  1
  O  O737  1  0.627000  0.401400  0.384000  1
  O  O738  1  0.373000  0.598600  0.616000  1
  O  O739  1  0.063100  0.532400  0.202500  1
  O  O740  1  0.936900  0.467600  0.797500  1
  O  O741  1  0.194400  0.606500  0.143900  1
  O  O742  1  0.805600  0.393500  0.856100  1
  O  O743  1  0.403800  0.499300  0.266800  1
  O  O744  1  0.596200  0.500700  0.733200  1
  O  O745  1  0.086000  0.563800  0.077900  1
  O  O746  1  0.914000  0.436200  0.922100  1
  O  O747  1  0.935300  0.596500  0.141600  1
  O  O748  1  0.064700  0.403500  0.858400  1
  O  O749  1  0.075300  0.687100  0.075900  1
  O  O750  1  0.924700  0.312900  0.924100  1
  O  O751  1  0.044300  0.665500  0.185400  1
  O  O752  1  0.955700  0.334500  0.814600  1
  O  O753  1  0.239900  0.119500  0.051200  1
  O  O754  1  0.760100  0.880500  0.948800  1
  O  O755  1  0.222400  0.083200  0.162700  1
  O  O756  1  0.777600  0.916800  0.837300  1
  O  O757  1  0.123300  0.877900  0.170900  1
  O  O758  1  0.876700  0.122100  0.829100  1
  O  O759  1  0.556000  0.329700  0.639800  1
  O  O760  1  0.444000  0.670300  0.360200  1
  O  O761  1  0.753600  0.307600  0.238400  1
  O  O762  1  0.246400  0.692400  0.761600  1
