# generated using pymatgen
data_As2H121W4C156N2O35
_symmetry_space_group_name_H-M   'P 1'
_cell_length_a   18.42450000
_cell_length_b   20.63960000
_cell_length_c   21.92400000
_cell_angle_alpha   85.62900000
_cell_angle_beta   85.91100000
_cell_angle_gamma   65.71000000
_symmetry_Int_Tables_number   1
_chemical_formula_structural   As2H121W4C156N2O35
_chemical_formula_sum   'As4 H242 W8 C312 N4 O70'
_cell_volume   7569.66182843
_cell_formula_units_Z   2
loop_
 _symmetry_equiv_pos_site_id
 _symmetry_equiv_pos_as_xyz
  1  'x, y, z'
loop_
 _atom_site_type_symbol
 _atom_site_label
 _atom_site_symmetry_multiplicity
 _atom_site_fract_x
 _atom_site_fract_y
 _atom_site_fract_z
 _atom_site_occupancy
  As  As1  1  0.773920  0.947520  0.507920  1
  As  As2  1  0.226080  0.052480  0.492080  1
  As  As3  1  0.273520  0.566770  0.941680  1
  As  As4  1  0.726480  0.433230  0.058320  1
  H  H5  1  0.612000  0.511900  0.838000  1
  H  H6  1  0.388000  0.488100  0.162000  1
  H  H7  1  0.755500  0.592700  0.679900  1
  H  H8  1  0.244500  0.407300  0.320100  1
  H  H9  1  0.998800  0.366500  0.734100  1
  H  H10  1  0.001200  0.633500  0.265900  1
  H  H11  1  0.827000  0.303700  0.874200  1
  H  H12  1  0.173000  0.696300  0.125800  1
  H  H13  1  0.899800  0.565300  0.716900  1
  H  H14  1  0.100200  0.434700  0.283100  1
  H  H15  1  0.976500  0.588300  0.634900  1
  H  H16  1  0.023500  0.411700  0.365100  1
  H  H17  1  0.018000  0.515800  0.549000  1
  H  H18  1  0.982000  0.484200  0.451000  1
  H  H19  1  0.973100  0.421600  0.548400  1
  H  H20  1  0.026900  0.578400  0.451600  1
  H  H21  1  0.900800  0.397800  0.631200  1
  H  H22  1  0.099200  0.602200  0.368800  1
  H  H23  1  0.074900  0.304000  0.032100  1
  H  H24  1  0.925100  0.696000  0.967900  1
  H  H25  1  0.095700  0.066600  0.050800  1
  H  H26  1  0.904300  0.933400  0.949200  1
  H  H27  1  0.038000  0.105800  0.281800  1
  H  H28  1  0.962000  0.894200  0.718200  1
  H  H29  1  0.042600  0.332400  0.234500  1
  H  H30  1  0.957400  0.667600  0.765500  1
  H  H31  1  0.972400  0.075800  0.126800  1
  H  H32  1  0.027600  0.924200  0.873200  1
  H  H33  1  0.978600  0.957500  0.137300  1
  H  H34  1  0.021400  0.042500  0.862700  1
  H  H35  1  0.079300  0.870000  0.195300  1
  H  H36  1  0.920700  0.130000  0.804700  1
  H  H37  1  0.180500  0.895300  0.232800  1
  H  H38  1  0.819500  0.104700  0.767200  1
  H  H39  1  0.174400  0.012000  0.220100  1
  H  H40  1  0.825600  0.988000  0.779900  1
  H  H41  1  0.738200  0.397900  0.334300  1
  H  H42  1  0.261800  0.602100  0.665700  1
  H  H43  1  0.847300  0.495000  0.472600  1
  H  H44  1  0.152700  0.505000  0.527400  1
  H  H45  1  0.621600  0.736400  0.418000  1
  H  H46  1  0.378400  0.263600  0.582000  1
  H  H47  1  0.532800  0.606700  0.291700  1
  H  H48  1  0.467200  0.393300  0.708300  1
  H  H49  1  0.844400  0.614400  0.420900  1
  H  H50  1  0.155600  0.385600  0.579100  1
  H  H51  1  0.892300  0.667900  0.493400  1
  H  H52  1  0.107700  0.332100  0.506600  1
  H  H53  1  0.818100  0.711400  0.580100  1
  H  H54  1  0.181900  0.288600  0.419900  1
  H  H55  1  0.690900  0.706400  0.598700  1
  H  H56  1  0.309100  0.293600  0.401300  1
  H  H57  1  0.645500  0.653600  0.526100  1
  H  H58  1  0.354500  0.346400  0.473900  1
  H  H59  1  0.557000  0.823400  0.125200  1
  H  H60  1  0.443000  0.176600  0.874800  1
  H  H61  1  0.277600  0.873700  0.128400  1
  H  H62  1  0.722400  0.126300  0.871600  1
  H  H63  1  0.322600  0.813400  0.902900  1
  H  H64  1  0.677400  0.186600  0.097100  1
  H  H65  1  0.595100  0.770600  0.928300  1
  H  H66  1  0.404900  0.229400  0.071700  1
  H  H67  1  0.242700  0.950200  0.961700  1
  H  H68  1  0.757300  0.049800  0.038300  1
  H  H69  1  0.106200  0.982000  0.953300  1
  H  H70  1  0.893800  0.018000  0.046700  1
  H  H71  1  0.044600  0.911200  0.002700  1
  H  H72  1  0.955400  0.088800  0.997300  1
  H  H73  1  0.125600  0.803200  0.055600  1
  H  H74  1  0.874400  0.196800  0.944400  1
  H  H75  1  0.261000  0.773400  0.063700  1
  H  H76  1  0.739000  0.226600  0.936300  1
  H  H77  1  0.633100  0.054500  0.565500  1
  H  H78  1  0.366900  0.945500  0.434500  1
  H  H79  1  0.526000  0.166400  0.533100  1
  H  H80  1  0.474000  0.833600  0.466900  1
  H  H81  1  0.520000  0.198800  0.429000  1
  H  H82  1  0.480000  0.801200  0.571000  1
  H  H83  1  0.613800  0.134800  0.357700  1
  H  H84  1  0.386200  0.865200  0.642300  1
  H  H85  1  0.722700  0.023700  0.386700  1
  H  H86  1  0.277300  0.976300  0.613300  1
  H  H87  1  0.837300  0.865600  0.620900  1
  H  H88  1  0.162700  0.134400  0.379100  1
  H  H89  1  0.786200  0.806000  0.701100  1
  H  H90  1  0.213800  0.194000  0.298900  1
  H  H91  1  0.665700  0.802600  0.694100  1
  H  H92  1  0.334300  0.197400  0.305900  1
  H  H93  1  0.581800  0.859400  0.612600  1
  H  H94  1  0.418200  0.140600  0.387400  1
  H  H95  1  0.627900  0.923600  0.535600  1
  H  H96  1  0.372100  0.076400  0.464400  1
  H  H97  1  0.944200  0.906500  0.492200  1
  H  H98  1  0.055800  0.093500  0.507800  1
  H  H99  1  0.042500  0.931100  0.546400  1
  H  H100  1  0.957500  0.068900  0.453600  1
  H  H101  1  0.993400  0.016300  0.622600  1
  H  H102  1  0.006600  0.983700  0.377400  1
  H  H103  1  0.860200  0.070200  0.648000  1
  H  H104  1  0.139800  0.929800  0.352000  1
  H  H105  1  0.769300  0.042100  0.599000  1
  H  H106  1  0.230700  0.957900  0.401000  1
  H  H107  1  0.870600  0.952000  0.394600  1
  H  H108  1  0.129400  0.048000  0.605400  1
  H  H109  1  0.911200  0.887900  0.305800  1
  H  H110  1  0.088800  0.112100  0.694200  1
  H  H111  1  0.882400  0.788800  0.296800  1
  H  H112  1  0.117600  0.211200  0.703200  1
  H  H113  1  0.813000  0.753700  0.376700  1
  H  H114  1  0.187000  0.246300  0.623300  1
  H  H115  1  0.772400  0.817800  0.465600  1
  H  H116  1  0.227600  0.182200  0.534400  1
  H  H117  1  0.394900  0.609400  0.891200  1
  H  H118  1  0.605100  0.390600  0.108800  1
  H  H119  1  0.502000  0.635200  0.924700  1
  H  H120  1  0.498000  0.364800  0.075300  1
  H  H121  1  0.505200  0.643500  0.036700  1
  H  H122  1  0.494800  0.356500  0.963300  1
  H  H123  1  0.417000  0.609900  0.102200  1
  H  H124  1  0.583000  0.390100  0.897800  1
  H  H125  1  0.315800  0.581500  0.061500  1
  H  H126  1  0.684200  0.418500  0.938500  1
  H  H127  1  0.423200  0.491100  0.872800  1
  H  H128  1  0.576800  0.508900  0.127200  1
  H  H129  1  0.478100  0.384900  0.821700  1
  H  H130  1  0.521900  0.615100  0.178300  1
  H  H131  1  0.406500  0.314100  0.819600  1
  H  H132  1  0.593500  0.685900  0.180400  1
  H  H133  1  0.280100  0.349700  0.868500  1
  H  H134  1  0.719900  0.650300  0.131500  1
  H  H135  1  0.225100  0.455900  0.919600  1
  H  H136  1  0.774900  0.544100  0.080400  1
  H  H137  1  0.283400  0.457600  0.042500  1
  H  H138  1  0.716600  0.542400  0.957500  1
  H  H139  1  0.199400  0.447700  0.123000  1
  H  H140  1  0.800600  0.552300  0.877000  1
  H  H141  1  0.065800  0.527900  0.128700  1
  H  H142  1  0.934200  0.472100  0.871300  1
  H  H143  1  0.018700  0.631900  0.063800  1
  H  H144  1  0.981300  0.368100  0.936200  1
  H  H145  1  0.107000  0.646000  0.980800  1
  H  H146  1  0.893000  0.354000  0.019200  1
  H  H147  1  0.206300  0.579800  0.820500  1
  H  H148  1  0.793700  0.420200  0.179500  1
  H  H149  1  0.134200  0.687700  0.751100  1
  H  H150  1  0.865800  0.312300  0.248900  1
  H  H151  1  0.120700  0.795900  0.776800  1
  H  H152  1  0.879300  0.204100  0.223200  1
  H  H153  1  0.156400  0.817700  0.868600  1
  H  H154  1  0.843600  0.182300  0.131400  1
  H  H155  1  0.216300  0.722000  0.939800  1
  H  H156  1  0.783700  0.278000  0.060200  1
  H  H157  1  0.478700  0.093800  0.231800  1
  H  H158  1  0.521300  0.906200  0.768200  1
  H  H159  1  0.499700  0.088900  0.160000  1
  H  H160  1  0.500300  0.911100  0.840000  1
  H  H161  1  0.427000  0.007500  0.229000  1
  H  H162  1  0.573000  0.992500  0.771000  1
  H  H163  1  0.449100  0.001500  0.156900  1
  H  H164  1  0.550900  0.998500  0.843100  1
  H  H165  1  0.360200  0.118000  0.137000  1
  H  H166  1  0.639800  0.882000  0.863000  1
  H  H167  1  0.344900  0.132100  0.208500  1
  H  H168  1  0.655100  0.867900  0.791500  1
  H  H169  1  0.237700  0.115200  0.171300  1
  H  H170  1  0.762300  0.884800  0.828700  1
  H  H171  1  0.281800  0.052500  0.220800  1
  H  H172  1  0.718200  0.947500  0.779200  1
  H  H173  1  0.297100  0.038400  0.149300  1
  H  H174  1  0.702900  0.961600  0.850700  1
  H  H175  1  0.643600  0.019100  0.094800  1
  H  H176  1  0.356400  0.980900  0.905200  1
  H  H177  1  0.553700  0.028000  0.087800  1
  H  H178  1  0.446300  0.972000  0.912200  1
  H  H179  1  0.693700  0.899700  0.054800  1
  H  H180  1  0.306300  0.100300  0.945200  1
  H  H181  1  0.603700  0.909400  0.047200  1
  H  H182  1  0.396300  0.090600  0.952800  1
  H  H183  1  0.657800  0.934100  0.955200  1
  H  H184  1  0.342200  0.065900  0.044800  1
  H  H185  1  0.674500  0.994500  0.985600  1
  H  H186  1  0.325500  0.005500  0.014400  1
  H  H187  1  0.584800  0.004100  0.977900  1
  H  H188  1  0.415200  0.995900  0.022100  1
  H  H189  1  0.602500  0.081600  0.249700  1
  H  H190  1  0.397500  0.918400  0.750300  1
  H  H191  1  0.636000  0.069900  0.180300  1
  H  H192  1  0.364000  0.930100  0.819700  1
  H  H193  1  0.743800  0.961200  0.212300  1
  H  H194  1  0.256200  0.038800  0.787700  1
  H  H195  1  0.710500  0.973700  0.281900  1
  H  H196  1  0.289500  0.026300  0.718100  1
  H  H197  1  0.638000  0.920000  0.270500  1
  H  H198  1  0.362000  0.080000  0.729500  1
  H  H199  1  0.550600  0.927500  0.257800  1
  H  H200  1  0.449400  0.072500  0.742200  1
  H  H201  1  0.492700  0.021600  0.324700  1
  H  H202  1  0.507300  0.978400  0.675300  1
  H  H203  1  0.577500  0.022800  0.333400  1
  H  H204  1  0.422500  0.977200  0.666600  1
  H  H205  1  0.572500  0.350200  0.557100  1
  H  H206  1  0.427500  0.649800  0.442900  1
  H  H207  1  0.596000  0.274100  0.529300  1
  H  H208  1  0.404000  0.725900  0.470700  1
  H  H209  1  0.387500  0.444900  0.403800  1
  H  H210  1  0.612500  0.555100  0.596200  1
  H  H211  1  0.468100  0.397500  0.367300  1
  H  H212  1  0.531900  0.602500  0.632700  1
  H  H213  1  0.460300  0.468600  0.397000  1
  H  H214  1  0.539700  0.531400  0.603000  1
  H  H215  1  0.701100  0.196100  0.466900  1
  H  H216  1  0.298900  0.803900  0.533100  1
  H  H217  1  0.779100  0.167000  0.506500  1
  H  H218  1  0.220900  0.833000  0.493500  1
  H  H219  1  0.862300  0.152300  0.417000  1
  H  H220  1  0.137700  0.847700  0.583000  1
  H  H221  1  0.806300  0.111300  0.410000  1
  H  H222  1  0.193700  0.888700  0.590000  1
  H  H223  1  0.809000  0.179400  0.318200  1
  H  H224  1  0.191000  0.820600  0.681800  1
  H  H225  1  0.776300  0.250400  0.355300  1
  H  H226  1  0.223700  0.749600  0.644700  1
  H  H227  1  0.720400  0.209400  0.348300  1
  H  H228  1  0.279600  0.790600  0.651700  1
  H  H229  1  0.741900  0.212600  0.582200  1
  H  H230  1  0.258100  0.787400  0.417800  1
  H  H231  1  0.687900  0.281100  0.619900  1
  H  H232  1  0.312100  0.718900  0.380100  1
  H  H233  1  0.829500  0.281200  0.556700  1
  H  H234  1  0.170500  0.718800  0.443300  1
  H  H235  1  0.786500  0.321900  0.617200  1
  H  H236  1  0.213500  0.678100  0.382800  1
  H  H237  1  0.830000  0.192300  0.661500  1
  H  H238  1  0.170000  0.807700  0.338500  1
  H  H239  1  0.898800  0.179200  0.609000  1
  H  H240  1  0.101200  0.820800  0.391000  1
  H  H241  1  0.942100  0.199400  0.702000  1
  H  H242  1  0.057900  0.800600  0.298000  1
  H  H243  1  0.868100  0.275300  0.705000  1
  H  H244  1  0.131900  0.724700  0.295000  1
  H  H245  1  0.936900  0.262100  0.652500  1
  H  H246  1  0.063100  0.737900  0.347500  1
  W  W247  1  0.501160  0.742810  0.736810  1
  W  W248  1  0.498840  0.257190  0.263190  1
  W  W249  1  0.109040  0.166880  0.859510  1
  W  W250  1  0.890960  0.833120  0.140490  1
  W  W251  1  0.978460  0.259350  0.435380  1
  W  W252  1  0.021540  0.740650  0.564620  1
  W  W253  1  0.395730  0.859870  0.310000  1
  W  W254  1  0.604270  0.140130  0.690000  1
  C  C255  1  0.271500  0.254300  0.001300  1
  C  C256  1  0.728500  0.745700  0.998700  1
  C  C257  1  0.298600  0.249900  0.760700  1
  C  C258  1  0.701400  0.750100  0.239300  1
  C  C259  1  0.620000  0.322000  0.780500  1
  C  C260  1  0.380000  0.678000  0.219500  1
  C  C261  1  0.724100  0.487200  0.791800  1
  C  C262  1  0.275900  0.512800  0.208200  1
  C  C263  1  0.641400  0.528700  0.808400  1
  C  C264  1  0.358600  0.471300  0.191600  1
  C  C265  1  0.607300  0.596400  0.777200  1
  C  C266  1  0.392700  0.403600  0.222800  1
  C  C267  1  0.652000  0.618600  0.730500  1
  C  C268  1  0.348000  0.381400  0.269500  1
  C  C269  1  0.728300  0.577400  0.712400  1
  C  C270  1  0.271700  0.422600  0.287600  1
  C  C271  1  0.766300  0.508800  0.745000  1
  C  C272  1  0.233700  0.491200  0.255000  1
  C  C273  1  0.847400  0.463600  0.732600  1
  C  C274  1  0.152600  0.536400  0.267400  1
  C  C275  1  0.882600  0.399000  0.768500  1
  C  C276  1  0.117400  0.601000  0.231500  1
  C  C277  1  0.965000  0.354800  0.763300  1
  C  C278  1  0.035000  0.645200  0.236700  1
  C  C279  1  0.994900  0.295400  0.800800  1
  C  C280  1  0.005100  0.704600  0.199200  1
  C  C281  1  0.946000  0.273300  0.843400  1
  C  C282  1  0.054000  0.726700  0.156600  1
  C  C283  1  0.862200  0.317000  0.847700  1
  C  C284  1  0.137800  0.683000  0.152300  1
  C  C285  1  0.835400  0.378900  0.811900  1
  C  C286  1  0.164600  0.621100  0.188100  1
  C  C287  1  0.893500  0.480200  0.681900  1
  C  C288  1  0.106500  0.519800  0.318100  1
  C  C289  1  0.915500  0.535800  0.682900  1
  C  C290  1  0.084500  0.464200  0.317100  1
  C  C291  1  0.961600  0.549600  0.633500  1
  C  C292  1  0.038400  0.450400  0.366500  1
  C  C293  1  0.986100  0.507300  0.582000  1
  C  C294  1  0.013900  0.492700  0.418000  1
  C  C295  1  0.959800  0.450500  0.582700  1
  C  C296  1  0.040200  0.549500  0.417300  1
  C  C297  1  0.915800  0.436600  0.631600  1
  C  C298  1  0.084200  0.563400  0.368400  1
  C  C299  1  0.073100  0.225100  0.092300  1
  C  C300  1  0.926900  0.774900  0.907700  1
  C  C301  1  0.078200  0.256700  0.035800  1
  C  C302  1  0.921800  0.743300  0.964200  1
  C  C303  1  0.088200  0.218900  0.984800  1
  C  C304  1  0.911800  0.781100  0.015200  1
  C  C305  1  0.096800  0.145000  0.991400  1
  C  C306  1  0.903200  0.855000  0.008600  1
  C  C307  1  0.091300  0.114200  0.047200  1
  C  C308  1  0.908700  0.885800  0.952800  1
  C  C309  1  0.078900  0.153600  0.100800  1
  C  C310  1  0.921100  0.846400  0.899200  1
  C  C311  1  0.071100  0.126400  0.161400  1
  C  C312  1  0.928900  0.873600  0.838600  1
  C  C313  1  0.058100  0.171000  0.211600  1
  C  C314  1  0.941900  0.829000  0.788400  1
  C  C315  1  0.040400  0.150700  0.272900  1
  C  C316  1  0.959600  0.849300  0.727100  1
  C  C317  1  0.027200  0.196200  0.318100  1
  C  C318  1  0.972800  0.803800  0.681900  1
  C  C319  1  0.026600  0.267800  0.304500  1
  C  C320  1  0.973400  0.732200  0.695500  1
  C  C321  1  0.041100  0.287300  0.244400  1
  C  C322  1  0.958900  0.712700  0.755600  1
  C  C323  1  0.053000  0.241300  0.199700  1
  C  C324  1  0.947000  0.758700  0.800300  1
  C  C325  1  0.073600  0.053700  0.170500  1
  C  C326  1  0.926400  0.946300  0.829500  1
  C  C327  1  0.014800  0.039100  0.147500  1
  C  C328  1  0.985200  0.960900  0.852500  1
  C  C329  1  0.017500  0.968600  0.154900  1
  C  C330  1  0.982500  0.031400  0.845100  1
  C  C331  1  0.078500  0.916300  0.188300  1
  C  C332  1  0.921500  0.083700  0.811700  1
  C  C333  1  0.138200  0.931500  0.211600  1
  C  C334  1  0.861800  0.068500  0.788400  1
  C  C335  1  0.134900  0.000900  0.203400  1
  C  C336  1  0.865100  0.999100  0.796600  1
  C  C337  1  0.723500  0.488300  0.372500  1
  C  C338  1  0.276500  0.511700  0.627500  1
  C  C339  1  0.760000  0.417900  0.361800  1
  C  C340  1  0.240000  0.582100  0.638200  1
  C  C341  1  0.829300  0.375400  0.391100  1
  C  C342  1  0.170700  0.624600  0.608900  1
  C  C343  1  0.861100  0.405600  0.434400  1
  C  C344  1  0.138900  0.594400  0.565600  1
  C  C345  1  0.825200  0.475600  0.444800  1
  C  C346  1  0.174800  0.524400  0.555200  1
  C  C347  1  0.754100  0.521200  0.414300  1
  C  C348  1  0.245900  0.478800  0.585700  1
  C  C349  1  0.714700  0.593900  0.422900  1
  C  C350  1  0.285300  0.406100  0.577100  1
  C  C351  1  0.646100  0.635200  0.389500  1
  C  C352  1  0.353900  0.364800  0.610500  1
  C  C353  1  0.603100  0.711000  0.393300  1
  C  C354  1  0.396900  0.289000  0.606700  1
  C  C355  1  0.536000  0.746200  0.361500  1
  C  C356  1  0.464000  0.253800  0.638500  1
  C  C357  1  0.507400  0.707300  0.320700  1
  C  C358  1  0.492600  0.292700  0.679300  1
  C  C359  1  0.550200  0.632800  0.316500  1
  C  C360  1  0.449800  0.367200  0.683500  1
  C  C361  1  0.617800  0.599400  0.349400  1
  C  C362  1  0.382200  0.400600  0.650600  1
  C  C363  1  0.741800  0.628800  0.466800  1
  C  C364  1  0.258200  0.371200  0.533200  1
  C  C365  1  0.812900  0.632800  0.456900  1
  C  C366  1  0.187100  0.367200  0.543100  1
  C  C367  1  0.842200  0.665200  0.500900  1
  C  C368  1  0.157800  0.334800  0.499100  1
  C  C369  1  0.798700  0.690900  0.551400  1
  C  C370  1  0.201300  0.309100  0.448600  1
  C  C371  1  0.722600  0.687800  0.562800  1
  C  C372  1  0.277400  0.312200  0.437200  1
  C  C373  1  0.695800  0.656100  0.519300  1
  C  C374  1  0.304200  0.343900  0.480700  1
  C  C375  1  0.465600  0.825900  0.074200  1
  C  C376  1  0.534400  0.174100  0.925800  1
  C  C377  1  0.502700  0.830000  0.126600  1
  C  C378  1  0.497300  0.170000  0.873400  1
  C  C379  1  0.456300  0.844300  0.180400  1
  C  C380  1  0.543700  0.155700  0.819600  1
  C  C381  1  0.371500  0.860400  0.180200  1
  C  C382  1  0.628500  0.139600  0.819800  1
  C  C383  1  0.333333  0.861400  0.127900  1
  C  C384  1  0.666667  0.138600  0.872100  1
  C  C385  1  0.382400  0.842900  0.072900  1
  C  C386  1  0.617600  0.157100  0.927100  1
  C  C387  1  0.351000  0.838200  0.016000  1
  C  C388  1  0.649000  0.161800  0.984000  1
  C  C389  1  0.403300  0.815900  0.965600  1
  C  C390  1  0.596700  0.184100  0.034400  1
  C  C391  1  0.376300  0.806200  0.907500  1
  C  C392  1  0.623700  0.193800  0.092500  1
  C  C393  1  0.432800  0.785900  0.859200  1
  C  C394  1  0.567200  0.214100  0.140800  1
  C  C395  1  0.516600  0.773800  0.864700  1
  C  C396  1  0.483400  0.226200  0.135300  1
  C  C397  1  0.541000  0.780200  0.922500  1
  C  C398  1  0.459000  0.219800  0.077500  1
  C  C399  1  0.485400  0.800500  0.970000  1
  C  C400  1  0.514600  0.199500  0.030000  1
  C  C401  1  0.264500  0.857700  0.010900  1
  C  C402  1  0.735500  0.142300  0.989100  1
  C  C403  1  0.218800  0.920100  0.980200  1
  C  C404  1  0.781200  0.079900  0.019800  1
  C  C405  1  0.137200  0.939600  0.975900  1
  C  C406  1  0.862800  0.060400  0.024100  1
  C  C407  1  0.100400  0.897500  0.004600  1
  C  C408  1  0.899600  0.102500  0.995400  1
  C  C409  1  0.148800  0.833600  0.036700  1
  C  C410  1  0.851200  0.166400  0.963300  1
  C  C411  1  0.229400  0.815200  0.040600  1
  C  C412  1  0.770600  0.184800  0.959400  1
  C  C413  1  0.687900  0.032700  0.479500  1
  C  C414  1  0.312100  0.967300  0.520500  1
  C  C415  1  0.629900  0.071400  0.523800  1
  C  C416  1  0.370100  0.928600  0.476200  1
  C  C417  1  0.565000  0.137600  0.504600  1
  C  C418  1  0.435000  0.862400  0.495400  1
  C  C419  1  0.562900  0.156400  0.442600  1
  C  C420  1  0.437100  0.843600  0.557400  1
  C  C421  1  0.618700  0.117800  0.399400  1
  C  C422  1  0.381300  0.882200  0.600600  1
  C  C423  1  0.684600  0.052000  0.416000  1
  C  C424  1  0.315400  0.948000  0.584000  1
  C  C425  1  0.734300  0.901800  0.570600  1
  C  C426  1  0.265700  0.098200  0.429400  1
  C  C427  1  0.785800  0.865700  0.619500  1
  C  C428  1  0.214200  0.134300  0.380500  1
  C  C429  1  0.755200  0.829200  0.666800  1
  C  C430  1  0.244800  0.170800  0.333200  1
  C  C431  1  0.683000  0.827900  0.662600  1
  C  C432  1  0.317000  0.172100  0.337400  1
  C  C433  1  0.632100  0.861500  0.614500  1
  C  C434  1  0.367900  0.138500  0.385500  1
  C  C435  1  0.660700  0.899300  0.568800  1
  C  C436  1  0.339300  0.100700  0.431200  1
  C  C437  1  0.849300  0.974000  0.541700  1
  C  C438  1  0.150700  0.026000  0.458300  1
  C  C439  1  0.928100  0.939100  0.523900  1
  C  C440  1  0.071900  0.060900  0.476100  1
  C  C441  1  0.987000  0.954300  0.556100  1
  C  C442  1  0.013000  0.045700  0.443900  1
  C  C443  1  0.957100  0.004600  0.601900  1
  C  C444  1  0.042900  0.995400  0.398100  1
  C  C445  1  0.878500  0.036600  0.617000  1
  C  C446  1  0.121500  0.963400  0.383000  1
  C  C447  1  0.824300  0.020500  0.587300  1
  C  C448  1  0.175700  0.979500  0.412700  1
  C  C449  1  0.817700  0.890900  0.438500  1
  C  C450  1  0.182300  0.109100  0.561500  1
  C  C451  1  0.858900  0.911700  0.391000  1
  C  C452  1  0.141100  0.088300  0.609000  1
  C  C453  1  0.883100  0.873700  0.338200  1
  C  C454  1  0.116900  0.126300  0.661800  1
  C  C455  1  0.865900  0.814800  0.332900  1
  C  C456  1  0.134100  0.185200  0.667100  1
  C  C457  1  0.824700  0.794000  0.380400  1
  C  C458  1  0.175300  0.206000  0.619600  1
  C  C459  1  0.800600  0.832100  0.433200  1
  C  C460  1  0.199400  0.167900  0.566800  1
  C  C461  1  0.353700  0.592200  0.974100  1
  C  C462  1  0.646300  0.407800  0.025900  1
  C  C463  1  0.402200  0.609000  0.933700  1
  C  C464  1  0.597800  0.391000  0.066300  1
  C  C465  1  0.465100  0.626300  0.953000  1
  C  C466  1  0.534900  0.373700  0.047000  1
  C  C467  1  0.468100  0.629400  0.020100  1
  C  C468  1  0.531900  0.370600  0.979900  1
  C  C469  1  0.413600  0.610600  0.059100  1
  C  C470  1  0.586400  0.389400  0.940900  1
  C  C471  1  0.353200  0.592400  0.035500  1
  C  C472  1  0.646800  0.407600  0.964500  1
  C  C473  1  0.319000  0.483500  0.901000  1
  C  C474  1  0.681000  0.516500  0.099000  1
  C  C475  1  0.394100  0.462400  0.871900  1
  C  C476  1  0.605900  0.537600  0.128100  1
  C  C477  1  0.426800  0.399300  0.841600  1
  C  C478  1  0.573200  0.600700  0.158400  1
  C  C479  1  0.384200  0.357300  0.840300  1
  C  C480  1  0.615800  0.642700  0.159700  1
  C  C481  1  0.309100  0.378400  0.869400  1
  C  C482  1  0.690900  0.621600  0.130600  1
  C  C483  1  0.276500  0.441500  0.899700  1
  C  C484  1  0.723500  0.558500  0.100300  1
  C  C485  1  0.205300  0.553500  0.005000  1
  C  C486  1  0.794700  0.446500  0.995000  1
  C  C487  1  0.230800  0.493400  0.046800  1
  C  C488  1  0.769200  0.506600  0.953200  1
  C  C489  1  0.180300  0.486500  0.093600  1
  C  C490  1  0.819700  0.513500  0.906400  1
  C  C491  1  0.100900  0.535900  0.098200  1
  C  C492  1  0.899100  0.464100  0.901800  1
  C  C493  1  0.071800  0.597200  0.058600  1
  C  C494  1  0.928200  0.402800  0.941400  1
  C  C495  1  0.125100  0.606200  0.009300  1
  C  C496  1  0.874900  0.393800  0.990700  1
  C  C497  1  0.218600  0.643300  0.884400  1
  C  C498  1  0.781400  0.356700  0.115600  1
  C  C499  1  0.196200  0.626900  0.830300  1
  C  C500  1  0.803800  0.373100  0.169700  1
  C  C501  1  0.153900  0.692400  0.788700  1
  C  C502  1  0.846100  0.307600  0.211300  1
  C  C503  1  0.144400  0.756700  0.805100  1
  C  C504  1  0.855600  0.243300  0.194900  1
  C  C505  1  0.166000  0.770500  0.859500  1
  C  C506  1  0.834000  0.229500  0.140500  1
  C  C507  1  0.202400  0.714000  0.901000  1
  C  C508  1  0.797600  0.286000  0.099000  1
  C  C509  1  0.496100  0.060900  0.197900  1
  C  C510  1  0.503900  0.939100  0.802100  1
  C  C511  1  0.433200  0.034200  0.190900  1
  C  C512  1  0.566800  0.965800  0.809100  1
  C  C513  1  0.355800  0.095900  0.178000  1
  C  C514  1  0.644200  0.904100  0.822000  1
  C  C515  1  0.287100  0.073500  0.180000  1
  C  C516  1  0.712900  0.926500  0.820000  1
  C  C517  1  0.609900  0.955700  0.159000  1
  C  C518  1  0.390100  0.044300  0.841000  1
  C  C519  1  0.608600  0.993200  0.096100  1
  C  C520  1  0.391400  0.006800  0.903900  1
  C  C521  1  0.639100  0.934900  0.046100  1
  C  C522  1  0.360900  0.065100  0.953900  1
  C  C523  1  0.639000  0.969700  0.986400  1
  C  C524  1  0.361000  0.030300  0.013600  1
  C  C525  1  0.630600  0.045000  0.219600  1
  C  C526  1  0.369400  0.955000  0.780400  1
  C  C527  1  0.714700  0.998000  0.242000  1
  C  C528  1  0.285300  0.002000  0.758000  1
  C  C529  1  0.761500  0.045200  0.248800  1
  C  C530  1  0.238500  0.954800  0.751200  1
  C  C531  1  0.582100  0.954700  0.265900  1
  C  C532  1  0.417900  0.045300  0.734100  1
  C  C533  1  0.550400  0.991300  0.327500  1
  C  C534  1  0.449600  0.008700  0.672500  1
  C  C535  1  0.562500  0.938900  0.385000  1
  C  C536  1  0.437500  0.061100  0.615000  1
  C  C537  1  0.602900  0.319300  0.523500  1
  C  C538  1  0.397100  0.680700  0.476500  1
  C  C539  1  0.571000  0.356800  0.460800  1
  C  C540  1  0.429000  0.643200  0.539200  1
  C  C541  1  0.479000  0.384600  0.462200  1
  C  C542  1  0.521000  0.615400  0.537800  1
  C  C543  1  0.445700  0.427900  0.402000  1
  C  C544  1  0.554300  0.572100  0.598000  1
  C  C545  1  0.748500  0.271500  0.471900  1
  C  C546  1  0.251500  0.728500  0.528100  1
  C  C547  1  0.755100  0.195100  0.468900  1
  C  C548  1  0.244900  0.804900  0.531100  1
  C  C549  1  0.806500  0.158900  0.412500  1
  C  C550  1  0.193500  0.841100  0.587500  1
  C  C551  1  0.775200  0.203600  0.353200  1
  C  C552  1  0.224800  0.796400  0.646800  1
  C  C553  1  0.727200  0.264100  0.585200  1
  C  C554  1  0.272800  0.735900  0.414800  1
  C  C555  1  0.802500  0.276800  0.596400  1
  C  C556  1  0.197500  0.723200  0.403600  1
  C  C557  1  0.860300  0.215200  0.636000  1
  C  C558  1  0.139700  0.784800  0.364000  1
  C  C559  1  0.906000  0.240300  0.677600  1
  C  C560  1  0.094000  0.759700  0.322400  1
  C  C561  1  0.690700  0.379400  0.529300  1
  C  C562  1  0.309300  0.620600  0.470700  1
  C  C563  1  0.658600  0.413400  0.585700  1
  C  C564  1  0.341400  0.586600  0.414300  1
  C  C565  1  0.222200  0.303000  0.188400  1
  C  C566  1  0.777800  0.697000  0.811600  1
  N  N567  1  0.579400  0.004100  0.210500  1
  N  N568  1  0.420600  0.995900  0.789500  1
  N  N569  1  0.690100  0.304700  0.525100  1
  N  N570  1  0.309900  0.695300  0.474900  1
  O  O571  1  0.248800  0.320100  0.027000  1
  O  O572  1  0.751200  0.679900  0.973000  1
  O  O573  1  0.299700  0.230700  0.827400  1
  O  O574  1  0.700300  0.769300  0.172600  1
  O  O575  1  0.695000  0.285900  0.787100  1
  O  O576  1  0.305000  0.714100  0.212900  1
  O  O577  1  0.114100  0.414200  0.978900  1
  O  O578  1  0.885900  0.585800  0.021100  1
  O  O579  1  0.126500  0.359700  0.866000  1
  O  O580  1  0.873500  0.640300  0.134000  1
  O  O581  1  0.975500  0.443700  0.090500  1
  O  O582  1  0.024500  0.556300  0.909500  1
  O  O583  1  0.444700  0.723800  0.689900  1
  O  O584  1  0.555300  0.276200  0.310100  1
  O  O585  1  0.501500  0.821200  0.703600  1
  O  O586  1  0.498500  0.178800  0.296400  1
  O  O587  1  0.533800  0.641600  0.788900  1
  O  O588  1  0.466200  0.358400  0.211100  1
  O  O589  1  0.611800  0.685000  0.705200  1
  O  O590  1  0.388200  0.315000  0.294800  1
  O  O591  1  0.981000  0.215800  0.876100  1
  O  O592  1  0.019000  0.784200  0.123900  1
  O  O593  1  0.071600  0.252800  0.802800  1
  O  O594  1  0.928400  0.747200  0.197200  1
  O  O595  1  0.755200  0.422400  0.822500  1
  O  O596  1  0.244800  0.577600  0.177500  1
  O  O597  1  0.102500  0.104000  0.817500  1
  O  O598  1  0.897500  0.896000  0.182500  1
  O  O599  1  0.204400  0.157100  0.846000  1
  O  O600  1  0.795600  0.842900  0.154000  1
  O  O601  1  0.109200  0.113400  0.938800  1
  O  O602  1  0.890800  0.886600  0.061200  1
  O  O603  1  0.094300  0.242200  0.928500  1
  O  O604  1  0.905700  0.757800  0.071500  1
  O  O605  1  0.007600  0.183200  0.375600  1
  O  O606  1  0.992400  0.816800  0.624400  1
  O  O607  1  0.012400  0.304800  0.351100  1
  O  O608  1  0.987600  0.695200  0.648900  1
  O  O609  1  0.062600  0.265100  0.141900  1
  O  O610  1  0.937400  0.734900  0.858100  1
  O  O611  1  0.932900  0.221200  0.485400  1
  O  O612  1  0.067100  0.778800  0.514600  1
  O  O613  1  0.068800  0.242100  0.466300  1
  O  O614  1  0.931200  0.757900  0.533700  1
  O  O615  1  0.866900  0.308900  0.384000  1
  O  O616  1  0.133100  0.691100  0.616000  1
  O  O617  1  0.927600  0.361200  0.459600  1
  O  O618  1  0.072400  0.638800  0.540400  1
  O  O619  1  0.492600  0.814900  0.359500  1
  O  O620  1  0.507400  0.185100  0.640500  1
  O  O621  1  0.442900  0.744200  0.292800  1
  O  O622  1  0.557100  0.255800  0.707200  1
  O  O623  1  0.658000  0.528500  0.342700  1
  O  O624  1  0.342000  0.471500  0.657300  1
  O  O625  1  0.387300  0.943900  0.323000  1
  O  O626  1  0.612700  0.056100  0.677000  1
  O  O627  1  0.327100  0.850700  0.355300  1
  O  O628  1  0.672900  0.149300  0.644700  1
  O  O629  1  0.332500  0.873300  0.235200  1
  O  O630  1  0.667500  0.126700  0.764800  1
  O  O631  1  0.481700  0.849000  0.232800  1
  O  O632  1  0.518300  0.151000  0.767200  1
  O  O633  1  0.416000  0.776300  0.803900  1
  O  O634  1  0.584000  0.223700  0.196100  1
  O  O635  1  0.562500  0.753400  0.815800  1
  O  O636  1  0.437500  0.246600  0.184200  1
  O  O637  1  0.513300  0.808100  0.023200  1
  O  O638  1  0.486700  0.191900  0.976800  1
  O  O639  1  0.281300  0.311400  0.147500  1
  O  O640  1  0.718700  0.688600  0.852500  1
