# generated using pymatgen
data_Mo4As3H132C173NO37
_symmetry_space_group_name_H-M   'P 1'
_cell_length_a   18.80660000
_cell_length_b   21.12750000
_cell_length_c   21.79790000
_cell_angle_alpha   90.18000000
_cell_angle_beta   109.88300000
_cell_angle_gamma   92.25700000
_symmetry_Int_Tables_number   1
_chemical_formula_structural   Mo4As3H132C173NO37
_chemical_formula_sum   'Mo8 As6 H264 C346 N2 O74'
_cell_volume   8137.22519973
_cell_formula_units_Z   2
loop_
 _symmetry_equiv_pos_site_id
 _symmetry_equiv_pos_as_xyz
  1  'x, y, z'
loop_
 _atom_site_type_symbol
 _atom_site_label
 _atom_site_symmetry_multiplicity
 _atom_site_fract_x
 _atom_site_fract_y
 _atom_site_fract_z
 _atom_site_occupancy
  Mo  Mo1  1  0.321950  0.753120  0.786280  1
  Mo  Mo2  1  0.678050  0.246880  0.213720  1
  Mo  Mo3  1  0.311740  0.343150  0.640750  1
  Mo  Mo4  1  0.688260  0.656850  0.359250  1
  Mo  Mo5  1  0.229520  0.440960  0.189770  1
  Mo  Mo6  1  0.770480  0.559040  0.810230  1
  Mo  Mo7  1  0.163560  0.847630  0.304840  1
  Mo  Mo8  1  0.836440  0.152370  0.695160  1
  As  As9  1  0.770490  0.381260  0.621880  1
  As  As10  1  0.229510  0.618740  0.378120  1
  As  As11  1  0.988490  0.099680  0.385300  1
  As  As12  1  0.011510  0.900320  0.614700  1
  As  As13  1  0.280930  0.061150  0.970440  1
  As  As14  1  0.719070  0.938850  0.029560  1
  H  H15  1  0.221800  0.958900  0.782000  1
  H  H16  1  0.778200  0.041100  0.218000  1
  H  H17  1  0.430000  0.920900  0.712300  1
  H  H18  1  0.570000  0.079100  0.287700  1
  H  H19  1  0.421900  0.153800  0.652100  1
  H  H20  1  0.578100  0.846200  0.347900  1
  H  H21  1  0.219900  0.166700  0.733200  1
  H  H22  1  0.780100  0.833300  0.266800  1
  H  H23  1  0.532400  0.087200  0.735000  1
  H  H24  1  0.467600  0.912800  0.265000  1
  H  H25  1  0.623100  0.077800  0.684600  1
  H  H26  1  0.376900  0.922200  0.315400  1
  H  H27  1  0.595900  0.017800  0.589700  1
  H  H28  1  0.404100  0.982200  0.410300  1
  H  H29  1  0.475300  0.970700  0.540900  1
  H  H30  1  0.524700  0.029300  0.459100  1
  H  H31  1  0.383400  0.978300  0.590000  1
  H  H32  1  0.616600  0.021700  0.410000  1
  H  H33  1  0.409400  0.339100  0.874300  1
  H  H34  1  0.590600  0.660900  0.125700  1
  H  H35  1  0.198500  0.457700  0.756500  1
  H  H36  1  0.801500  0.542300  0.243500  1
  H  H37  1  0.168800  0.501900  0.977800  1
  H  H38  1  0.831200  0.498100  0.022200  1
  H  H39  1  0.377000  0.370600  0.065900  1
  H  H40  1  0.623000  0.629400  0.934100  1
  H  H41  1  0.226800  0.570700  0.827800  1
  H  H42  1  0.773200  0.429300  0.172200  1
  H  H43  1  0.127300  0.634800  0.774000  1
  H  H44  1  0.872700  0.365200  0.226000  1
  H  H45  1  0.005200  0.606500  0.768000  1
  H  H46  1  0.994800  0.393500  0.232000  1
  H  H47  1  0.979600  0.513900  0.816800  1
  H  H48  1  0.020400  0.486100  0.183200  1
  H  H49  1  0.080100  0.448800  0.870500  1
  H  H50  1  0.919900  0.551200  0.129500  1
  H  H51  1  0.145400  0.227000  0.115000  1
  H  H52  1  0.854600  0.773000  0.885000  1
  H  H53  1  0.307800  0.278700  0.330400  1
  H  H54  1  0.692200  0.721300  0.669600  1
  H  H55  1  0.260900  0.044700  0.383300  1
  H  H56  1  0.739100  0.955300  0.616700  1
  H  H57  1  0.112200  0.021800  0.160100  1
  H  H58  1  0.887800  0.978200  0.839900  1
  H  H59  1  0.241300  0.233600  0.406400  1
  H  H60  1  0.758700  0.766400  0.593600  1
  H  H61  1  0.324100  0.260000  0.510300  1
  H  H62  1  0.675900  0.740000  0.489700  1
  H  H63  1  0.436900  0.208000  0.552900  1
  H  H64  1  0.563100  0.792000  0.447100  1
  H  H65  1  0.468000  0.129900  0.491700  1
  H  H66  1  0.532000  0.870100  0.508300  1
  H  H67  1  0.386400  0.104700  0.387100  1
  H  H68  1  0.613600  0.895300  0.612900  1
  H  H69  1  0.335200  0.871500  0.185700  1
  H  H70  1  0.664800  0.128500  0.814300  1
  H  H71  1  0.120100  0.730000  0.119400  1
  H  H72  1  0.879900  0.270000  0.880600  1
  H  H73  1  0.184000  0.690600  0.912700  1
  H  H74  1  0.816000  0.309400  0.087300  1
  H  H75  1  0.393000  0.834500  0.005100  1
  H  H76  1  0.607000  0.165500  0.994900  1
  H  H77  1  0.057500  0.751500  0.946200  1
  H  H78  1  0.942500  0.248500  0.053800  1
  H  H79  1  0.948700  0.685900  0.912200  1
  H  H80  1  0.051300  0.314100  0.087800  1
  H  H81  1  0.953400  0.581000  0.944500  1
  H  H82  1  0.046600  0.419000  0.055500  1
  H  H83  1  0.065800  0.546200  0.017500  1
  H  H84  1  0.934200  0.453800  0.982500  1
  H  H85  1  0.172600  0.615000  0.054500  1
  H  H86  1  0.827400  0.385000  0.945500  1
  H  H87  1  0.834100  0.503300  0.690700  1
  H  H88  1  0.165900  0.496700  0.309300  1
  H  H89  1  0.819200  0.611100  0.663000  1
  H  H90  1  0.180800  0.388900  0.337000  1
  H  H91  1  0.744400  0.638900  0.559800  1
  H  H92  1  0.255600  0.361100  0.440200  1
  H  H93  1  0.682500  0.562100  0.480700  1
  H  H94  1  0.317500  0.437900  0.519300  1
  H  H95  1  0.692800  0.454900  0.506600  1
  H  H96  1  0.307200  0.545100  0.493400  1
  H  H97  1  0.913300  0.311300  0.662000  1
  H  H98  1  0.086700  0.688700  0.338000  1
  H  H99  1  0.014000  0.301100  0.762800  1
  H  H100  1  0.986000  0.698900  0.237200  1
  H  H101  1  0.008200  0.341900  0.853400  1
  H  H102  1  0.991800  0.658100  0.146600  1
  H  H103  1  0.907300  0.401700  0.854500  1
  H  H104  1  0.092700  0.598300  0.145500  1
  H  H105  1  0.807000  0.417500  0.758300  1
  H  H106  1  0.193000  0.582500  0.241700  1
  H  H107  1  0.611900  0.422200  0.586300  1
  H  H108  1  0.388100  0.577800  0.413700  1
  H  H109  1  0.502300  0.382400  0.602200  1
  H  H110  1  0.497700  0.617600  0.397800  1
  H  H111  1  0.503100  0.288100  0.655200  1
  H  H112  1  0.496900  0.711900  0.344800  1
  H  H113  1  0.610900  0.231600  0.693000  1
  H  H114  1  0.389100  0.768400  0.307000  1
  H  H115  1  0.725500  0.273600  0.683500  1
  H  H116  1  0.274500  0.726400  0.316500  1
  H  H117  1  0.890100  0.383100  0.567600  1
  H  H118  1  0.109900  0.616900  0.432400  1
  H  H119  1  0.915400  0.335900  0.479100  1
  H  H120  1  0.084600  0.664100  0.520900  1
  H  H121  1  0.819700  0.268700  0.408900  1
  H  H122  1  0.180300  0.731300  0.591100  1
  H  H123  1  0.704800  0.251100  0.421300  1
  H  H124  1  0.295200  0.748900  0.578700  1
  H  H125  1  0.684600  0.292400  0.516400  1
  H  H126  1  0.315400  0.707600  0.483600  1
  H  H127  1  0.823700  0.094000  0.355700  1
  H  H128  1  0.176300  0.906000  0.644300  1
  H  H129  1  0.742600  0.113100  0.413800  1
  H  H130  1  0.257400  0.886900  0.586200  1
  H  H131  1  0.794300  0.144500  0.525500  1
  H  H132  1  0.205700  0.855500  0.474500  1
  H  H133  1  0.921800  0.157100  0.575300  1
  H  H134  1  0.078200  0.842900  0.424700  1
  H  H135  1  0.004200  0.142900  0.516800  1
  H  H136  1  0.995800  0.857100  0.483200  1
  H  H137  1  0.100900  0.188000  0.473100  1
  H  H138  1  0.899100  0.812000  0.526900  1
  H  H139  1  0.222800  0.184400  0.545400  1
  H  H140  1  0.777200  0.815600  0.454600  1
  H  H141  1  0.287700  0.093100  0.557500  1
  H  H142  1  0.712300  0.906900  0.442500  1
  H  H143  1  0.227500  0.999100  0.495100  1
  H  H144  1  0.772500  0.000900  0.504900  1
  H  H145  1  0.100800  0.003100  0.427000  1
  H  H146  1  0.899200  0.996900  0.573000  1
  H  H147  1  0.993700  0.036200  0.267300  1
  H  H148  1  0.006300  0.963800  0.732700  1
  H  H149  1  0.963000  0.932800  0.222100  1
  H  H150  1  0.037000  0.067200  0.777900  1
  H  H151  1  0.921100  0.856200  0.279500  1
  H  H152  1  0.078900  0.143800  0.720500  1
  H  H153  1  0.889300  0.880600  0.365400  1
  H  H154  1  0.110700  0.119400  0.634600  1
  H  H155  1  0.917600  0.981500  0.411700  1
  H  H156  1  0.082400  0.018500  0.588300  1
  H  H157  1  0.872900  0.172000  0.293900  1
  H  H158  1  0.127100  0.828000  0.706100  1
  H  H159  1  0.867100  0.246500  0.212600  1
  H  H160  1  0.132900  0.753500  0.787400  1
  H  H161  1  0.976000  0.273900  0.189100  1
  H  H162  1  0.024000  0.726100  0.810900  1
  H  H163  1  0.094300  0.242400  0.259300  1
  H  H164  1  0.905700  0.757600  0.740700  1
  H  H165  1  0.099200  0.167000  0.337400  1
  H  H166  1  0.900800  0.833000  0.662600  1
  H  H167  1  0.363300  0.134900  0.894600  1
  H  H168  1  0.636700  0.865100  0.105400  1
  H  H169  1  0.455300  0.113100  0.848300  1
  H  H170  1  0.544700  0.886900  0.151700  1
  H  H171  1  0.509300  0.013900  0.862300  1
  H  H172  1  0.490700  0.986100  0.137700  1
  H  H173  1  0.471200  0.936500  0.922600  1
  H  H174  1  0.528800  0.063500  0.077400  1
  H  H175  1  0.379200  0.958300  0.968900  1
  H  H176  1  0.620800  0.041700  0.031100  1
  H  H177  1  0.266700  0.925600  0.929700  1
  H  H178  1  0.733300  0.074400  0.070300  1
  H  H179  1  0.165600  0.852400  0.883500  1
  H  H180  1  0.834400  0.147600  0.116500  1
  H  H181  1  0.041100  0.883000  0.860500  1
  H  H182  1  0.958900  0.117000  0.139500  1
  H  H183  1  0.017700  0.986700  0.883800  1
  H  H184  1  0.982300  0.013300  0.116200  1
  H  H185  1  0.118800  0.059900  0.930000  1
  H  H186  1  0.881200  0.940100  0.070000  1
  H  H187  1  0.238300  0.993800  0.077200  1
  H  H188  1  0.761700  0.006200  0.922800  1
  H  H189  1  0.291500  0.992700  0.187200  1
  H  H190  1  0.708500  0.007300  0.812800  1
  H  H191  1  0.394100  0.058300  0.245300  1
  H  H192  1  0.605900  0.941700  0.754700  1
  H  H193  1  0.458200  0.119200  0.188200  1
  H  H194  1  0.541800  0.880800  0.811800  1
  H  H195  1  0.405900  0.122400  0.075800  1
  H  H196  1  0.594100  0.877600  0.924200  1
  H  H197  1  0.263100  0.175200  0.039400  1
  H  H198  1  0.736900  0.824800  0.960600  1
  H  H199  1  0.224800  0.278400  0.012000  1
  H  H200  1  0.775200  0.721600  0.988000  1
  H  H201  1  0.185100  0.309100  0.902900  1
  H  H202  1  0.814900  0.690900  0.097100  1
  H  H203  1  0.183600  0.236400  0.821200  1
  H  H204  1  0.816400  0.763600  0.178800  1
  H  H205  1  0.221900  0.133200  0.848600  1
  H  H206  1  0.778100  0.866800  0.151400  1
  H  H207  1  0.512400  0.559100  0.268300  1
  H  H208  1  0.487600  0.440900  0.731700  1
  H  H209  1  0.544000  0.554600  0.209200  1
  H  H210  1  0.456000  0.445400  0.790800  1
  H  H211  1  0.391800  0.520000  0.197600  1
  H  H212  1  0.608200  0.480000  0.802400  1
  H  H213  1  0.424400  0.520400  0.138400  1
  H  H214  1  0.575600  0.479600  0.861600  1
  H  H215  1  0.420800  0.630900  0.213000  1
  H  H216  1  0.579200  0.369100  0.787000  1
  H  H217  1  0.449800  0.630500  0.152000  1
  H  H218  1  0.550200  0.369500  0.848000  1
  H  H219  1  0.327500  0.667100  0.121000  1
  H  H220  1  0.672500  0.332900  0.879000  1
  H  H221  1  0.298000  0.602200  0.143500  1
  H  H222  1  0.702000  0.397800  0.856500  1
  H  H223  1  0.327100  0.602300  0.082600  1
  H  H224  1  0.672900  0.397700  0.917400  1
  H  H225  1  0.537900  0.383800  0.202200  1
  H  H226  1  0.462100  0.616200  0.797800  1
  H  H227  1  0.469600  0.424800  0.159700  1
  H  H228  1  0.530400  0.575200  0.840300  1
  H  H229  1  0.621200  0.445300  0.174600  1
  H  H230  1  0.378800  0.554700  0.825400  1
  H  H231  1  0.556800  0.492700  0.137600  1
  H  H232  1  0.443200  0.507300  0.862400  1
  H  H233  1  0.495700  0.414000  0.060100  1
  H  H234  1  0.504300  0.586000  0.939900  1
  H  H235  1  0.555700  0.364000  0.098200  1
  H  H236  1  0.444300  0.636000  0.901800  1
  H  H237  1  0.580200  0.396900  0.003900  1
  H  H238  1  0.419800  0.603100  0.996100  1
  H  H239  1  0.650600  0.418400  0.067000  1
  H  H240  1  0.349400  0.581600  0.933000  1
  H  H241  1  0.590700  0.469000  0.029200  1
  H  H242  1  0.409300  0.531000  0.970800  1
  H  H243  1  0.426800  0.432100  0.250800  1
  H  H244  1  0.573200  0.567900  0.749200  1
  H  H245  1  0.496000  0.392700  0.294800  1
  H  H246  1  0.504000  0.607300  0.705200  1
  H  H247  1  0.455000  0.511900  0.329200  1
  H  H248  1  0.545000  0.488100  0.670800  1
  H  H249  1  0.529900  0.478200  0.372000  1
  H  H250  1  0.470100  0.521800  0.628000  1
  H  H251  1  0.421400  0.464500  0.409500  1
  H  H252  1  0.578600  0.535500  0.590500  1
  H  H253  1  0.383000  0.418900  0.347400  1
  H  H254  1  0.617000  0.581100  0.652600  1
  H  H255  1  0.436500  0.362000  0.436000  1
  H  H256  1  0.563500  0.638000  0.564000  1
  H  H257  1  0.516600  0.398100  0.447900  1
  H  H258  1  0.483400  0.601900  0.552100  1
  H  H259  1  0.479800  0.352900  0.385100  1
  H  H260  1  0.520200  0.647100  0.614900  1
  H  H261  1  0.615000  0.506700  0.326100  1
  H  H262  1  0.385000  0.493300  0.673900  1
  H  H263  1  0.644100  0.487900  0.268100  1
  H  H264  1  0.355900  0.512100  0.731900  1
  H  H265  1  0.643100  0.378900  0.298100  1
  H  H266  1  0.356900  0.621100  0.701900  1
  H  H267  1  0.615500  0.398700  0.357300  1
  H  H268  1  0.384500  0.601300  0.642700  1
  H  H269  1  0.733900  0.472300  0.393200  1
  H  H270  1  0.266100  0.527700  0.606800  1
  H  H271  1  0.746200  0.398400  0.408900  1
  H  H272  1  0.253800  0.601600  0.591100  1
  H  H273  1  0.825900  0.437400  0.359200  1
  H  H274  1  0.174100  0.562600  0.640800  1
  H  H275  1  0.755000  0.457000  0.298200  1
  H  H276  1  0.245000  0.543000  0.701800  1
  H  H277  1  0.768700  0.383900  0.315000  1
  H  H278  1  0.231300  0.616100  0.685000  1
  C  C279  1  0.636300  0.134300  0.518900  1
  C  C280  1  0.363700  0.865700  0.481100  1
  C  C281  1  0.523900  0.222700  0.808400  1
  C  C282  1  0.476100  0.777300  0.191600  1
  C  C283  1  0.453900  0.245700  0.994000  1
  C  C284  1  0.546100  0.754300  0.006000  1
  C  C285  1  0.399800  0.267800  0.120100  1
  C  C286  1  0.600200  0.732200  0.879900  1
  C  C287  1  0.063300  0.267400  0.630600  1
  C  C288  1  0.936700  0.732600  0.369400  1
  C  C289  1  0.022700  0.172300  0.880700  1
  C  C290  1  0.977300  0.827700  0.119300  1
  C  C291  1  0.114500  0.460600  0.518100  1
  C  C292  1  0.885500  0.539400  0.481900  1
  C  C293  1  0.476000  0.765000  0.646000  1
  C  C294  1  0.524000  0.235000  0.354000  1
  C  C295  1  0.298300  0.998300  0.745300  1
  C  C296  1  0.701700  0.001700  0.254700  1
  C  C297  1  0.263700  0.951000  0.768500  1
  C  C298  1  0.736300  0.049000  0.231500  1
  C  C299  1  0.292100  0.889700  0.772000  1
  C  C300  1  0.707900  0.110300  0.228000  1
  C  C301  1  0.356300  0.879900  0.751700  1
  C  C302  1  0.643700  0.120100  0.248300  1
  C  C303  1  0.388500  0.928400  0.726400  1
  C  C304  1  0.611500  0.071600  0.273600  1
  C  C305  1  0.358500  0.990200  0.721600  1
  C  C306  1  0.641500  0.009800  0.278400  1
  C  C307  1  0.388200  0.042400  0.695400  1
  C  C308  1  0.611800  0.957600  0.304600  1
  C  C309  1  0.357400  0.101900  0.694900  1
  C  C310  1  0.642600  0.898100  0.305100  1
  C  C311  1  0.380900  0.156100  0.668000  1
  C  C312  1  0.619100  0.843900  0.332000  1
  C  C313  1  0.345600  0.211700  0.664700  1
  C  C314  1  0.654400  0.788300  0.335300  1
  C  C315  1  0.283100  0.215900  0.687100  1
  C  C316  1  0.716900  0.784100  0.312900  1
  C  C317  1  0.259800  0.163800  0.716000  1
  C  C318  1  0.740200  0.836200  0.284000  1
  C  C319  1  0.296600  0.107700  0.718700  1
  C  C320  1  0.703400  0.892300  0.281300  1
  C  C321  1  0.447600  0.033200  0.667300  1
  C  C322  1  0.552400  0.966800  0.332700  1
  C  C323  1  0.520500  0.063200  0.695600  1
  C  C324  1  0.479500  0.936800  0.304400  1
  C  C325  1  0.574500  0.057400  0.665700  1
  C  C326  1  0.425500  0.942600  0.334300  1
  C  C327  1  0.558300  0.022500  0.609300  1
  C  C328  1  0.441700  0.977500  0.390700  1
  C  C329  1  0.486800  0.993900  0.580800  1
  C  C330  1  0.513200  0.006100  0.419200  1
  C  C331  1  0.431900  0.998700  0.609800  1
  C  C332  1  0.568100  0.001300  0.390200  1
  C  C333  1  0.324500  0.393200  0.880500  1
  C  C334  1  0.675500  0.606800  0.119500  1
  C  C335  1  0.366800  0.362200  0.850100  1
  C  C336  1  0.633200  0.637800  0.149900  1
  C  C337  1  0.343800  0.366100  0.780600  1
  C  C338  1  0.656200  0.633900  0.219400  1
  C  C339  1  0.278200  0.401400  0.746700  1
  C  C340  1  0.721800  0.598600  0.253300  1
  C  C341  1  0.240300  0.433500  0.779800  1
  C  C342  1  0.759700  0.566500  0.220200  1
  C  C343  1  0.263500  0.430600  0.849000  1
  C  C344  1  0.736500  0.569400  0.151000  1
  C  C345  1  0.225400  0.460500  0.886900  1
  C  C346  1  0.774600  0.539500  0.113100  1
  C  C347  1  0.247300  0.450200  0.953600  1
  C  C348  1  0.752700  0.549800  0.046400  1
  C  C349  1  0.209700  0.474700  0.995200  1
  C  C350  1  0.790300  0.525300  0.004800  1
  C  C351  1  0.232000  0.459500  0.059300  1
  C  C352  1  0.768000  0.540500  0.940700  1
  C  C353  1  0.297400  0.420800  0.088400  1
  C  C354  1  0.702600  0.579200  0.911600  1
  C  C355  1  0.334800  0.396400  0.048300  1
  C  C356  1  0.665200  0.603600  0.951700  1
  C  C357  1  0.309200  0.410700  0.983100  1
  C  C358  1  0.690800  0.589300  0.016900  1
  C  C359  1  0.163100  0.502600  0.853600  1
  C  C360  1  0.836900  0.497400  0.146400  1
  C  C361  1  0.176700  0.558600  0.825300  1
  C  C362  1  0.823300  0.441400  0.174700  1
  C  C363  1  0.117600  0.596800  0.793500  1
  C  C364  1  0.882400  0.403200  0.206500  1
  C  C365  1  0.045300  0.580100  0.790200  1
  C  C366  1  0.954700  0.419900  0.209800  1
  C  C367  1  0.029800  0.525100  0.818800  1
  C  C368  1  0.970200  0.474900  0.181200  1
  C  C369  1  0.089800  0.486600  0.850600  1
  C  C370  1  0.910200  0.513400  0.149400  1
  C  C371  1  0.195500  0.191600  0.206800  1
  C  C372  1  0.804500  0.808400  0.793200  1
  C  C373  1  0.175600  0.238000  0.158700  1
  C  C374  1  0.824400  0.762000  0.841300  1
  C  C375  1  0.201200  0.301500  0.176500  1
  C  C376  1  0.798800  0.698500  0.823500  1
  C  C377  1  0.250300  0.315000  0.243000  1
  C  C378  1  0.749700  0.685000  0.757000  1
  C  C379  1  0.272600  0.268600  0.288200  1
  C  C380  1  0.727400  0.731400  0.711800  1
  C  C381  1  0.243200  0.204500  0.272100  1
  C  C382  1  0.756800  0.795500  0.727900  1
  C  C383  1  0.256700  0.155500  0.316100  1
  C  C384  1  0.743300  0.844500  0.683900  1
  C  C385  1  0.224300  0.094700  0.296700  1
  C  C386  1  0.775700  0.905300  0.703300  1
  C  C387  1  0.231600  0.040300  0.338300  1
  C  C388  1  0.768400  0.959700  0.661700  1
  C  C389  1  0.197900  0.983600  0.314800  1
  C  C390  1  0.802100  0.016400  0.685200  1
  C  C391  1  0.152400  0.975700  0.246300  1
  C  C392  1  0.847600  0.024300  0.753700  1
  C  C393  1  0.142500  0.026500  0.204800  1
  C  C394  1  0.857500  0.973500  0.795200  1
  C  C395  1  0.177800  0.084500  0.229800  1
  C  C396  1  0.822200  0.915500  0.770200  1
  C  C397  1  0.306700  0.168200  0.384500  1
  C  C398  1  0.693300  0.831800  0.615500  1
  C  C399  1  0.288000  0.213300  0.423200  1
  C  C400  1  0.712000  0.786700  0.576800  1
  C  C401  1  0.336500  0.228400  0.485000  1
  C  C402  1  0.663500  0.771600  0.515000  1
  C  C403  1  0.403400  0.197400  0.510100  1
  C  C404  1  0.596600  0.802600  0.489900  1
  C  C405  1  0.422200  0.151300  0.473900  1
  C  C406  1  0.577800  0.848700  0.526100  1
  C  C407  1  0.373900  0.136700  0.411900  1
  C  C408  1  0.626100  0.863300  0.588100  1
  C  C409  1  0.272300  0.810000  0.114200  1
  C  C410  1  0.727700  0.190000  0.885800  1
  C  C411  1  0.291900  0.843300  0.172400  1
  C  C412  1  0.708100  0.156700  0.827600  1
  C  C413  1  0.246800  0.835100  0.211900  1
  C  C414  1  0.753200  0.164900  0.788100  1
  C  C415  1  0.181200  0.791500  0.189600  1
  C  C416  1  0.818800  0.208500  0.810400  1
  C  C417  1  0.163200  0.758500  0.132600  1
  C  C418  1  0.836800  0.241500  0.867400  1
  C  C419  1  0.208700  0.766300  0.092500  1
  C  C420  1  0.791300  0.233700  0.907500  1
  C  C421  1  0.191300  0.736200  0.031800  1
  C  C422  1  0.808700  0.263800  0.968200  1
  C  C423  1  0.237700  0.748200  0.993800  1
  C  C424  1  0.762300  0.251800  0.006200  1
  C  C425  1  0.225100  0.720500  0.930800  1
  C  C426  1  0.774900  0.279500  0.069200  1
  C  C427  1  0.271100  0.736400  0.896900  1
  C  C428  1  0.728900  0.263600  0.103100  1
  C  C429  1  0.336700  0.778900  0.924200  1
  C  C430  1  0.663300  0.221100  0.075800  1
  C  C431  1  0.350500  0.806300  0.985900  1
  C  C432  1  0.649500  0.193700  0.014100  1
  C  C433  1  0.300700  0.791200  0.017900  1
  C  C434  1  0.699300  0.208800  0.982100  1
  C  C435  1  0.123100  0.691300  0.006400  1
  C  C436  1  0.876900  0.308700  0.993600  1
  C  C437  1  0.059100  0.709900  0.962800  1
  C  C438  1  0.940900  0.290100  0.037200  1
  C  C439  1  0.994600  0.670200  0.940900  1
  C  C440  1  0.005400  0.329800  0.059100  1
  C  C441  1  0.996900  0.608900  0.960400  1
  C  C442  1  0.003100  0.391100  0.039600  1
  C  C443  1  0.062900  0.588700  0.003000  1
  C  C444  1  0.937100  0.411300  0.997000  1
  C  C445  1  0.126500  0.629900  0.025500  1
  C  C446  1  0.873500  0.370100  0.974500  1
  C  C447  1  0.763900  0.469800  0.601400  1
  C  C448  1  0.236100  0.530200  0.398600  1
  C  C449  1  0.802700  0.515300  0.648500  1
  C  C450  1  0.197300  0.484700  0.351500  1
  C  C451  1  0.794100  0.579000  0.631700  1
  C  C452  1  0.205900  0.421000  0.368300  1
  C  C453  1  0.749800  0.595400  0.570400  1
  C  C454  1  0.250200  0.404600  0.429600  1
  C  C455  1  0.712300  0.549700  0.523200  1
  C  C456  1  0.287700  0.450300  0.476800  1
  C  C457  1  0.718600  0.486600  0.538200  1
  C  C458  1  0.281400  0.513400  0.461800  1
  C  C459  1  0.851600  0.367700  0.700400  1
  C  C460  1  0.148400  0.632300  0.299600  1
  C  C461  1  0.911900  0.331000  0.700800  1
  C  C462  1  0.088100  0.669000  0.299200  1
  C  C463  1  0.971200  0.324200  0.761500  1
  C  C464  1  0.028800  0.675800  0.238500  1
  C  C465  1  0.968100  0.348300  0.813600  1
  C  C466  1  0.031900  0.651700  0.186400  1
  C  C467  1  0.907600  0.384000  0.814500  1
  C  C468  1  0.092400  0.616000  0.185500  1
  C  C469  1  0.848700  0.393600  0.758000  1
  C  C470  1  0.151300  0.606400  0.242000  1
  C  C471  1  0.678700  0.350200  0.631500  1
  C  C472  1  0.321300  0.649800  0.368500  1
  C  C473  1  0.612300  0.383400  0.608400  1
  C  C474  1  0.387700  0.616600  0.391600  1
  C  C475  1  0.547500  0.359800  0.617700  1
  C  C476  1  0.452500  0.640200  0.382300  1
  C  C477  1  0.548200  0.304000  0.649200  1
  C  C478  1  0.451800  0.696000  0.350800  1
  C  C479  1  0.611900  0.270900  0.672300  1
  C  C480  1  0.388100  0.729100  0.327700  1
  C  C481  1  0.679800  0.295100  0.665200  1
  C  C482  1  0.320200  0.704900  0.334800  1
  C  C483  1  0.787400  0.341600  0.549700  1
  C  C484  1  0.212600  0.658400  0.450300  1
  C  C485  1  0.853400  0.354800  0.538700  1
  C  C486  1  0.146600  0.645200  0.461300  1
  C  C487  1  0.868700  0.327800  0.486200  1
  C  C488  1  0.131300  0.672200  0.513800  1
  C  C489  1  0.811000  0.288400  0.444800  1
  C  C490  1  0.189000  0.711600  0.555200  1
  C  C491  1  0.743200  0.276300  0.452600  1
  C  C492  1  0.256800  0.723700  0.547400  1
  C  C493  1  0.730300  0.302000  0.508000  1
  C  C494  1  0.269700  0.698000  0.492000  1
  C  C495  1  0.921800  0.116700  0.432000  1
  C  C496  1  0.078200  0.883300  0.568000  1
  C  C497  1  0.843400  0.107500  0.400200  1
  C  C498  1  0.156600  0.892500  0.599800  1
  C  C499  1  0.795800  0.118300  0.434500  1
  C  C500  1  0.204200  0.881700  0.565500  1
  C  C501  1  0.826900  0.137300  0.501400  1
  C  C502  1  0.173100  0.862700  0.498600  1
  C  C503  1  0.901800  0.145100  0.530500  1
  C  C504  1  0.098200  0.854900  0.469500  1
  C  C505  1  0.951100  0.135900  0.496100  1
  C  C506  1  0.048900  0.864100  0.503900  1
  C  C507  1  0.090800  0.094900  0.444900  1
  C  C508  1  0.909200  0.905100  0.555100  1
  C  C509  1  0.126800  0.149500  0.479100  1
  C  C510  1  0.873200  0.850500  0.520900  1
  C  C511  1  0.198900  0.147500  0.520900  1
  C  C512  1  0.801100  0.852500  0.479100  1
  C  C513  1  0.237100  0.093800  0.528200  1
  C  C514  1  0.762900  0.906200  0.471800  1
  C  C515  1  0.200900  0.037000  0.491400  1
  C  C516  1  0.799100  0.963000  0.508600  1
  C  C517  1  0.126700  0.039800  0.450800  1
  C  C518  1  0.873300  0.960200  0.549200  1
  C  C519  1  0.959500  0.019600  0.343400  1
  C  C520  1  0.040500  0.980400  0.656600  1
  C  C521  1  0.972800  0.004900  0.288300  1
  C  C522  1  0.027200  0.995100  0.711700  1
  C  C523  1  0.955800  0.943500  0.261900  1
  C  C524  1  0.044200  0.056500  0.738100  1
  C  C525  1  0.928400  0.898800  0.295100  1
  C  C526  1  0.071600  0.101200  0.704900  1
  C  C527  1  0.912100  0.912100  0.346200  1
  C  C528  1  0.087900  0.087900  0.653800  1
  C  C529  1  0.927900  0.972000  0.373000  1
  C  C530  1  0.072100  0.028000  0.627000  1
  C  C531  1  0.986000  0.162600  0.321400  1
  C  C532  1  0.014000  0.837400  0.678600  1
  C  C533  1  0.917500  0.185600  0.285700  1
  C  C534  1  0.082500  0.814400  0.714300  1
  C  C535  1  0.914000  0.229300  0.237100  1
  C  C536  1  0.086000  0.770700  0.762900  1
  C  C537  1  0.978800  0.247300  0.224800  1
  C  C538  1  0.021200  0.752700  0.775200  1
  C  C539  1  0.049000  0.226400  0.264800  1
  C  C540  1  0.951000  0.773600  0.735200  1
  C  C541  1  0.052100  0.183100  0.311600  1
  C  C542  1  0.947900  0.816900  0.688400  1
  C  C543  1  0.362600  0.048600  0.936100  1
  C  C544  1  0.637400  0.951400  0.063900  1
  C  C545  1  0.385200  0.094600  0.900300  1
  C  C546  1  0.614800  0.905400  0.099700  1
  C  C547  1  0.439900  0.081600  0.872800  1
  C  C548  1  0.560100  0.918400  0.127200  1
  C  C549  1  0.471900  0.022700  0.881100  1
  C  C550  1  0.528100  0.977300  0.118900  1
  C  C551  1  0.449300  0.976800  0.916900  1
  C  C552  1  0.550700  0.023200  0.083100  1
  C  C553  1  0.394600  0.989700  0.944400  1
  C  C554  1  0.605400  0.010300  0.055600  1
  C  C555  1  0.202300  0.999600  0.934200  1
  C  C556  1  0.797700  0.000400  0.065800  1
  C  C557  1  0.216100  0.938000  0.920400  1
  C  C558  1  0.783900  0.062000  0.079600  1
  C  C559  1  0.156100  0.894500  0.892900  1
  C  C560  1  0.843900  0.105500  0.107100  1
  C  C561  1  0.082100  0.912700  0.879300  1
  C  C562  1  0.917900  0.087300  0.120700  1
  C  C563  1  0.068200  0.974300  0.893100  1
  C  C564  1  0.931800  0.025700  0.106900  1
  C  C565  1  0.128300  0.017800  0.920600  1
  C  C566  1  0.871700  0.982200  0.079400  1
  C  C567  1  0.318500  0.055900  0.064100  1
  C  C568  1  0.681500  0.944100  0.935900  1
  C  C569  1  0.283000  0.018900  0.098900  1
  C  C570  1  0.717000  0.981100  0.901100  1
  C  C571  1  0.313900  0.019800  0.163500  1
  C  C572  1  0.686100  0.980200  0.836500  1
  C  C573  1  0.376600  0.057800  0.198900  1
  C  C574  1  0.623400  0.942200  0.801100  1
  C  C575  1  0.413300  0.094800  0.165500  1
  C  C576  1  0.586700  0.905200  0.834500  1
  C  C577  1  0.383300  0.095300  0.099300  1
  C  C578  1  0.616700  0.904700  0.900700  1
  C  C579  1  0.246100  0.144500  0.946600  1
  C  C580  1  0.753900  0.855500  0.053400  1
  C  C581  1  0.246900  0.187600  0.995100  1
  C  C582  1  0.753100  0.812400  0.004900  1
  C  C583  1  0.224200  0.248900  0.978800  1
  C  C584  1  0.775800  0.751100  0.021200  1
  C  C585  1  0.200600  0.267100  0.914000  1
  C  C586  1  0.799400  0.732900  0.086000  1
  C  C587  1  0.199700  0.224000  0.865500  1
  C  C588  1  0.800300  0.776000  0.134500  1
  C  C589  1  0.222500  0.162600  0.881800  1
  C  C590  1  0.777500  0.837400  0.118200  1
  C  C591  1  0.507800  0.534800  0.228200  1
  C  C592  1  0.492200  0.465200  0.771800  1
  C  C593  1  0.429000  0.541100  0.180500  1
  C  C594  1  0.571000  0.458900  0.819500  1
  C  C595  1  0.413100  0.610300  0.170200  1
  C  C596  1  0.586900  0.389700  0.829800  1
  C  C597  1  0.334700  0.621400  0.125500  1
  C  C598  1  0.665300  0.378600  0.874500  1
  C  C599  1  0.523600  0.427300  0.187600  1
  C  C600  1  0.476400  0.572700  0.812400  1
  C  C601  1  0.566800  0.447800  0.148800  1
  C  C602  1  0.433200  0.552200  0.851200  1
  C  C603  1  0.549600  0.409200  0.086400  1
  C  C604  1  0.450400  0.590800  0.913600  1
  C  C605  1  0.597100  0.424800  0.042600  1
  C  C606  1  0.402900  0.575200  0.957400  1
  C  C607  1  0.479100  0.436100  0.282400  1
  C  C608  1  0.520900  0.563900  0.717600  1
  C  C609  1  0.477300  0.470200  0.342100  1
  C  C610  1  0.522700  0.529800  0.657900  1
  C  C611  1  0.432100  0.434500  0.379200  1
  C  C612  1  0.567900  0.565500  0.620800  1
  C  C613  1  0.469000  0.383000  0.414700  1
  C  C614  1  0.531000  0.617000  0.585300  1
  C  C615  1  0.611700  0.473300  0.293300  1
  C  C616  1  0.388300  0.526700  0.706700  1
  C  C617  1  0.645100  0.413200  0.329700  1
  C  C618  1  0.354900  0.586800  0.670300  1
  C  C619  1  0.729200  0.429400  0.373400  1
  C  C620  1  0.270800  0.570600  0.626600  1
  C  C621  1  0.772900  0.426700  0.333500  1
  C  C622  1  0.227100  0.573300  0.666500  1
  C  C623  1  0.018000  0.439400  0.595400  1
  C  C624  1  0.982000  0.560600  0.404600  1
  N  N625  1  0.531100  0.467600  0.247200  1
  N  N626  1  0.468900  0.532400  0.752800  1
  O  O627  1  0.675800  0.076200  0.530300  1
  O  O628  1  0.324200  0.923800  0.469700  1
  O  O629  1  0.458100  0.239100  0.822300  1
  O  O630  1  0.541900  0.760900  0.177700  1
  O  O631  1  0.470900  0.198200  0.043000  1
  O  O632  1  0.529100  0.801800  0.957000  1
  O  O633  1  0.403900  0.265000  0.180700  1
  O  O634  1  0.596100  0.735000  0.819300  1
  O  O635  1  0.115100  0.267100  0.697500  1
  O  O636  1  0.884900  0.732900  0.302500  1
  O  O637  1  0.985200  0.104500  0.888700  1
  O  O638  1  0.014800  0.895500  0.111300  1
  O  O639  1  0.033600  0.454600  0.503500  1
  O  O640  1  0.966400  0.545400  0.496500  1
  O  O641  1  0.444000  0.809800  0.652600  1
  O  O642  1  0.556000  0.190200  0.347400  1
  O  O643  1  0.381600  0.821600  0.759100  1
  O  O644  1  0.618400  0.178400  0.240900  1
  O  O645  1  0.264000  0.840100  0.790200  1
  O  O646  1  0.736000  0.159900  0.209800  1
  O  O647  1  0.365100  0.264400  0.638500  1
  O  O648  1  0.634900  0.735600  0.361500  1
  O  O649  1  0.250700  0.269800  0.678600  1
  O  O650  1  0.749300  0.730200  0.321400  1
  O  O651  1  0.269300  0.057300  0.743500  1
  O  O652  1  0.730700  0.942700  0.256500  1
  O  O653  1  0.381500  0.390700  0.627100  1
  O  O654  1  0.618500  0.609300  0.372900  1
  O  O655  1  0.239400  0.341100  0.567600  1
  O  O656  1  0.760600  0.658900  0.432400  1
  O  O657  1  0.260000  0.400200  0.682300  1
  O  O658  1  0.740000  0.599800  0.317700  1
  O  O659  1  0.376800  0.338800  0.745300  1
  O  O660  1  0.623200  0.661200  0.254700  1
  O  O661  1  0.197400  0.477100  0.100200  1
  O  O662  1  0.802600  0.522900  0.899800  1
  O  O663  1  0.314400  0.411100  0.149400  1
  O  O664  1  0.685600  0.588900  0.850600  1
  O  O665  1  0.348400  0.385700  0.947200  1
  O  O666  1  0.651600  0.614300  0.052800  1
  O  O667  1  0.289400  0.499400  0.238100  1
  O  O668  1  0.710600  0.500600  0.761900  1
  O  O669  1  0.143900  0.453200  0.198500  1
  O  O670  1  0.856100  0.546800  0.801500  1
  O  O671  1  0.273600  0.375400  0.256000  1
  O  O672  1  0.726400  0.624600  0.744000  1
  O  O673  1  0.183700  0.349200  0.139800  1
  O  O674  1  0.816300  0.650800  0.860200  1
  O  O675  1  0.203700  0.932300  0.350600  1
  O  O676  1  0.796300  0.067700  0.649400  1
  O  O677  1  0.121900  0.918400  0.228800  1
  O  O678  1  0.878100  0.081600  0.771200  1
  O  O679  1  0.165200  0.133200  0.187100  1
  O  O680  1  0.834800  0.866800  0.812900  1
  O  O681  1  0.075000  0.835800  0.309200  1
  O  O682  1  0.925000  0.164200  0.690800  1
  O  O683  1  0.219600  0.807300  0.370100  1
  O  O684  1  0.780400  0.192700  0.629900  1
  O  O685  1  0.141000  0.787600  0.230200  1
  O  O686  1  0.859000  0.212400  0.769800  1
  O  O687  1  0.258500  0.862500  0.267000  1
  O  O688  1  0.741500  0.137500  0.733000  1
  O  O689  1  0.261100  0.714700  0.836500  1
  O  O690  1  0.738900  0.285300  0.163500  1
  O  O691  1  0.377300  0.789300  0.886800  1
  O  O692  1  0.622700  0.210700  0.113200  1
  O  O693  1  0.315900  0.820700  0.077500  1
  O  O694  1  0.684100  0.179300  0.922500  1
  O  O695  1  0.393700  0.703000  0.794900  1
  O  O696  1  0.606300  0.297000  0.205100  1
  O  O697  1  0.254600  0.730500  0.714300  1
  O  O698  1  0.745400  0.269500  0.285700  1
  O  O699  1  0.034800  0.465100  0.660200  1
  O  O700  1  0.965200  0.534900  0.339800  1
