# generated using pymatgen
data_Mo4P2H160C173N2O39
_symmetry_space_group_name_H-M   'P 1'
_cell_length_a   18.83830000
_cell_length_b   20.18330000
_cell_length_c   22.39730000
_cell_angle_alpha   87.32800000
_cell_angle_beta   88.31000000
_cell_angle_gamma   66.96000000
_symmetry_Int_Tables_number   1
_chemical_formula_structural   Mo4P2H160C173N2O39
_chemical_formula_sum   'Mo8 P4 H320 C346 N4 O78'
_cell_volume   7827.47828116
_cell_formula_units_Z   2
loop_
 _symmetry_equiv_pos_site_id
 _symmetry_equiv_pos_as_xyz
  1  'x, y, z'
loop_
 _atom_site_type_symbol
 _atom_site_label
 _atom_site_symmetry_multiplicity
 _atom_site_fract_x
 _atom_site_fract_y
 _atom_site_fract_z
 _atom_site_occupancy
  Mo  Mo1  1  0.597310  0.154580  0.317370  1
  Mo  Mo2  1  0.402690  0.845420  0.682630  1
  Mo  Mo3  1  0.973800  0.716730  0.221060  1
  Mo  Mo4  1  0.026200  0.283270  0.778940  1
  Mo  Mo5  1  0.950980  0.888380  0.768620  1
  Mo  Mo6  1  0.049020  0.111620  0.231380  1
  Mo  Mo7  1  0.508790  0.275450  0.879150  1
  Mo  Mo8  1  0.491210  0.724550  0.120850  1
  P  P9  1  0.304850  0.480400  0.605740  1
  P  P10  1  0.695150  0.519600  0.394260  1
  P  P11  1  0.113800  0.360350  0.093360  1
  P  P12  1  0.886200  0.639650  0.906640  1
  H  H13  1  0.330500  0.293100  0.360700  1
  H  H14  1  0.669500  0.706900  0.639300  1
  H  H15  1  0.464700  0.354100  0.199900  1
  H  H16  1  0.535300  0.645900  0.800100  1
  H  H17  1  0.211600  0.567400  0.153100  1
  H  H18  1  0.788400  0.432600  0.846900  1
  H  H19  1  0.109500  0.491900  0.327600  1
  H  H20  1  0.890500  0.508100  0.672400  1
  H  H21  1  0.371600  0.385300  0.101300  1
  H  H22  1  0.628400  0.614700  0.898700  1
  H  H23  1  0.431300  0.426400  0.021800  1
  H  H24  1  0.568700  0.573600  0.978200  1
  H  H25  1  0.449600  0.532900  0.029900  1
  H  H26  1  0.550400  0.467100  0.970100  1
  H  H27  1  0.410300  0.600700  0.116400  1
  H  H28  1  0.589700  0.399300  0.883600  1
  H  H29  1  0.349200  0.560500  0.194100  1
  H  H30  1  0.650800  0.439500  0.805900  1
  H  H31  1  0.086200  0.780700  0.386400  1
  H  H32  1  0.913800  0.219300  0.613600  1
  H  H33  1  0.827300  0.801500  0.388800  1
  H  H34  1  0.172700  0.198500  0.611200  1
  H  H35  1  0.814000  0.878500  0.606700  1
  H  H36  1  0.186000  0.121500  0.393300  1
  H  H37  1  0.076000  0.846600  0.577900  1
  H  H38  1  0.924000  0.153400  0.422100  1
  H  H39  1  0.817500  0.733300  0.520700  1
  H  H40  1  0.182500  0.266700  0.479300  1
  H  H41  1  0.693100  0.736400  0.524800  1
  H  H42  1  0.306900  0.263600  0.475200  1
  H  H43  1  0.588800  0.842000  0.510200  1
  H  H44  1  0.411200  0.158000  0.489800  1
  H  H45  1  0.604400  0.946700  0.482900  1
  H  H46  1  0.395600  0.053300  0.517100  1
  H  H47  1  0.730800  0.947800  0.476200  1
  H  H48  1  0.269200  0.052200  0.523800  1
  H  H49  1  0.071800  0.632400  0.751800  1
  H  H50  1  0.928200  0.367600  0.248200  1
  H  H51  1  0.188300  0.764100  0.853100  1
  H  H52  1  0.811700  0.235900  0.146900  1
  H  H53  1  0.408700  0.519700  0.899400  1
  H  H54  1  0.591300  0.480300  0.100600  1
  H  H55  1  0.267700  0.418000  0.789900  1
  H  H56  1  0.732300  0.582000  0.210100  1
  H  H57  1  0.345400  0.705000  0.806700  1
  H  H58  1  0.654600  0.295000  0.193300  1
  H  H59  1  0.422600  0.754800  0.851500  1
  H  H60  1  0.577400  0.245200  0.148500  1
  H  H61  1  0.442600  0.740700  0.954300  1
  H  H62  1  0.557400  0.259300  0.045700  1
  H  H63  1  0.387400  0.674800  0.012100  1
  H  H64  1  0.612600  0.325200  0.987900  1
  H  H65  1  0.313000  0.621800  0.966900  1
  H  H66  1  0.687000  0.378200  0.033100  1
  H  H67  1  0.546100  0.347900  0.677100  1
  H  H68  1  0.453900  0.652100  0.322900  1
  H  H69  1  0.549400  0.116600  0.729900  1
  H  H70  1  0.450600  0.883400  0.270100  1
  H  H71  1  0.598900  0.063900  0.507500  1
  H  H72  1  0.401100  0.936100  0.492500  1
  H  H73  1  0.593100  0.300700  0.481500  1
  H  H74  1  0.406900  0.699300  0.518500  1
  H  H75  1  0.476200  0.071500  0.596800  1
  H  H76  1  0.523800  0.928500  0.403200  1
  H  H77  1  0.487500  0.954300  0.619500  1
  H  H78  1  0.512500  0.045700  0.380500  1
  H  H79  1  0.599900  0.868400  0.658800  1
  H  H80  1  0.400100  0.131600  0.341200  1
  H  H81  1  0.703200  0.901400  0.677600  1
  H  H82  1  0.296800  0.098600  0.322400  1
  H  H83  1  0.693900  0.018300  0.655900  1
  H  H84  1  0.306100  0.981700  0.344100  1
  H  H85  1  0.191800  0.601300  0.664700  1
  H  H86  1  0.808200  0.398700  0.335300  1
  H  H87  1  0.073500  0.691100  0.636200  1
  H  H88  1  0.926500  0.308900  0.363800  1
  H  H89  1  0.025100  0.694000  0.541000  1
  H  H90  1  0.974900  0.306000  0.459000  1
  H  H91  1  0.099500  0.613900  0.471300  1
  H  H92  1  0.900500  0.386100  0.528700  1
  H  H93  1  0.217700  0.523100  0.497000  1
  H  H94  1  0.782300  0.476900  0.503000  1
  H  H95  1  0.387000  0.532300  0.523200  1
  H  H96  1  0.613000  0.467700  0.476800  1
  H  H97  1  0.456700  0.492100  0.431700  1
  H  H98  1  0.543300  0.507900  0.568300  1
  H  H99  1  0.468400  0.379800  0.398000  1
  H  H100  1  0.531600  0.620200  0.602000  1
  H  H101  1  0.414000  0.310800  0.450600  1
  H  H102  1  0.586000  0.689200  0.549400  1
  H  H103  1  0.344600  0.350900  0.538400  1
  H  H104  1  0.655400  0.649100  0.461600  1
  H  H105  1  0.164900  0.466100  0.643700  1
  H  H106  1  0.835100  0.533900  0.356300  1
  H  H107  1  0.135500  0.373700  0.693000  1
  H  H108  1  0.864500  0.626300  0.307000  1
  H  H109  1  0.234500  0.266700  0.725000  1
  H  H110  1  0.765500  0.733300  0.275000  1
  H  H111  1  0.364000  0.248200  0.706800  1
  H  H112  1  0.636000  0.751800  0.293200  1
  H  H113  1  0.394400  0.336300  0.652100  1
  H  H114  1  0.605600  0.663700  0.347900  1
  H  H115  1  0.325200  0.612700  0.611500  1
  H  H116  1  0.674800  0.387300  0.388500  1
  H  H117  1  0.402600  0.653200  0.668700  1
  H  H118  1  0.597400  0.346800  0.331300  1
  H  H119  1  0.476400  0.579500  0.746000  1
  H  H120  1  0.523600  0.420500  0.254000  1
  H  H121  1  0.480500  0.464100  0.763200  1
  H  H122  1  0.519500  0.535900  0.236800  1
  H  H123  1  0.401700  0.424500  0.708700  1
  H  H124  1  0.598300  0.575500  0.291300  1
  H  H125  1  0.083900  0.412300  0.212800  1
  H  H126  1  0.916100  0.587700  0.787200  1
  H  H127  1  0.978500  0.503200  0.257800  1
  H  H128  1  0.021500  0.496800  0.742200  1
  H  H129  1  0.871400  0.572400  0.199000  1
  H  H130  1  0.128600  0.427600  0.801000  1
  H  H131  1  0.862400  0.541800  0.104100  1
  H  H132  1  0.137600  0.458200  0.895900  1
  H  H133  1  0.962200  0.448600  0.058500  1
  H  H134  1  0.037800  0.551400  0.941500  1
  H  H135  1  0.093400  0.503500  0.079100  1
  H  H136  1  0.906600  0.496500  0.920900  1
  H  H137  1  0.158900  0.570500  0.018500  1
  H  H138  1  0.841100  0.429500  0.981500  1
  H  H139  1  0.267100  0.499500  0.966700  1
  H  H140  1  0.732900  0.500500  0.033300  1
  H  H141  1  0.309900  0.380100  0.958600  1
  H  H142  1  0.690100  0.619900  0.041400  1
  H  H143  1  0.242700  0.316600  0.012200  1
  H  H144  1  0.757300  0.683400  0.987800  1
  H  H145  1  0.265100  0.339800  0.129900  1
  H  H146  1  0.734900  0.660200  0.870100  1
  H  H147  1  0.361400  0.248400  0.182500  1
  H  H148  1  0.638600  0.751600  0.817500  1
  H  H149  1  0.340000  0.159600  0.234600  1
  H  H150  1  0.660000  0.840400  0.765400  1
  H  H151  1  0.216300  0.151600  0.222200  1
  H  H152  1  0.783700  0.848400  0.777800  1
  H  H153  1  0.127900  0.231700  0.155500  1
  H  H154  1  0.872100  0.768300  0.844500  1
  H  H155  1  0.092000  0.239900  0.912800  1
  H  H156  1  0.908000  0.760100  0.087200  1
  H  H157  1  0.001500  0.203200  0.954100  1
  H  H158  1  0.998500  0.796800  0.045900  1
  H  H159  1  0.963900  0.219500  0.058700  1
  H  H160  1  0.036100  0.780500  0.941300  1
  H  H161  1  0.992000  0.309200  0.108800  1
  H  H162  1  0.008000  0.690800  0.891200  1
  H  H163  1  0.123100  0.831200  0.287400  1
  H  H164  1  0.876900  0.168800  0.712600  1
  H  H165  1  0.127400  0.899900  0.251500  1
  H  H166  1  0.872600  0.100100  0.748500  1
  H  H167  1  0.231700  0.893300  0.314200  1
  H  H168  1  0.768300  0.106700  0.685800  1
  H  H169  1  0.222700  0.827100  0.351500  1
  H  H170  1  0.777300  0.172900  0.648500  1
  H  H171  1  0.103600  0.971100  0.342500  1
  H  H172  1  0.896400  0.028900  0.657500  1
  H  H173  1  0.090800  0.905100  0.376800  1
  H  H174  1  0.909200  0.094900  0.623200  1
  H  H175  1  0.119700  0.975500  0.446500  1
  H  H176  1  0.880300  0.024500  0.553500  1
  H  H177  1  0.199700  0.962400  0.412500  1
  H  H178  1  0.800300  0.037600  0.587500  1
  H  H179  1  0.186900  0.896600  0.446800  1
  H  H180  1  0.813100  0.103400  0.553200  1
  H  H181  1  0.302500  0.748800  0.288800  1
  H  H182  1  0.697500  0.251200  0.711200  1
  H  H183  1  0.307800  0.706000  0.229500  1
  H  H184  1  0.692200  0.294000  0.770500  1
  H  H185  1  0.207000  0.672400  0.264000  1
  H  H186  1  0.793000  0.327600  0.736000  1
  H  H187  1  0.193400  0.721100  0.321300  1
  H  H188  1  0.806600  0.278900  0.678700  1
  H  H189  1  0.321600  0.647300  0.354200  1
  H  H190  1  0.678400  0.352700  0.645800  1
  H  H191  1  0.333333  0.597900  0.297800  1
  H  H192  1  0.666667  0.402100  0.702200  1
  H  H193  1  0.298400  0.541500  0.384100  1
  H  H194  1  0.701600  0.458500  0.615900  1
  H  H195  1  0.232000  0.561900  0.335500  1
  H  H196  1  0.768000  0.438100  0.664500  1
  H  H197  1  0.220300  0.611100  0.391800  1
  H  H198  1  0.779700  0.388900  0.608200  1
  H  H199  1  0.309600  0.804700  0.177400  1
  H  H200  1  0.690400  0.195300  0.822600  1
  H  H201  1  0.292800  0.855400  0.233300  1
  H  H202  1  0.707200  0.144600  0.766700  1
  H  H203  1  0.178400  0.940900  0.180200  1
  H  H204  1  0.821600  0.059100  0.819800  1
  H  H205  1  0.208600  0.892500  0.122700  1
  H  H206  1  0.791400  0.107500  0.877300  1
  H  H207  1  0.331600  0.911200  0.127700  1
  H  H208  1  0.668400  0.088800  0.872300  1
  H  H209  1  0.259500  0.983700  0.110500  1
  H  H210  1  0.740500  0.016300  0.889500  1
  H  H211  1  0.333900  0.006400  0.183200  1
  H  H212  1  0.666100  0.993600  0.816800  1
  H  H213  1  0.322300  0.947000  0.227700  1
  H  H214  1  0.677700  0.053000  0.772300  1
  H  H215  1  0.250100  0.019500  0.210500  1
  H  H216  1  0.749900  0.980500  0.789500  1
  H  H217  1  0.133000  0.768000  0.202000  1
  H  H218  1  0.867000  0.232000  0.798000  1
  H  H219  1  0.136300  0.833000  0.159800  1
  H  H220  1  0.863700  0.167000  0.840200  1
  H  H221  1  0.243100  0.684300  0.155800  1
  H  H222  1  0.756900  0.315700  0.844200  1
  H  H223  1  0.261900  0.747500  0.121300  1
  H  H224  1  0.738100  0.252500  0.878700  1
  H  H225  1  0.111900  0.750300  0.100200  1
  H  H226  1  0.888100  0.249700  0.899800  1
  H  H227  1  0.181400  0.685800  0.069500  1
  H  H228  1  0.818600  0.314200  0.930500  1
  H  H229  1  0.138300  0.790100  0.002300  1
  H  H230  1  0.861700  0.209900  0.997700  1
  H  H231  1  0.225500  0.771900  0.020800  1
  H  H232  1  0.774500  0.228100  0.979200  1
  H  H233  1  0.156300  0.836200  0.051500  1
  H  H234  1  0.843700  0.163800  0.948500  1
  H  H235  1  0.204500  0.082200  0.831300  1
  H  H236  1  0.795500  0.917800  0.168700  1
  H  H237  1  0.146700  0.108900  0.776000  1
  H  H238  1  0.853300  0.891100  0.224000  1
  H  H239  1  0.244900  0.029500  0.711800  1
  H  H240  1  0.755100  0.970500  0.288200  1
  H  H241  1  0.302900  0.002200  0.767400  1
  H  H242  1  0.697100  0.997800  0.232600  1
  H  H243  1  0.298900  0.120600  0.777700  1
  H  H244  1  0.701100  0.879400  0.222300  1
  H  H245  1  0.234800  0.152000  0.726900  1
  H  H246  1  0.765200  0.848000  0.273100  1
  H  H247  1  0.359200  0.135400  0.684900  1
  H  H248  1  0.640800  0.864600  0.315100  1
  H  H249  1  0.327200  0.083000  0.653700  1
  H  H250  1  0.672800  0.917000  0.346300  1
  H  H251  1  0.391100  0.051600  0.704500  1
  H  H252  1  0.608900  0.948400  0.295500  1
  H  H253  1  0.092900  0.073100  0.874900  1
  H  H254  1  0.907100  0.926900  0.125100  1
  H  H255  1  0.044000  0.071600  0.818200  1
  H  H256  1  0.956000  0.928400  0.181800  1
  H  H257  1  0.096100  0.961600  0.912000  1
  H  H258  1  0.903900  0.038400  0.088000  1
  H  H259  1  0.061800  0.948100  0.850900  1
  H  H260  1  0.938200  0.051900  0.149100  1
  H  H261  1  0.975800  0.066800  0.929200  1
  H  H262  1  0.024200  0.933200  0.070800  1
  H  H263  1  0.941600  0.053100  0.868400  1
  H  H264  1  0.058400  0.946900  0.131600  1
  H  H265  1  0.892300  0.004100  0.951900  1
  H  H266  1  0.107700  0.995900  0.048100  1
  H  H267  1  0.978400  0.953600  0.971100  1
  H  H268  1  0.021600  0.046400  0.028900  1
  H  H269  1  0.944300  0.940000  0.910400  1
  H  H270  1  0.055700  0.060000  0.089600  1
  H  H271  1  0.267500  0.920400  0.815900  1
  H  H272  1  0.732500  0.079600  0.184100  1
  H  H273  1  0.200100  0.906400  0.853000  1
  H  H274  1  0.799900  0.093600  0.147000  1
  H  H275  1  0.199200  0.997300  0.922300  1
  H  H276  1  0.800800  0.002700  0.077700  1
  H  H277  1  0.275200  0.998500  0.888100  1
  H  H278  1  0.724800  0.001500  0.111900  1
  H  H279  1  0.325700  0.862400  0.902700  1
  H  H280  1  0.674300  0.137600  0.097300  1
  H  H281  1  0.358000  0.866300  0.011800  1
  H  H282  1  0.642000  0.133700  0.988200  1
  H  H283  1  0.283600  0.939700  0.017900  1
  H  H284  1  0.716400  0.060300  0.982100  1
  H  H285  1  0.358800  0.940000  0.982900  1
  H  H286  1  0.641200  0.060000  0.017100  1
  H  H287  1  0.193000  0.949400  0.729000  1
  H  H288  1  0.807000  0.050600  0.271000  1
  H  H289  1  0.120000  0.941400  0.761300  1
  H  H290  1  0.880000  0.058600  0.238700  1
  H  H291  1  0.036400  0.050500  0.720100  1
  H  H292  1  0.963600  0.949500  0.279900  1
  H  H293  1  0.106100  0.072400  0.698000  1
  H  H294  1  0.893900  0.927600  0.302000  1
  H  H295  1  0.049300  0.031500  0.620000  1
  H  H296  1  0.950700  0.968500  0.380000  1
  H  H297  1  0.082900  0.953100  0.652200  1
  H  H298  1  0.917100  0.046900  0.347800  1
  H  H299  1  0.165300  0.959000  0.573200  1
  H  H300  1  0.834700  0.041000  0.426800  1
  H  H301  1  0.209900  0.946500  0.635000  1
  H  H302  1  0.790100  0.053500  0.365000  1
  H  H303  1  0.176300  0.024900  0.602800  1
  H  H304  1  0.823700  0.975100  0.397200  1
  H  H305  1  0.314700  0.182200  0.265300  1
  H  H306  1  0.685300  0.817800  0.734700  1
  H  H307  1  0.186000  0.198700  0.267600  1
  H  H308  1  0.814000  0.801300  0.732400  1
  H  H309  1  0.098100  0.280900  0.199900  1
  H  H310  1  0.901900  0.719100  0.800100  1
  H  H311  1  0.083700  0.376000  0.972700  1
  H  H312  1  0.916300  0.624000  0.027300  1
  H  H313  1  0.034400  0.306900  0.906800  1
  H  H314  1  0.965600  0.693100  0.093200  1
  H  H315  1  0.052000  0.254400  0.116500  1
  H  H316  1  0.948000  0.745600  0.883500  1
  H  H317  1  0.050400  0.159900  0.050800  1
  H  H318  1  0.949600  0.840100  0.949200  1
  H  H319  1  0.143800  0.708800  0.011400  1
  H  H320  1  0.856200  0.291200  0.988600  1
  H  H321  1  0.212600  0.647700  0.047100  1
  H  H322  1  0.787400  0.352300  0.952900  1
  H  H323  1  0.225600  0.714900  0.015600  1
  H  H324  1  0.774400  0.285100  0.984400  1
  H  H325  1  0.280300  0.820800  0.991100  1
  H  H326  1  0.719700  0.179200  0.008900  1
  H  H327  1  0.210800  0.855000  0.945100  1
  H  H328  1  0.789200  0.145000  0.054900  1
  H  H329  1  0.216300  0.900000  0.000500  1
  H  H330  1  0.783700  0.100000  0.999500  1
  H  H331  1  0.331200  0.907400  0.958100  1
  H  H332  1  0.668800  0.092600  0.041900  1
  C  C333  1  0.769500  0.266300  0.522100  1
  C  C334  1  0.230500  0.733700  0.477900  1
  C  C335  1  0.792100  0.236000  0.316700  1
  C  C336  1  0.207900  0.764000  0.683300  1
  C  C337  1  0.068800  0.402100  0.401500  1
  C  C338  1  0.931200  0.597900  0.598500  1
  C  C339  1  0.868500  0.579500  0.506500  1
  C  C340  1  0.131500  0.420500  0.493500  1
  C  C341  1  0.139300  0.293900  0.331800  1
  C  C342  1  0.860700  0.706100  0.668200  1
  C  C343  1  0.270000  0.123600  0.054800  1
  C  C344  1  0.730000  0.876400  0.945200  1
  C  C345  1  0.521100  0.099600  0.099300  1
  C  C346  1  0.478900  0.900400  0.900700  1
  C  C347  1  0.720000  0.838000  0.093100  1
  C  C348  1  0.280000  0.162000  0.906900  1
  C  C349  1  0.321200  0.364600  0.291800  1
  C  C350  1  0.678800  0.635400  0.708200  1
  C  C351  1  0.357700  0.305700  0.328800  1
  C  C352  1  0.642300  0.694300  0.671200  1
  C  C353  1  0.435700  0.264700  0.318600  1
  C  C354  1  0.564300  0.735300  0.681400  1
  C  C355  1  0.476600  0.283200  0.268700  1
  C  C356  1  0.523400  0.716800  0.731300  1
  C  C357  1  0.437800  0.341800  0.232300  1
  C  C358  1  0.562200  0.658200  0.767700  1
  C  C359  1  0.358200  0.385000  0.241700  1
  C  C360  1  0.641800  0.615000  0.758300  1
  C  C361  1  0.316700  0.446500  0.206100  1
  C  C362  1  0.683300  0.553500  0.793900  1
  C  C363  1  0.239600  0.488000  0.221000  1
  C  C364  1  0.760400  0.512000  0.779000  1
  C  C365  1  0.192500  0.553200  0.189100  1
  C  C366  1  0.807500  0.446800  0.810900  1
  C  C367  1  0.121000  0.595200  0.209700  1
  C  C368  1  0.879000  0.404800  0.790300  1
  C  C369  1  0.088400  0.573000  0.263500  1
  C  C370  1  0.911600  0.427000  0.736500  1
  C  C371  1  0.130500  0.508000  0.293600  1
  C  C372  1  0.869500  0.492000  0.706400  1
  C  C373  1  0.204900  0.467300  0.272100  1
  C  C374  1  0.795100  0.532700  0.727900  1
  C  C375  1  0.354400  0.469700  0.155000  1
  C  C376  1  0.645600  0.530300  0.845000  1
  C  C377  1  0.378900  0.429000  0.104100  1
  C  C378  1  0.621100  0.571000  0.895900  1
  C  C379  1  0.414700  0.453400  0.056900  1
  C  C380  1  0.585300  0.546600  0.943100  1
  C  C381  1  0.425600  0.516700  0.061900  1
  C  C382  1  0.574400  0.483300  0.938100  1
  C  C383  1  0.402000  0.557600  0.113200  1
  C  C384  1  0.598000  0.442400  0.886800  1
  C  C385  1  0.366100  0.533300  0.159200  1
  C  C386  1  0.633900  0.466700  0.840800  1
  C  C387  1  0.986900  0.808800  0.437200  1
  C  C388  1  0.013100  0.191200  0.562800  1
  C  C389  1  0.034100  0.784900  0.386500  1
  C  C390  1  0.965900  0.215100  0.613500  1
  C  C391  1  0.004000  0.767400  0.336500  1
  C  C392  1  0.996000  0.232600  0.663500  1
  C  C393  1  0.924500  0.772600  0.339400  1
  C  C394  1  0.075500  0.227400  0.660600  1
  C  C395  1  0.879500  0.796600  0.388700  1
  C  C396  1  0.120500  0.203400  0.611300  1
  C  C397  1  0.909800  0.814500  0.440200  1
  C  C398  1  0.090200  0.185500  0.559800  1
  C  C399  1  0.867700  0.837200  0.494500  1
  C  C400  1  0.132300  0.162800  0.505500  1
  C  C401  1  0.903300  0.850600  0.542800  1
  C  C402  1  0.096700  0.149400  0.457200  1
  C  C403  1  0.866800  0.870700  0.601000  1
  C  C404  1  0.133200  0.129300  0.399000  1
  C  C405  1  0.907600  0.878200  0.646800  1
  C  C406  1  0.092400  0.121800  0.353200  1
  C  C407  1  0.988200  0.867600  0.640300  1
  C  C408  1  0.011800  0.132400  0.359700  1
  C  C409  1  0.024000  0.851800  0.584000  1
  C  C410  1  0.976000  0.148200  0.416000  1
  C  C411  1  0.981100  0.844000  0.537700  1
  C  C412  1  0.018900  0.156000  0.462300  1
  C  C413  1  0.786900  0.840600  0.498500  1
  C  C414  1  0.213100  0.159400  0.501500  1
  C  C415  1  0.774800  0.777400  0.513000  1
  C  C416  1  0.225200  0.222600  0.487000  1
  C  C417  1  0.700900  0.779500  0.515800  1
  C  C418  1  0.299100  0.220500  0.484200  1
  C  C419  1  0.639300  0.841700  0.506200  1
  C  C420  1  0.360700  0.158300  0.493800  1
  C  C421  1  0.648300  0.903700  0.490900  1
  C  C422  1  0.351700  0.096300  0.509100  1
  C  C423  1  0.723900  0.904600  0.486700  1
  C  C424  1  0.276100  0.095400  0.513300  1
  C  C425  1  0.167300  0.624500  0.797400  1
  C  C426  1  0.832700  0.375500  0.202600  1
  C  C427  1  0.095000  0.659000  0.772100  1
  C  C428  1  0.905000  0.341000  0.227900  1
  C  C429  1  0.057300  0.732800  0.777100  1
  C  C430  1  0.942700  0.267200  0.222900  1
  C  C431  1  0.094800  0.772600  0.807700  1
  C  C432  1  0.905200  0.227400  0.192300  1
  C  C433  1  0.165400  0.737600  0.832500  1
  C  C434  1  0.834600  0.262400  0.167500  1
  C  C435  1  0.205700  0.661400  0.828200  1
  C  C436  1  0.794300  0.338600  0.171800  1
  C  C437  1  0.278100  0.621000  0.853000  1
  C  C438  1  0.721900  0.379000  0.147000  1
  C  C439  1  0.308700  0.545100  0.851000  1
  C  C440  1  0.691300  0.454900  0.149000  1
  C  C441  1  0.379500  0.499100  0.878700  1
  C  C442  1  0.620500  0.500900  0.121300  1
  C  C443  1  0.405700  0.425500  0.875800  1
  C  C444  1  0.594300  0.574500  0.124200  1
  C  C445  1  0.363300  0.393100  0.841400  1
  C  C446  1  0.636700  0.606900  0.158600  1
  C  C447  1  0.295400  0.437900  0.813100  1
  C  C448  1  0.704600  0.562100  0.186900  1
  C  C449  1  0.268900  0.510900  0.819300  1
  C  C450  1  0.731100  0.489100  0.180700  1
  C  C451  1  0.322400  0.656700  0.882600  1
  C  C452  1  0.677600  0.343300  0.117400  1
  C  C453  1  0.354500  0.697700  0.848400  1
  C  C454  1  0.645500  0.302300  0.151600  1
  C  C455  1  0.399800  0.728000  0.875300  1
  C  C456  1  0.600200  0.272000  0.124700  1
  C  C457  1  0.412000  0.719500  0.936200  1
  C  C458  1  0.588000  0.280500  0.063800  1
  C  C459  1  0.379700  0.680600  0.970100  1
  C  C460  1  0.620300  0.319400  0.029900  1
  C  C461  1  0.335000  0.649100  0.942900  1
  C  C462  1  0.665000  0.350900  0.057100  1
  C  C463  1  0.560900  0.250700  0.645600  1
  C  C464  1  0.439100  0.749300  0.354400  1
  C  C465  1  0.548200  0.301100  0.688100  1
  C  C466  1  0.451800  0.698900  0.311900  1
  C  C467  1  0.538400  0.282400  0.748300  1
  C  C468  1  0.461600  0.717600  0.251700  1
  C  C469  1  0.537000  0.212100  0.762200  1
  C  C470  1  0.463000  0.787900  0.237800  1
  C  C471  1  0.549500  0.162800  0.719400  1
  C  C472  1  0.450500  0.837200  0.280600  1
  C  C473  1  0.562700  0.180400  0.658700  1
  C  C474  1  0.437300  0.819600  0.341300  1
  C  C475  1  0.577800  0.132400  0.612000  1
  C  C476  1  0.422200  0.867600  0.388000  1
  C  C477  1  0.587300  0.154500  0.552500  1
  C  C478  1  0.412700  0.845500  0.447500  1
  C  C479  1  0.597000  0.111500  0.502200  1
  C  C480  1  0.403000  0.888500  0.497800  1
  C  C481  1  0.603600  0.138400  0.446500  1
  C  C482  1  0.396400  0.861600  0.553500  1
  C  C483  1  0.601500  0.209900  0.437200  1
  C  C484  1  0.398500  0.790100  0.562800  1
  C  C485  1  0.592900  0.253800  0.486600  1
  C  C486  1  0.407100  0.746200  0.513400  1
  C  C487  1  0.584300  0.225900  0.542200  1
  C  C488  1  0.415700  0.774100  0.457800  1
  C  C489  1  0.583100  0.057900  0.625100  1
  C  C490  1  0.416900  0.942100  0.374900  1
  C  C491  1  0.522500  0.037400  0.613600  1
  C  C492  1  0.477500  0.962600  0.386400  1
  C  C493  1  0.529700  0.967300  0.626900  1
  C  C494  1  0.470300  0.032700  0.373100  1
  C  C495  1  0.595800  0.916300  0.650300  1
  C  C496  1  0.404200  0.083700  0.349700  1
  C  C497  1  0.656900  0.936200  0.661200  1
  C  C498  1  0.343100  0.063800  0.338800  1
  C  C499  1  0.651400  0.005800  0.648600  1
  C  C500  1  0.348600  0.994200  0.351400  1
  C  C501  1  0.217300  0.552700  0.583800  1
  C  C502  1  0.782700  0.447300  0.416200  1
  C  C503  1  0.173400  0.603200  0.625400  1
  C  C504  1  0.826600  0.396800  0.374600  1
  C  C505  1  0.102700  0.656200  0.608400  1
  C  C506  1  0.897300  0.343800  0.391600  1
  C  C507  1  0.074400  0.658900  0.551600  1
  C  C508  1  0.925600  0.341100  0.448400  1
  C  C509  1  0.118100  0.610500  0.510800  1
  C  C510  1  0.881900  0.389500  0.489200  1
  C  C511  1  0.188800  0.556800  0.525700  1
  C  C512  1  0.811200  0.443200  0.474300  1
  C  C513  1  0.361900  0.445200  0.540100  1
  C  C514  1  0.638100  0.554800  0.459900  1
  C  C515  1  0.393000  0.487000  0.508600  1
  C  C516  1  0.607000  0.513000  0.491400  1
  C  C517  1  0.434500  0.463500  0.453700  1
  C  C518  1  0.565500  0.536500  0.546300  1
  C  C519  1  0.440900  0.397000  0.434000  1
  C  C520  1  0.559100  0.603000  0.566000  1
  C  C521  1  0.408500  0.356000  0.465200  1
  C  C522  1  0.591500  0.644000  0.534800  1
  C  C523  1  0.368100  0.379300  0.517600  1
  C  C524  1  0.631900  0.620700  0.482400  1
  C  C525  1  0.281400  0.410600  0.642700  1
  C  C526  1  0.718600  0.589400  0.357300  1
  C  C527  1  0.205200  0.421800  0.655300  1
  C  C528  1  0.794800  0.578200  0.344700  1
  C  C529  1  0.187700  0.366900  0.685500  1
  C  C530  1  0.812300  0.633100  0.314500  1
  C  C531  1  0.246700  0.303100  0.704200  1
  C  C532  1  0.753300  0.696900  0.295800  1
  C  C533  1  0.324000  0.291600  0.692900  1
  C  C534  1  0.676000  0.708400  0.307100  1
  C  C535  1  0.342200  0.344300  0.661300  1
  C  C536  1  0.657800  0.655700  0.338700  1
  C  C537  1  0.358100  0.513000  0.654000  1
  C  C538  1  0.641900  0.487000  0.346000  1
  C  C539  1  0.356700  0.582400  0.642300  1
  C  C540  1  0.643300  0.417600  0.357700  1
  C  C541  1  0.402300  0.606700  0.676700  1
  C  C542  1  0.597700  0.393300  0.323300  1
  C  C543  1  0.446700  0.562600  0.722100  1
  C  C544  1  0.553300  0.437400  0.277900  1
  C  C545  1  0.448200  0.494800  0.733000  1
  C  C546  1  0.551800  0.505200  0.267000  1
  C  C547  1  0.402300  0.470700  0.699700  1
  C  C548  1  0.597700  0.529300  0.300300  1
  C  C549  1  0.033100  0.422500  0.130600  1
  C  C550  1  0.966900  0.577500  0.869400  1
  C  C551  1  0.038500  0.438600  0.190600  1
  C  C552  1  0.961500  0.561400  0.809400  1
  C  C553  1  0.976900  0.493000  0.217000  1
  C  C554  1  0.023100  0.507000  0.783000  1
  C  C555  1  0.912400  0.532800  0.182400  1
  C  C556  1  0.087600  0.467200  0.817600  1
  C  C557  1  0.907900  0.515300  0.125900  1
  C  C558  1  0.092100  0.484700  0.874100  1
  C  C559  1  0.966900  0.460200  0.098400  1
  C  C560  1  0.033100  0.539800  0.901600  1
  C  C561  1  0.162300  0.407500  0.048800  1
  C  C562  1  0.837700  0.592500  0.951200  1
  C  C563  1  0.136200  0.479100  0.053800  1
  C  C564  1  0.863800  0.520900  0.946200  1
  C  C565  1  0.175700  0.519500  0.019000  1
  C  C566  1  0.824300  0.480500  0.981000  1
  C  C567  1  0.238600  0.475800  0.987700  1
  C  C568  1  0.761400  0.524200  0.012300  1
  C  C569  1  0.265700  0.404600  0.982600  1
  C  C570  1  0.734300  0.595400  0.017400  1
  C  C571  1  0.226400  0.367400  0.014200  1
  C  C572  1  0.773600  0.632600  0.985800  1
  C  C573  1  0.181700  0.301200  0.144200  1
  C  C574  1  0.818300  0.698800  0.855800  1
  C  C575  1  0.253700  0.303300  0.151300  1
  C  C576  1  0.746300  0.696700  0.848700  1
  C  C577  1  0.308500  0.255900  0.187100  1
  C  C578  1  0.691500  0.744100  0.812900  1
  C  C579  1  0.299900  0.195500  0.212300  1
  C  C580  1  0.700100  0.804500  0.787700  1
  C  C581  1  0.226800  0.189800  0.203000  1
  C  C582  1  0.773200  0.810200  0.797000  1
  C  C583  1  0.172300  0.239700  0.166100  1
  C  C584  1  0.827700  0.760300  0.833900  1
  C  C585  1  0.079900  0.309600  0.045700  1
  C  C586  1  0.920100  0.690400  0.954300  1
  C  C587  1  0.101000  0.293900  0.985300  1
  C  C588  1  0.899000  0.706100  0.014700  1
  C  C589  1  0.074200  0.251300  0.952700  1
  C  C590  1  0.925800  0.748700  0.047300  1
  C  C591  1  0.025000  0.227400  0.977000  1
  C  C592  1  0.975000  0.772600  0.023000  1
  C  C593  1  0.995600  0.242000  0.040700  1
  C  C594  1  0.004400  0.758000  0.959300  1
  C  C595  1  0.016800  0.290100  0.072200  1
  C  C596  1  0.983200  0.709900  0.927800  1
  C  C597  1  0.158600  0.854200  0.273100  1
  C  C598  1  0.841400  0.145800  0.726900  1
  C  C599  1  0.194600  0.871800  0.327500  1
  C  C600  1  0.805400  0.128200  0.672500  1
  C  C601  1  0.129700  0.925600  0.366100  1
  C  C602  1  0.870300  0.074400  0.633900  1
  C  C603  1  0.161900  0.941400  0.423100  1
  C  C604  1  0.838100  0.058600  0.576900  1
  C  C605  1  0.271700  0.736000  0.259900  1
  C  C606  1  0.728300  0.264000  0.740100  1
  C  C607  1  0.232900  0.691000  0.292800  1
  C  C608  1  0.767100  0.309000  0.707200  1
  C  C609  1  0.294700  0.628200  0.326600  1
  C  C610  1  0.705300  0.371800  0.673400  1
  C  C611  1  0.257900  0.581300  0.362900  1
  C  C612  1  0.742100  0.418700  0.637100  1
  C  C613  1  0.268100  0.840600  0.200900  1
  C  C614  1  0.731900  0.159400  0.799100  1
  C  C615  1  0.225000  0.907600  0.159500  1
  C  C616  1  0.775000  0.092400  0.840500  1
  C  C617  1  0.282300  0.947000  0.142900  1
  C  C618  1  0.717700  0.053000  0.857100  1
  C  C619  1  0.298600  0.983200  0.195800  1
  C  C620  1  0.701400  0.016800  0.804200  1
  C  C621  1  0.168200  0.787800  0.181700  1
  C  C622  1  0.831800  0.212200  0.818300  1
  C  C623  1  0.219900  0.733200  0.136600  1
  C  C624  1  0.780100  0.266800  0.863400  1
  C  C625  1  0.165800  0.734600  0.085300  1
  C  C626  1  0.834200  0.265400  0.914700  1
  C  C627  1  0.172000  0.788100  0.035400  1
  C  C628  1  0.828000  0.211900  0.964600  1
  C  C629  1  0.189600  0.067000  0.793900  1
  C  C630  1  0.810400  0.933000  0.206100  1
  C  C631  1  0.259000  0.043600  0.750100  1
  C  C632  1  0.741000  0.956400  0.249900  1
  C  C633  1  0.280800  0.109500  0.739900  1
  C  C634  1  0.719200  0.890500  0.260100  1
  C  C635  1  0.345600  0.093400  0.691200  1
  C  C636  1  0.654400  0.906600  0.308800  1
  C  C637  1  0.085700  0.041300  0.845400  1
  C  C638  1  0.914300  0.958700  0.154600  1
  C  C639  1  0.061100  0.985400  0.878400  1
  C  C640  1  0.938900  0.014600  0.121600  1
  C  C641  1  0.975800  0.029100  0.902400  1
  C  C642  1  0.024200  0.970900  0.097600  1
  C  C643  1  0.944800  0.976800  0.937200  1
  C  C644  1  0.055200  0.023200  0.062800  1
  C  C645  1  0.221600  0.943000  0.841900  1
  C  C646  1  0.778400  0.057000  0.158100  1
  C  C647  1  0.245100  0.968800  0.898200  1
  C  C648  1  0.754900  0.031200  0.101800  1
  C  C649  1  0.294900  0.898000  0.932000  1
  C  C650  1  0.705100  0.102000  0.068000  1
  C  C651  1  0.326800  0.912300  0.991800  1
  C  C652  1  0.673200  0.087700  0.008200  1
  C  C653  1  0.143400  0.976400  0.749500  1
  C  C654  1  0.856600  0.023600  0.250500  1
  C  C655  1  0.089900  0.031500  0.704100  1
  C  C656  1  0.910100  0.968500  0.295900  1
  C  C657  1  0.091900  0.998000  0.645000  1
  C  C658  1  0.908100  0.002000  0.355000  1
  C  C659  1  0.167500  0.980500  0.611000  1
  C  C660  1  0.832500  0.019500  0.389000  1
  C  C661  1  0.280000  0.213700  0.236800  1
  C  C662  1  0.720000  0.786300  0.763200  1
  C  C663  1  0.204000  0.223600  0.237800  1
  C  C664  1  0.796000  0.776400  0.762200  1
  C  C665  1  0.151800  0.269900  0.195600  1
  C  C666  1  0.848200  0.730100  0.804400  1
  C  C667  1  0.072000  0.336300  0.986700  1
  C  C668  1  0.928000  0.663700  0.013300  1
  C  C669  1  0.042700  0.294300  0.948200  1
  C  C670  1  0.957300  0.705700  0.051800  1
  C  C671  1  0.058000  0.257000  0.074300  1
  C  C672  1  0.942000  0.743000  0.925700  1
  C  C673  1  0.045000  0.206000  0.035800  1
  C  C674  1  0.955000  0.794000  0.964200  1
  C  C675  1  0.188300  0.699400  0.037000  1
  C  C676  1  0.811700  0.300600  0.963000  1
  C  C677  1  0.246100  0.865500  0.970700  1
  C  C678  1  0.753900  0.134500  0.029300  1
  N  N679  1  0.216400  0.804700  0.229100  1
  N  N680  1  0.783600  0.195300  0.770900  1
  N  N681  1  0.161700  0.006400  0.808600  1
  N  N682  1  0.838300  0.993600  0.191400  1
  O  O683  1  0.990400  0.583900  0.398900  1
  O  O684  1  0.009600  0.416100  0.601100  1
  O  O685  1  0.405600  0.225400  0.046600  1
  O  O686  1  0.594400  0.774600  0.953400  1
  O  O687  1  0.585400  0.952100  0.092400  1
  O  O688  1  0.414600  0.047900  0.907600  1
  O  O689  1  0.733300  0.310900  0.471100  1
  O  O690  1  0.266700  0.689100  0.528900  1
  O  O691  1  0.760000  0.227400  0.374100  1
  O  O692  1  0.240000  0.772600  0.625900  1
  O  O693  1  0.003200  0.444100  0.380500  1
  O  O694  1  0.996800  0.555900  0.619500  1
  O  O695  1  0.927100  0.613700  0.508900  1
  O  O696  1  0.072900  0.386300  0.491100  1
  O  O697  1  0.065800  0.317400  0.312500  1
  O  O698  1  0.934200  0.682600  0.687500  1
  O  O699  1  0.283100  0.182100  0.024600  1
  O  O700  1  0.716900  0.817900  0.975400  1
  O  O701  1  0.516300  0.115400  0.152400  1
  O  O702  1  0.483700  0.884600  0.847600  1
  O  O703  1  0.721200  0.762100  0.124700  1
  O  O704  1  0.278800  0.237900  0.875300  1
  O  O705  1  0.688500  0.140300  0.292000  1
  O  O706  1  0.311500  0.859700  0.708000  1
  O  O707  1  0.575000  0.092400  0.282700  1
  O  O708  1  0.425000  0.907600  0.717300  1
  O  O709  1  0.551000  0.241800  0.263600  1
  O  O710  1  0.449000  0.758200  0.736400  1
  O  O711  1  0.477600  0.207700  0.350300  1
  O  O712  1  0.522400  0.792300  0.649700  1
  O  O713  1  0.076000  0.658000  0.184600  1
  O  O714  1  0.924000  0.342000  0.815400  1
  O  O715  1  0.020100  0.617500  0.279400  1
  O  O716  1  0.979900  0.382500  0.720600  1
  O  O717  1  0.245300  0.405600  0.304900  1
  O  O718  1  0.754700  0.594400  0.695100  1
  O  O719  1  0.910500  0.687200  0.188800  1
  O  O720  1  0.089500  0.312800  0.811200  1
  O  O721  1  0.967200  0.790700  0.177400  1
  O  O722  1  0.032800  0.209300  0.822600  1
  O  O723  1  0.900000  0.755300  0.289300  1
  O  O724  1  0.100000  0.244700  0.710700  1
  O  O725  1  0.040500  0.745800  0.287100  1
  O  O726  1  0.959500  0.254200  0.712900  1
  O  O727  1  0.878500  0.894400  0.702800  1
  O  O728  1  0.121500  0.105600  0.297200  1
  O  O729  1  0.021200  0.873900  0.687800  1
  O  O730  1  0.978800  0.126100  0.312200  1
  O  O731  1  0.020300  0.824500  0.484600  1
  O  O732  1  0.979700  0.175500  0.515400  1
  O  O733  1  0.887000  0.884100  0.822500  1
  O  O734  1  0.113000  0.115900  0.177500  1
  O  O735  1  0.948100  0.974300  0.773400  1
  O  O736  1  0.051900  0.025700  0.226600  1
  O  O737  1  0.053100  0.844100  0.809500  1
  O  O738  1  0.946900  0.155900  0.190500  1
  O  O739  1  0.989300  0.771300  0.755500  1
  O  O740  1  0.010700  0.228700  0.244500  1
  O  O741  1  0.468800  0.378000  0.902100  1
  O  O742  1  0.531200  0.622000  0.097900  1
  O  O743  1  0.394700  0.324300  0.839200  1
  O  O744  1  0.605300  0.675700  0.160800  1
  O  O745  1  0.201800  0.552000  0.791700  1
  O  O746  1  0.798200  0.448000  0.208300  1
  O  O747  1  0.475700  0.234000  0.935000  1
  O  O748  1  0.524300  0.766000  0.065000  1
  O  O749  1  0.599600  0.260100  0.899900  1
  O  O750  1  0.400400  0.739900  0.100100  1
  O  O751  1  0.526200  0.199200  0.821500  1
  O  O752  1  0.473800  0.800800  0.178500  1
  O  O753  1  0.530500  0.323400  0.792300  1
  O  O754  1  0.469500  0.676600  0.207700  1
  O  O755  1  0.610200  0.101800  0.396400  1
  O  O756  1  0.389800  0.898200  0.603600  1
  O  O757  1  0.607000  0.230600  0.381600  1
  O  O758  1  0.393000  0.769400  0.618400  1
  O  O759  1  0.572900  0.270900  0.588400  1
  O  O760  1  0.427100  0.729100  0.411600  1
