# generated using pymatgen
data_Mo4H186C139(N2O17)2
_symmetry_space_group_name_H-M   'P 1'
_cell_length_a   17.45240000
_cell_length_b   20.43874404
_cell_length_c   20.43874404
_cell_angle_alpha   97.85597026
_cell_angle_beta   92.96004973
_cell_angle_gamma   92.96004973
_symmetry_Int_Tables_number   1
_chemical_formula_structural   Mo4H186C139(N2O17)2
_chemical_formula_sum   'Mo8 H372 C278 N8 O68'
_cell_volume   7199.83837526
_cell_formula_units_Z   2
loop_
 _symmetry_equiv_pos_site_id
 _symmetry_equiv_pos_as_xyz
  1  'x, y, z'
loop_
 _atom_site_type_symbol
 _atom_site_label
 _atom_site_symmetry_multiplicity
 _atom_site_fract_x
 _atom_site_fract_y
 _atom_site_fract_z
 _atom_site_occupancy
  C  C1  1  0.644000  0.665700  0.818500  1
  C  C2  1  0.356000  0.181500  0.334300  1
  C  C3  1  0.268500  0.651000  0.629800  1
  C  C4  1  0.731500  0.370200  0.349000  1
  C  C5  1  0.354400  0.859500  0.152100  1
  C  C6  1  0.645600  0.847900  0.140500  1
  C  C7  1  0.330600  0.096600  0.520400  1
  C  C8  1  0.669400  0.479600  0.903400  1
  C  C9  1  0.071000  0.982200  0.108400  1
  C  C10  1  0.929000  0.891600  0.017800  1
  C  C11  1  0.023100  0.028500  0.140300  1
  C  C12  1  0.976900  0.859700  0.971500  1
  C  C13  1  0.019300  0.087600  0.117600  1
  C  C14  1  0.980700  0.882400  0.912400  1
  C  C15  1  0.063900  0.102500  0.060700  1
  C  C16  1  0.936100  0.939300  0.897500  1
  C  C17  1  0.109200  0.058500  0.030900  1
  C  C18  1  0.890800  0.969100  0.941500  1
  C  C19  1  0.114300  0.993400  0.053800  1
  C  C20  1  0.885700  0.946200  0.006600  1
  C  C21  1  0.158800  0.943700  0.025500  1
  C  C22  1  0.841200  0.974500  0.056300  1
  C  C23  1  0.160500  0.882200  0.048400  1
  C  C24  1  0.839500  0.951600  0.117800  1
  C  C25  1  0.196600  0.827800  0.020200  1
  C  C26  1  0.803400  0.979800  0.172200  1
  C  C27  1  0.193400  0.769600  0.045600  1
  C  C28  1  0.806600  0.954400  0.230400  1
  C  C29  1  0.157300  0.764200  0.105400  1
  C  C30  1  0.842700  0.894600  0.235800  1
  C  C31  1  0.115700  0.816500  0.134500  1
  C  C32  1  0.884300  0.865500  0.183500  1
  C  C33  1  0.118000  0.874300  0.104700  1
  C  C34  1  0.882000  0.895300  0.125700  1
  C  C35  1  0.211200  0.956100  0.971900  1
  C  C36  1  0.788800  0.028100  0.043900  1
  C  C37  1  0.184700  0.956700  0.906100  1
  C  C38  1  0.815300  0.093900  0.043300  1
  C  C39  1  0.239700  0.962500  0.858500  1
  C  C40  1  0.760300  0.141500  0.037500  1
  C  C41  1  0.318400  0.968500  0.873100  1
  C  C42  1  0.681600  0.126900  0.031500  1
  C  C43  1  0.344200  0.971500  0.940700  1
  C  C44  1  0.655800  0.059300  0.028500  1
  C  C45  1  0.291800  0.963900  0.989100  1
  C  C46  1  0.708200  0.010900  0.036100  1
  C  C47  1  0.386300  0.680700  0.298300  1
  C  C48  1  0.613700  0.701700  0.319300  1
  C  C49  1  0.382400  0.706300  0.240100  1
  C  C50  1  0.617600  0.759900  0.293700  1
  C  C51  1  0.330600  0.674400  0.188800  1
  C  C52  1  0.669400  0.811200  0.325600  1
  C  C53  1  0.284000  0.616200  0.198400  1
  C  C54  1  0.716000  0.801600  0.383800  1
  C  C55  1  0.289500  0.591267  0.257933  1
  C  C56  1  0.710500  0.742067  0.408733  1
  C  C57  1  0.341700  0.623400  0.310200  1
  C  C58  1  0.658300  0.689800  0.376600  1
  C  C59  1  0.350300  0.602700  0.373300  1
  C  C60  1  0.649700  0.626700  0.397300  1
  C  C61  1  0.398500  0.638600  0.422600  1
  C  C62  1  0.601500  0.577400  0.361400  1
  C  C63  1  0.407200  0.621300  0.488500  1
  C  C64  1  0.592800  0.511500  0.378700  1
  C  C65  1  0.452200  0.662800  0.536000  1
  C  C66  1  0.547800  0.464000  0.337200  1
  C  C67  1  0.495600  0.721400  0.521200  1
  C  C68  1  0.504400  0.478800  0.278600  1
  C  C69  1  0.490100  0.736300  0.455300  1
  C  C70  1  0.509900  0.544700  0.263700  1
  C  C71  1  0.442200  0.695200  0.408000  1
  C  C72  1  0.557800  0.592000  0.304800  1
  C  C73  1  0.301200  0.543500  0.384900  1
  C  C74  1  0.698800  0.615100  0.456500  1
  C  C75  1  0.327700  0.480400  0.372200  1
  C  C76  1  0.672300  0.627800  0.519600  1
  C  C77  1  0.283000  0.426100  0.385700  1
  C  C78  1  0.717000  0.614300  0.573900  1
  C  C79  1  0.211800  0.435000  0.412000  1
  C  C80  1  0.788200  0.588000  0.565000  1
  C  C81  1  0.185300  0.498200  0.424800  1
  C  C82  1  0.814700  0.575200  0.501800  1
  C  C83  1  0.230000  0.552400  0.411200  1
  C  C84  1  0.770000  0.588800  0.447600  1
  C  C85  1  0.372600  0.949000  0.686800  1
  C  C86  1  0.627400  0.313200  0.051000  1
  C  C87  1  0.355100  0.880300  0.662700  1
  C  C88  1  0.644900  0.337300  0.119700  1
  C  C89  1  0.416600  0.836400  0.668400  1
  C  C90  1  0.583400  0.331600  0.163600  1
  C  C91  1  0.488200  0.862100  0.699500  1
  C  C92  1  0.511800  0.300500  0.137900  1
  C  C93  1  0.502800  0.926200  0.722000  1
  C  C94  1  0.497200  0.278000  0.073800  1
  C  C95  1  0.445600  0.970400  0.713800  1
  C  C96  1  0.554400  0.286200  0.029600  1
  C  C97  1  0.459600  0.041000  0.732600  1
  C  C98  1  0.540400  0.267400  0.959000  1
  C  C99  1  0.399300  0.082900  0.722700  1
  C  C100  1  0.600700  0.277300  0.917100  1
  C  C101  1  0.407100  0.151200  0.738800  1
  C  C102  1  0.592900  0.261200  0.848800  1
  C  C103  1  0.348900  0.189800  0.727000  1
  C  C104  1  0.651100  0.273000  0.810200  1
  C  C105  1  0.271500  0.159500  0.700300  1
  C  C106  1  0.728500  0.299700  0.840500  1
  C  C107  1  0.262400  0.089600  0.688000  1
  C  C108  1  0.737600  0.312000  0.910400  1
  C  C109  1  0.325900  0.052000  0.697200  1
  C  C110  1  0.674100  0.302800  0.948000  1
  C  C111  1  0.536700  0.067700  0.759300  1
  C  C112  1  0.463300  0.240700  0.932300  1
  C  C113  1  0.591800  0.089000  0.718800  1
  C  C114  1  0.408200  0.281200  0.911000  1
  C  C115  1  0.665100  0.110500  0.745500  1
  C  C116  1  0.334900  0.254500  0.889500  1
  C  C117  1  0.683300  0.110700  0.812500  1
  C  C118  1  0.316700  0.187500  0.889300  1
  C  C119  1  0.628300  0.089500  0.852900  1
  C  C120  1  0.371700  0.147100  0.910500  1
  C  C121  1  0.554900  0.068000  0.826200  1
  C  C122  1  0.445100  0.173800  0.932000  1
  C  C123  1  0.185300  0.268900  0.459500  1
  C  C124  1  0.814700  0.540500  0.731100  1
  C  C125  1  0.249900  0.260800  0.501800  1
  C  C126  1  0.750100  0.498200  0.739200  1
  C  C127  1  0.241800  0.280000  0.570400  1
  C  C128  1  0.758200  0.429600  0.720000  1
  C  C129  1  0.170100  0.305100  0.593900  1
  C  C130  1  0.829900  0.406100  0.694900  1
  C  C131  1  0.110600  0.311100  0.550100  1
  C  C132  1  0.889400  0.449900  0.688900  1
  C  C133  1  0.115100  0.294400  0.481600  1
  C  C134  1  0.884900  0.518400  0.705600  1
  C  C135  1  0.054600  0.298800  0.432800  1
  C  C136  1  0.945400  0.567200  0.701200  1
  C  C137  1  0.064800  0.280700  0.367700  1
  C  C138  1  0.935200  0.632300  0.719300  1
  C  C139  1  0.009500  0.283500  0.313100  1
  C  C140  1  0.990500  0.686900  0.716500  1
  C  C141  1  0.022000  0.264100  0.249500  1
  C  C142  1  0.978000  0.750500  0.735900  1
  C  C143  1  0.097200  0.237300  0.233500  1
  C  C144  1  0.902800  0.766500  0.762700  1
  C  C145  1  0.154400  0.232700  0.283900  1
  C  C146  1  0.845600  0.716100  0.767300  1
  C  C147  1  0.136200  0.254000  0.347600  1
  C  C148  1  0.863800  0.652400  0.746000  1
  C  C149  1  0.983500  0.325400  0.455800  1
  C  C150  1  0.016500  0.544200  0.674600  1
  C  C151  1  0.968100  0.388800  0.443400  1
  C  C152  1  0.031900  0.556600  0.611200  1
  C  C153  1  0.902300  0.417600  0.466200  1
  C  C154  1  0.097700  0.533800  0.582400  1
  C  C155  1  0.851900  0.383000  0.501400  1
  C  C156  1  0.148100  0.498600  0.617000  1
  C  C157  1  0.867300  0.319700  0.513900  1
  C  C158  1  0.132700  0.486100  0.680300  1
  C  C159  1  0.933100  0.290900  0.491100  1
  C  C160  1  0.066900  0.508900  0.709100  1
  C  C161  1  0.353900  0.404100  0.083300  1
  C  C162  1  0.646100  0.916700  0.595900  1
  C  C163  1  0.384500  0.475100  0.094900  1
  C  C164  1  0.615500  0.905100  0.524900  1
  C  C165  1  0.475900  0.475400  0.086800  1
  C  C166  1  0.524100  0.913200  0.524600  1
  C  C167  1  0.503200  0.460200  0.017800  1
  C  C168  1  0.496800  0.982200  0.539800  1
  C  C169  1  0.224200  0.436400  0.040400  1
  C  C170  1  0.775800  0.959600  0.563600  1
  C  C171  1  0.245000  0.422400  0.965800  1
  C  C172  1  0.755000  0.034200  0.577600  1
  C  C173  1  0.181400  0.453900  0.925900  1
  C  C174  1  0.818600  0.074100  0.546100  1
  C  C175  1  0.204600  0.456300  0.855500  1
  C  C176  1  0.795400  0.144500  0.543700  1
  C  C177  1  0.246300  0.418600  0.154800  1
  C  C178  1  0.753700  0.845200  0.581400  1
  C  C179  1  0.161900  0.416400  0.164000  1
  C  C180  1  0.838100  0.836000  0.583600  1
  C  C181  1  0.146400  0.424600  0.238600  1
  C  C182  1  0.853600  0.761400  0.575400  1
  C  C183  1  0.059400  0.433700  0.245500  1
  C  C184  1  0.940600  0.754500  0.566300  1
  C  C185  1  0.246500  0.319900  0.064300  1
  C  C186  1  0.753500  0.935700  0.680100  1
  C  C187  1  0.269100  0.274600  0.112000  1
  C  C188  1  0.730900  0.888000  0.725400  1
  C  C189  1  0.258200  0.204400  0.078600  1
  C  C190  1  0.741800  0.921400  0.795600  1
  C  C191  1  0.264200  0.153400  0.123800  1
  C  C192  1  0.735800  0.876200  0.846600  1
  C  C193  1  0.349100  0.732400  0.909800  1
  C  C194  1  0.650900  0.090200  0.267600  1
  C  C195  1  0.327700  0.740800  0.837800  1
  C  C196  1  0.672300  0.162200  0.259200  1
  C  C197  1  0.256800  0.782600  0.835600  1
  C  C198  1  0.743200  0.164400  0.217400  1
  C  C199  1  0.223400  0.779300  0.763900  1
  C  C200  1  0.776600  0.236100  0.220700  1
  C  C201  1  0.441400  0.647000  0.872400  1
  C  C202  1  0.558600  0.127600  0.353000  1
  C  C203  1  0.387300  0.589300  0.884500  1
  C  C204  1  0.612700  0.115500  0.410700  1
  C  C205  1  0.398700  0.528200  0.832200  1
  C  C206  1  0.601300  0.167800  0.471800  1
  C  C207  1  0.362700  0.540600  0.764800  1
  C  C208  1  0.637300  0.235200  0.459400  1
  C  C209  1  0.432600  0.701100  0.989300  1
  C  C210  1  0.567400  0.010700  0.298900  1
  C  C211  1  0.511000  0.677100  0.010900  1
  C  C212  1  0.489000  0.989100  0.322900  1
  C  C213  1  0.509100  0.667300  0.085500  1
  C  C214  1  0.490900  0.914500  0.332700  1
  C  C215  1  0.586100  0.641700  0.107900  1
  C  C216  1  0.413900  0.892100  0.358300  1
  C  C217  1  0.487700  0.758000  0.902000  1
  C  C218  1  0.512300  0.098000  0.242000  1
  C  C219  1  0.484600  0.823600  0.947800  1
  C  C220  1  0.515400  0.052200  0.176400  1
  C  C221  1  0.550100  0.872800  0.936000  1
  C  C222  1  0.449900  0.064000  0.127200  1
  C  C223  1  0.540000  0.893900  0.867300  1
  C  C224  1  0.460000  0.132700  0.106100  1
  C  C225  1  0.104200  0.070300  0.424100  1
  C  C226  1  0.895800  0.575900  0.929700  1
  C  C227  1  0.056300  0.084800  0.484600  1
  C  C228  1  0.943700  0.515400  0.915200  1
  C  C229  1  0.106600  0.122300  0.543300  1
  C  C230  1  0.893400  0.456700  0.877700  1
  C  C231  1  0.060500  0.142200  0.603800  1
  C  C232  1  0.939500  0.396200  0.857800  1
  C  C233  1  0.991400  0.033200  0.346400  1
  C  C234  1  0.008600  0.653600  0.966800  1
  C  C235  1  0.991400  0.101600  0.325800  1
  C  C236  1  0.008600  0.674200  0.898400  1
  C  C237  1  0.909800  0.119900  0.306700  1
  C  C238  1  0.090200  0.693300  0.880100  1
  C  C239  1  0.866400  0.143100  0.368100  1
  C  C240  1  0.133600  0.631900  0.856900  1
  C  C241  1  0.111000  0.009400  0.313000  1
  C  C242  1  0.889000  0.687000  0.990600  1
  C  C243  1  0.194000  0.993500  0.327900  1
  C  C244  1  0.806000  0.672100  0.006500  1
  C  C245  1  0.230000  0.964600  0.263200  1
  C  C246  1  0.770000  0.736800  0.035400  1
  C  C247  1  0.248700  0.020000  0.221800  1
  C  C248  1  0.751300  0.778200  0.980000  1
  C  C249  1  0.058300  0.957300  0.404700  1
  C  C250  1  0.941700  0.595300  0.042700  1
  C  C251  1  0.023800  0.897400  0.356600  1
  C  C252  1  0.976200  0.643400  0.102600  1
  C  C253  1  0.001600  0.841700  0.397900  1
  C  C254  1  0.998400  0.602100  0.158300  1
  C  C255  1  0.969400  0.779400  0.353000  1
  C  C256  1  0.030600  0.647000  0.220600  1
  C  C257  1  0.212000  0.474700  0.927300  1
  C  C258  1  0.788000  0.072700  0.525300  1
  C  C259  1  0.139000  0.445100  0.885500  1
  C  C260  1  0.861000  0.114500  0.554900  1
  C  C261  1  0.498100  0.219600  0.615600  1.0
  C  C262  1  0.501900  0.384400  0.780400  1.0
  C  C263  1  0.048300  0.227700  0.845300  1.0
  C  C264  1  0.951700  0.154700  0.772300  1.0
  C  C265  1  0.050100  0.100900  0.840500  1.0
  C  C266  1  0.949900  0.159500  0.899100  1.0
  C  C267  1  0.111800  0.091700  0.785300  1.0
  C  C268  1  0.888200  0.214700  0.908300  1.0
  C  C269  1  0.101200  0.242200  0.910400  1.0
  C  C270  1  0.898800  0.089600  0.757800  1.0
  C  C271  1  0.435600  0.416000  0.607800  1.0
  C  C272  1  0.564400  0.392200  0.584000  1.0
  C  C273  1  0.356500  0.447300  0.594900  1.0
  C  C274  1  0.643500  0.405100  0.552700  1.0
  C  C275  1  0.524900  0.509300  0.578700  1.0
  C  C276  1  0.475100  0.421300  0.490700  1.0
  C  C277  1  0.555100  0.532000  0.654200  1.0
  C  C278  1  0.444900  0.345800  0.468000  1.0
  H  H279  1  0.689600  0.646900  0.799100  1
  H  H280  1  0.310400  0.200900  0.353100  1
  H  H281  1  0.647800  0.713800  0.820000  1
  H  H282  1  0.352200  0.180000  0.286200  1
  H  H283  1  0.597900  0.647100  0.791500  1
  H  H284  1  0.402100  0.208500  0.352900  1
  H  H285  1  0.623400  0.610100  0.881900  1
  H  H286  1  0.376600  0.118100  0.389900  1
  H  H287  1  0.264200  0.664300  0.677300  1
  H  H288  1  0.735800  0.322700  0.335700  1
  H  H289  1  0.313200  0.624400  0.622800  1
  H  H290  1  0.686800  0.377200  0.375600  1
  H  H291  1  0.221800  0.624900  0.611100  1
  H  H292  1  0.778200  0.388900  0.375100  1
  H  H293  1  0.258100  0.734800  0.624200  1
  H  H294  1  0.741900  0.375800  0.265200  1
  H  H295  1  0.303300  0.867900  0.133900  1
  H  H296  1  0.696700  0.866100  0.132100  1
  H  H297  1  0.387500  0.900300  0.156900  1
  H  H298  1  0.612500  0.843100  0.099700  1
  H  H299  1  0.350000  0.844800  0.195400  1
  H  H300  1  0.650000  0.804600  0.155200  1
  H  H301  1  0.428300  0.813000  0.127200  1
  H  H302  1  0.571700  0.872800  0.187000  1
  H  H303  1  0.300200  0.061400  0.491600  1
  H  H304  1  0.699800  0.508400  0.938600  1
  H  H305  1  0.297100  0.131400  0.536800  1
  H  H306  1  0.702900  0.463200  0.868600  1
  H  H307  1  0.354500  0.078300  0.557900  1
  H  H308  1  0.645500  0.442100  0.921700  1
  H  H309  1  0.412100  0.158000  0.506000  1
  H  H310  1  0.587900  0.494000  0.842000  1
  H  H311  1  0.994500  0.018500  0.176300  1
  H  H312  1  0.005500  0.823700  0.981500  1
  H  H313  1  0.138000  0.068900  0.995100  1
  H  H314  1  0.862000  0.004900  0.931100  1
  H  H315  1  0.224400  0.830900  0.981900  1
  H  H316  1  0.775600  0.018100  0.169100  1
  H  H317  1  0.087400  0.812800  0.172400  1
  H  H318  1  0.912600  0.827600  0.187200  1
  H  H319  1  0.221600  0.962400  0.813800  1
  H  H320  1  0.778400  0.186200  0.037600  1
  H  H321  1  0.353600  0.970500  0.839300  1
  H  H322  1  0.646400  0.160700  0.029500  1
  H  H323  1  0.397500  0.978800  0.953200  1
  H  H324  1  0.602500  0.046800  0.021200  1
  H  H325  1  0.310000  0.964000  0.033800  1
  H  H326  1  0.690000  0.966200  0.036000  1
  H  H327  1  0.413500  0.744500  0.234300  1
  H  H328  1  0.586500  0.765700  0.255500  1
  H  H329  1  0.258900  0.553000  0.264000  1
  H  H330  1  0.741100  0.736000  0.447000  1
  H  H331  1  0.382400  0.581900  0.499100  1
  H  H332  1  0.617600  0.500900  0.418100  1
  H  H333  1  0.518400  0.773400  0.443400  1
  H  H334  1  0.481600  0.556600  0.226600  1
  H  H335  1  0.376400  0.474300  0.354100  1
  H  H336  1  0.623600  0.645900  0.525700  1
  H  H337  1  0.301200  0.382900  0.376900  1
  H  H338  1  0.698800  0.623100  0.617100  1
  H  H339  1  0.181300  0.397900  0.421300  1
  H  H340  1  0.818700  0.578700  0.602100  1
  H  H341  1  0.136600  0.504300  0.442700  1
  H  H342  1  0.863400  0.557300  0.495700  1
  H  H343  1  0.211800  0.595700  0.419900  1
  H  H344  1  0.788200  0.580100  0.404300  1
  H  H345  1  0.305500  0.864400  0.644000  1
  H  H346  1  0.694500  0.356000  0.135600  1
  H  H347  1  0.551400  0.941700  0.743300  1
  H  H348  1  0.448600  0.256700  0.058300  1
  H  H349  1  0.454600  0.171300  0.758500  1
  H  H350  1  0.545400  0.241500  0.828700  1
  H  H351  1  0.213500  0.068300  0.673500  1
  H  H352  1  0.786500  0.326500  0.931700  1
  H  H353  1  0.579300  0.088800  0.673000  1
  H  H354  1  0.420700  0.327000  0.911200  1
  H  H355  1  0.702700  0.125000  0.717800  1
  H  H356  1  0.297300  0.282200  0.875000  1
  H  H357  1  0.733500  0.125500  0.830700  1
  H  H358  1  0.266500  0.169300  0.874500  1
  H  H359  1  0.640700  0.089700  0.898700  1
  H  H360  1  0.359300  0.101300  0.910300  1
  H  H361  1  0.517300  0.053500  0.853900  1
  H  H362  1  0.482700  0.146100  0.946500  1
  H  H363  1  0.295800  0.243600  0.485400  1
  H  H364  1  0.704200  0.514600  0.756400  1
  H  H365  1  0.064100  0.327300  0.566500  1
  H  H366  1  0.935900  0.433500  0.672700  1
  H  H367  1  0.961000  0.300200  0.323000  1
  H  H368  1  0.039000  0.677000  0.699800  1
  H  H369  1  0.202900  0.215700  0.274300  1
  H  H370  1  0.797100  0.725700  0.784300  1
  H  H371  1  0.002500  0.412400  0.419200  1
  H  H372  1  0.997500  0.580800  0.587600  1
  H  H373  1  0.891800  0.460900  0.457700  1
  H  H374  1  0.108200  0.542300  0.539100  1
  H  H375  1  0.807000  0.402700  0.517100  1
  H  H376  1  0.193000  0.482900  0.597300  1
  H  H377  1  0.832900  0.296000  0.538000  1
  H  H378  1  0.167100  0.462000  0.704000  1
  H  H379  1  0.943600  0.247600  0.499600  1
  H  H380  1  0.056400  0.500400  0.752400  1
  H  H381  1  0.377500  0.380500  0.117700  1
  H  H382  1  0.622500  0.882300  0.619500  1
  H  H383  1  0.370100  0.383300  0.039900  1
  H  H384  1  0.629900  0.960100  0.616700  1
  H  H385  1  0.373800  0.495800  0.140000  1
  H  H386  1  0.626200  0.860000  0.504200  1
  H  H387  1  0.359800  0.500300  0.062500  1
  H  H388  1  0.640200  0.937500  0.499700  1
  H  H389  1  0.498700  0.519600  0.106200  1
  H  H390  1  0.501300  0.893800  0.480400  1
  H  H391  1  0.497100  0.443000  0.113600  1
  H  H392  1  0.502900  0.886400  0.557000  1
  H  H393  1  0.559500  0.462100  0.019900  1
  H  H394  1  0.440500  0.980100  0.537900  1
  H  H395  1  0.484800  0.492800  0.990800  1
  H  H396  1  0.515200  0.009200  0.507200  1
  H  H397  1  0.483200  0.415800  0.998200  1
  H  H398  1  0.516800  0.001800  0.584200  1
  H  H399  1  0.236600  0.483800  0.057000  1
  H  H400  1  0.763400  0.943000  0.516200  1
  H  H401  1  0.168200  0.427600  0.043000  1
  H  H402  1  0.831800  0.957000  0.572400  1
  H  H403  1  0.301500  0.423600  0.963200  1
  H  H404  1  0.698500  0.036800  0.576400  1
  H  H405  1  0.223700  0.377900  0.946100  1
  H  H406  1  0.776300  0.053900  0.622100  1
  H  H407  1  0.132100  0.427400  0.925200  1
  H  H408  1  0.867900  0.074800  0.572600  1
  H  H409  1  0.173900  0.499300  0.947700  1
  H  H410  1  0.826100  0.052300  0.500700  1
  H  H411  1  0.164400  0.476200  0.830800  1
  H  H412  1  0.835600  0.169200  0.523800  1
  H  H413  1  0.211300  0.411300  0.833900  1
  H  H414  1  0.788700  0.166100  0.588700  1
  H  H415  1  0.253000  0.483000  0.856400  1
  H  H416  1  0.747000  0.143600  0.517000  1
  H  H417  1  0.271100  0.390700  0.184700  1
  H  H418  1  0.728900  0.815300  0.609300  1
  H  H419  1  0.267800  0.464600  0.167600  1
  H  H420  1  0.732200  0.832400  0.535400  1
  H  H421  1  0.137800  0.373700  0.141900  1
  H  H422  1  0.862200  0.858100  0.626300  1
  H  H423  1  0.138500  0.452300  0.143500  1
  H  H424  1  0.861500  0.856500  0.547700  1
  H  H425  1  0.161400  0.384900  0.257900  1
  H  H426  1  0.838600  0.742100  0.615100  1
  H  H427  1  0.176800  0.463600  0.262600  1
  H  H428  1  0.823200  0.737400  0.536400  1
  H  H429  1  0.048400  0.439000  0.292400  1
  H  H430  1  0.951600  0.707600  0.561000  1
  H  H431  1  0.029700  0.394800  0.222000  1
  H  H432  1  0.970300  0.778000  0.605200  1
  H  H433  1  0.045100  0.473100  0.226500  1
  H  H434  1  0.954900  0.773500  0.526900  1
  H  H435  1  0.190200  0.313600  0.055000  1
  H  H436  1  0.809800  0.945000  0.686400  1
  H  H437  1  0.270700  0.305800  0.022400  1
  H  H438  1  0.729300  0.977600  0.694200  1
  H  H439  1  0.237000  0.280800  0.150800  1
  H  H440  1  0.763000  0.849200  0.719200  1
  H  H441  1  0.323500  0.284700  0.127900  1
  H  H442  1  0.676500  0.872100  0.715300  1
  H  H443  1  0.207000  0.198300  0.054700  1
  H  H444  1  0.793000  0.945300  0.801700  1
  H  H445  1  0.297200  0.197100  0.045300  1
  H  H446  1  0.702800  0.954700  0.802900  1
  H  H447  1  0.256400  0.109300  0.097900  1
  H  H448  1  0.743600  0.902100  0.890700  1
  H  H449  1  0.224800  0.159400  0.156200  1
  H  H450  1  0.775200  0.843800  0.840600  1
  H  H451  1  0.315200  0.158000  0.146800  1
  H  H452  1  0.684800  0.853200  0.842000  1
  H  H453  1  0.346000  0.775200  0.938400  1
  H  H454  1  0.654000  0.061600  0.224800  1
  H  H455  1  0.311500  0.700300  0.924500  1
  H  H456  1  0.688500  0.075500  0.299700  1
  H  H457  1  0.316200  0.696900  0.811100  1
  H  H458  1  0.683800  0.188900  0.303100  1
  H  H459  1  0.371400  0.763100  0.818900  1
  H  H460  1  0.628600  0.181100  0.236900  1
  H  H461  1  0.217200  0.765900  0.863100  1
  H  H462  1  0.782800  0.136900  0.234100  1
  H  H463  1  0.271600  0.829200  0.854000  1
  H  H464  1  0.728400  0.146000  0.170800  1
  H  H465  1  0.178500  0.806100  0.763300  1
  H  H466  1  0.821500  0.236700  0.193900  1
  H  H467  1  0.208100  0.733300  0.745900  1
  H  H468  1  0.791900  0.254100  0.266700  1
  H  H469  1  0.262400  0.796500  0.736900  1
  H  H470  1  0.737600  0.263100  0.203500  1
  H  H471  1  0.495300  0.635300  0.879300  1
  H  H472  1  0.504700  0.120700  0.364700  1
  H  H473  1  0.433300  0.655100  0.825900  1
  H  H474  1  0.566700  0.174100  0.344900  1
  H  H475  1  0.333333  0.601900  0.881100  1
  H  H476  1  0.666667  0.118900  0.398100  1
  H  H477  1  0.398400  0.578200  0.929600  1
  H  H478  1  0.601600  0.070400  0.421800  1
  H  H479  1  0.454200  0.521500  0.828700  1
  H  H480  1  0.545800  0.171300  0.478500  1
  H  H481  1  0.373700  0.488000  0.845600  1
  H  H482  1  0.626300  0.154400  0.512000  1
  H  H483  1  0.369500  0.502400  0.731400  1
  H  H484  1  0.630500  0.268600  0.497600  1
  H  H485  1  0.388000  0.580400  0.751600  1
  H  H486  1  0.612000  0.248400  0.419600  1
  H  H487  1  0.307700  0.546900  0.768500  1
  H  H488  1  0.692300  0.231500  0.453100  1
  H  H489  1  0.391300  0.668800  0.997800  1
  H  H490  1  0.608700  0.002200  0.331200  1
  H  H491  1  0.424400  0.744000  0.016000  1
  H  H492  1  0.575600  0.984000  0.256000  1
  H  H493  1  0.552700  0.710200  0.005200  1
  H  H494  1  0.447300  0.994800  0.289800  1
  H  H495  1  0.520800  0.634800  0.983600  1
  H  H496  1  0.479200  0.016400  0.365200  1
  H  H497  1  0.500400  0.709900  0.112700  1
  H  H498  1  0.499600  0.887300  0.290100  1
  H  H499  1  0.466400  0.635200  0.091200  1
  H  H500  1  0.533600  0.908800  0.364800  1
  H  H501  1  0.585300  0.635400  0.154600  1
  H  H502  1  0.414700  0.845400  0.364600  1
  H  H503  1  0.628100  0.673900  0.102500  1
  H  H504  1  0.371900  0.897500  0.326100  1
  H  H505  1  0.594200  0.599400  0.081000  1
  H  H506  1  0.405800  0.919000  0.400600  1
  H  H507  1  0.488500  0.815400  0.994400  1
  H  H508  1  0.511500  0.005600  0.184600  1
  H  H509  1  0.434600  0.842900  0.939700  1
  H  H510  1  0.565400  0.060300  0.157100  1
  H  H511  1  0.551100  0.912300  0.969900  1
  H  H512  1  0.448900  0.030100  0.087700  1
  H  H513  1  0.599800  0.852100  0.940100  1
  H  H514  1  0.400200  0.059900  0.147900  1
  H  H515  1  0.582400  0.925200  0.861000  1
  H  H516  1  0.417600  0.139000  0.074800  1
  H  H517  1  0.491100  0.915100  0.863300  1
  H  H518  1  0.508900  0.136700  0.084900  1
  H  H519  1  0.539800  0.854900  0.833500  1
  H  H520  1  0.460200  0.166500  0.145100  1
  H  H521  1  0.112100  0.111300  0.403900  1
  H  H522  1  0.887900  0.596100  0.888700  1
  H  H523  1  0.155300  0.056800  0.438600  1
  H  H524  1  0.844700  0.561400  0.943200  1
  H  H525  1  0.034600  0.042700  0.496900  1
  H  H526  1  0.965400  0.503100  0.957300  1
  H  H527  1  0.013000  0.111700  0.473700  1
  H  H528  1  0.987000  0.526300  0.888300  1
  H  H529  1  0.147900  0.094100  0.555500  1
  H  H530  1  0.852100  0.444500  0.905900  1
  H  H531  1  0.131100  0.162700  0.529500  1
  H  H532  1  0.868900  0.470500  0.837300  1
  H  H533  1  0.094900  0.165900  0.639700  1
  H  H534  1  0.905100  0.360300  0.834100  1
  H  H535  1  0.037000  0.102400  0.618200  1
  H  H536  1  0.963000  0.381800  0.897600  1
  H  H537  1  0.020200  0.170900  0.592300  1
  H  H538  1  0.979800  0.407700  0.829100  1
  H  H539  1  0.953100  0.029900  0.380100  1
  H  H540  1  0.046900  0.619900  0.970100  1
  H  H541  1  0.975300  0.000000  0.307600  1
  H  H542  1  0.024700  0.692400  1.000000  1
  H  H543  1  0.023800  0.103200  0.287600  1
  H  H544  1  0.976200  0.712400  0.896800  1
  H  H545  1  0.014000  0.134500  0.362700  1
  H  H546  1  0.986000  0.637300  0.865500  1
  H  H547  1  0.912800  0.155700  0.278500  1
  H  H548  1  0.087200  0.721500  0.844300  1
  H  H549  1  0.881300  0.081100  0.280700  1
  H  H550  1  0.118700  0.719300  0.918900  1
  H  H551  1  0.814700  0.154500  0.354500  1
  H  H552  1  0.185300  0.645500  0.845500  1
  H  H553  1  0.894200  0.182100  0.393500  1
  H  H554  1  0.105800  0.606500  0.817900  1
  H  H555  1  0.862700  0.107700  0.395700  1
  H  H556  1  0.137300  0.604300  0.892300  1
  H  H557  1  0.110500  0.050700  0.292700  1
  H  H558  1  0.889500  0.707300  0.949300  1
  H  H559  1  0.085600  0.973300  0.280700  1
  H  H560  1  0.914400  0.719300  0.026700  1
  H  H561  1  0.195400  0.961200  0.359800  1
  H  H562  1  0.804600  0.640200  0.038800  1
  H  H563  1  0.224100  0.034400  0.348200  1
  H  H564  1  0.775900  0.651800  0.965600  1
  H  H565  1  0.277600  0.943000  0.274200  1
  H  H566  1  0.722400  0.725800  0.057000  1
  H  H567  1  0.193600  0.930800  0.237400  1
  H  H568  1  0.806400  0.762600  0.069200  1
  H  H569  1  0.271400  0.001400  0.181000  1
  H  H570  1  0.728600  0.819000  0.998600  1
  H  H571  1  0.285200  0.053200  0.247400  1
  H  H572  1  0.714800  0.752600  0.946800  1
  H  H573  1  0.201400  0.040900  0.210700  1
  H  H574  1  0.798600  0.789300  0.959100  1
  H  H575  1  0.024700  0.965500  0.442100  1
  H  H576  1  0.975300  0.557900  0.034500  1
  H  H577  1  0.109200  0.946700  0.422700  1
  H  H578  1  0.890800  0.577300  0.053300  1
  H  H579  1  0.061800  0.882100  0.324500  1
  H  H580  1  0.938200  0.675500  0.117900  1
  H  H581  1  0.977800  0.909800  0.331800  1
  H  H582  1  0.022200  0.668200  0.090200  1
  H  H583  1  0.047500  0.831200  0.424000  1
  H  H584  1  0.952500  0.576000  0.168800  1
  H  H585  1  0.962600  0.857200  0.429000  1
  H  H586  1  0.037400  0.571000  0.142800  1
  H  H587  1  0.955800  0.745000  0.380200  1
  H  H588  1  0.044200  0.619800  0.255000  1
  H  H589  1  0.008200  0.763700  0.322700  1
  H  H590  1  0.991800  0.677300  0.236300  1
  H  H591  1  0.923400  0.789600  0.327600  1
  H  H592  1  0.076600  0.672400  0.210400  1
  H  H593  1  0.250400  0.489800  0.898000  1
  H  H594  1  0.749600  0.102000  0.510200  1
  H  H595  1  0.198800  0.513400  0.958600  1
  H  H596  1  0.801200  0.041400  0.486600  1
  H  H597  1  0.117900  0.478700  0.860900  1
  H  H598  1  0.882100  0.139100  0.521300  1
  H  H599  1  0.100600  0.430700  0.914700  1
  H  H600  1  0.899400  0.085300  0.569300  1
  H  H601  1  0.152200  0.407100  0.854300  1
  H  H602  1  0.847800  0.145700  0.592900  1
  H  H603  1  0.492900  0.244300  0.659500  1.0
  H  H604  1  0.507100  0.340500  0.755700  1.0
  H  H605  1  0.546000  0.234600  0.597800  1.0
  H  H606  1  0.454000  0.402200  0.765400  1.0
  H  H607  1  0.499000  0.172200  0.618800  1.0
  H  H608  1  0.501000  0.381200  0.827800  1.0
  H  H609  1  0.401100  0.197900  0.566100  1.0
  H  H610  1  0.598900  0.433900  0.802100  1.0
  H  H611  1  0.080500  0.226900  0.806700  1.0
  H  H612  1  0.919500  0.193300  0.773100  1.0
  H  H613  1  0.012800  0.263700  0.843700  1.0
  H  H614  1  0.987200  0.156300  0.736300  1.0
  H  H615  1  0.016000  0.060200  0.835600  1.0
  H  H616  1  0.984000  0.164400  0.939800  1.0
  H  H617  1  0.078100  0.104800  0.884400  1.0
  H  H618  1  0.921900  0.115600  0.895200  1.0
  H  H619  1  0.140400  0.052500  0.790300  1.0
  H  H620  1  0.859600  0.209700  0.947500  1.0
  H  H621  1  0.147500  0.130900  0.790300  1.0
  H  H622  1  0.852500  0.209700  0.869100  1.0
  H  H623  1  0.085200  0.086000  0.741200  1.0
  H  H624  1  0.914800  0.258800  0.914000  1.0
  H  H625  1  0.130200  0.284700  0.911500  1.0
  H  H626  1  0.869800  0.088500  0.715300  1.0
  H  H627  1  0.137100  0.206900  0.911700  1.0
  H  H628  1  0.862900  0.088300  0.793100  1.0
  H  H629  1  0.069500  0.243900  0.948700  1.0
  H  H630  1  0.930500  0.051300  0.756100  1.0
  H  H631  1  0.452700  0.429300  0.654900  1.0
  H  H632  1  0.547300  0.345100  0.570700  1.0
  H  H633  1  0.426500  0.367300  0.600900  1.0
  H  H634  1  0.573500  0.399100  0.632700  1.0
  H  H635  1  0.319200  0.432300  0.624700  1.0
  H  H636  1  0.680800  0.375300  0.567700  1.0
  H  H637  1  0.337500  0.433400  0.549000  1.0
  H  H638  1  0.662500  0.451000  0.566600  1.0
  H  H639  1  0.363700  0.495600  0.603200  1.0
  H  H640  1  0.636300  0.396800  0.504400  1.0
  H  H641  1  0.480600  0.535000  0.567800  1.0
  H  H642  1  0.519400  0.432200  0.465000  1.0
  H  H643  1  0.566200  0.518400  0.549200  1.0
  H  H644  1  0.433800  0.450800  0.481600  1.0
  H  H645  1  0.570300  0.579400  0.660600  1.0
  H  H646  1  0.429700  0.339400  0.420600  1.0
  H  H647  1  0.599500  0.507000  0.664800  1.0
  H  H648  1  0.400500  0.335200  0.493000  1.0
  H  H649  1  0.514000  0.523600  0.683400  1.0
  H  H650  1  0.486000  0.316600  0.476400  1.0
  Mo  Mo651  1  0.003740  0.229250  0.107210  1
  Mo  Mo652  1  0.996260  0.892790  0.770750  1
  Mo  Mo653  1  0.226270  0.635550  0.068030  1
  Mo  Mo654  1  0.773730  0.931970  0.364450  1
  Mo  Mo655  1  0.516460  0.722000  0.664600  1
  Mo  Mo656  1  0.483540  0.335400  0.278000  1
  Mo  Mo657  1  0.259230  0.304190  0.717590  1
  Mo  Mo658  1  0.740770  0.282410  0.695810  1
  N  N659  1  0.266500  0.394800  0.084000  1
  N  N660  1  0.733500  0.916000  0.605200  1
  N  N661  1  0.427800  0.708900  0.918100  1
  N  N662  1  0.572200  0.081900  0.291100  1
  N  N663  1  1.000000  0.159500  0.840500  1
  N  N664  1  0.500000  0.433500  0.566500  1
  N  N665  1  0.067300  0.017600  0.373800  1
  N  N666  1  0.932700  0.626200  0.982400  1
  O  O667  1  0.500000  0.294800  0.705200  1
  O  O668  1  0.639100  0.649800  0.883600  1
  O  O669  1  0.360900  0.116400  0.350200  1
  O  O670  1  0.276500  0.702700  0.601300  1
  O  O671  1  0.723500  0.398700  0.297300  1
  O  O672  1  0.382400  0.816500  0.114500  1
  O  O673  1  0.617600  0.885500  0.183500  1
  O  O674  1  0.390200  0.124300  0.483100  1
  O  O675  1  0.609800  0.516900  0.875700  1
  O  O676  1  1.000000  0.297500  0.702500  1
  O  O677  1  0.048300  0.293700  0.075900  1
  O  O678  1  0.951700  0.924100  0.706300  1
  O  O679  1  0.908900  0.230200  0.077800  1
  O  O680  1  0.091100  0.922200  0.769800  1
  O  O681  1  0.054600  0.161400  0.044200  1
  O  O682  1  0.945400  0.955800  0.838600  1
  O  O683  1  0.979000  0.135600  0.142800  1
  O  O684  1  0.021000  0.857200  0.864400  1
  O  O685  1  0.229200  0.714500  0.019900  1
  O  O686  1  0.770800  0.980100  0.285500  1
  O  O687  1  0.161200  0.707300  0.128100  1
  O  O688  1  0.838800  0.871900  0.292700  1
  O  O689  1  0.075300  0.923100  0.133100  1
  O  O690  1  0.924700  0.866900  0.076900  1
  O  O691  1  0.293100  0.597100  0.018700  1
  O  O692  1  0.706900  0.981300  0.402900  1
  O  O693  1  0.143500  0.590200  0.041400  1
  O  O694  1  0.856500  0.958600  0.409800  1
  O  O695  1  0.317100  0.694200  0.130600  1
  O  O696  1  0.682900  0.869400  0.305800  1
  O  O697  1  0.235900  0.591500  0.149100  1
  O  O698  1  0.764100  0.850900  0.408500  1
  O  O699  1  0.462200  0.651300  0.597100  1
  O  O700  1  0.537800  0.402900  0.348700  1
  O  O701  1  0.532500  0.755600  0.569200  1
  O  O702  1  0.467500  0.430800  0.244400  1
  O  O703  1  0.435100  0.714700  0.347300  1
  O  O704  1  0.564900  0.652700  0.285300  1
  O  O705  1  0.611700  0.705400  0.668600  1
  O  O706  1  0.388300  0.331400  0.294600  1
  O  O707  1  0.478000  0.687700  0.729300  1
  O  O708  1  0.522000  0.270700  0.312300  1
  O  O709  1  0.409700  0.773300  0.648500  1
  O  O710  1  0.590300  0.351500  0.226700  1
  O  O711  1  0.544200  0.815900  0.702100  1
  O  O712  1  0.455800  0.297900  0.184100  1
  O  O713  1  0.353500  0.254500  0.739700  1
  O  O714  1  0.646500  0.260300  0.745500  1
  O  O715  1  0.220300  0.197800  0.691600  1
  O  O716  1  0.779700  0.308400  0.802200  1
  O  O717  1  0.314000  0.987200  0.681200  1
  O  O718  1  0.686000  0.318800  0.012800  1
  O  O719  1  0.203500  0.306300  0.785500  1
  O  O720  1  0.796500  0.214500  0.693700  1
  O  O721  1  0.312200  0.379000  0.725000  1
  O  O722  1  0.687800  0.275000  0.621000  1
  O  O723  1  0.169400  0.318900  0.658700  1
  O  O724  1  0.830600  0.341300  0.681100  1
  O  O725  1  0.296700  0.277700  0.615900  1
  O  O726  1  0.703300  0.384100  0.722300  1
  O  O727  1  0.976500  0.267800  0.198000  1
  O  O728  1  0.023500  0.802000  0.732200  1
  O  O729  1  0.106100  0.222000  0.171200  1
  O  O730  1  0.893900  0.828800  0.778000  1
  O  O731  1  0.192000  0.248900  0.394900  1
  O  O732  1  0.808000  0.605100  0.751100  1
  O  O733  1  0.432400  0.231100  0.571100  1.0
  O  O734  1  0.567600  0.428900  0.768900  1.0
