# generated using pymatgen
data_GaH15C65(N2O3)7
_symmetry_space_group_name_H-M   'P 1'
_cell_length_a   14.28300000
_cell_length_b   14.28300000
_cell_length_c   42.96600000
_cell_angle_alpha   90.00000000
_cell_angle_beta   90.00000000
_cell_angle_gamma   120.00000000
_symmetry_Int_Tables_number   1
_chemical_formula_structural   GaH15C65(N2O3)7
_chemical_formula_sum   'Ga4 H60 C260 N56 O84'
_cell_volume   7590.92024005
_cell_formula_units_Z   4
loop_
 _symmetry_equiv_pos_site_id
 _symmetry_equiv_pos_as_xyz
  1  'x, y, z'
loop_
 _atom_site_type_symbol
 _atom_site_label
 _atom_site_symmetry_multiplicity
 _atom_site_fract_x
 _atom_site_fract_y
 _atom_site_fract_z
 _atom_site_occupancy
  Ga  Ga1  1  0.333333  0.666667  0.888200  1.0
  Ga  Ga2  1  0.333333  0.666667  0.611800  1.0
  Ga  Ga3  1  0.666667  0.333333  0.111800  1.0
  Ga  Ga4  1  0.666667  0.333333  0.388200  1.0
  H  H5  1  0.478000  0.563300  0.986600  1.0
  H  H6  1  0.085300  0.522000  0.986600  1.0
  H  H7  1  0.085300  0.563300  0.513400  1.0
  H  H8  1  0.436700  0.914700  0.986600  1.0
  H  H9  1  0.478000  0.914700  0.513400  1.0
  H  H10  1  0.436700  0.522000  0.513400  1.0
  H  H11  1  0.522000  0.436700  0.013400  1.0
  H  H12  1  0.914700  0.478000  0.013400  1.0
  H  H13  1  0.914700  0.436700  0.486600  1.0
  H  H14  1  0.563300  0.085300  0.013400  1.0
  H  H15  1  0.522000  0.085300  0.486600  1.0
  H  H16  1  0.563300  0.478000  0.486600  1.0
  H  H17  1  0.438400  0.589200  0.957600  1.0
  H  H18  1  0.150800  0.561600  0.957600  1.0
  H  H19  1  0.150800  0.589200  0.542400  1.0
  H  H20  1  0.410800  0.849200  0.957600  1.0
  H  H21  1  0.438400  0.849200  0.542400  1.0
  H  H22  1  0.410800  0.561600  0.542400  1.0
  H  H23  1  0.561600  0.410800  0.042400  1.0
  H  H24  1  0.849200  0.438400  0.042400  1.0
  H  H25  1  0.849200  0.410800  0.457600  1.0
  H  H26  1  0.589200  0.150800  0.042400  1.0
  H  H27  1  0.561600  0.150800  0.457600  1.0
  H  H28  1  0.589200  0.438400  0.457600  1.0
  H  H29  1  0.261700  0.468100  0.823200  1.0
  H  H30  1  0.206400  0.738300  0.823200  1.0
  H  H31  1  0.206400  0.468100  0.676800  1.0
  H  H32  1  0.531900  0.793600  0.823200  1.0
  H  H33  1  0.261700  0.793600  0.676800  1.0
  H  H34  1  0.531900  0.738300  0.676800  1.0
  H  H35  1  0.738300  0.531900  0.176800  1.0
  H  H36  1  0.793600  0.261700  0.176800  1.0
  H  H37  1  0.793600  0.531900  0.323200  1.0
  H  H38  1  0.468100  0.206400  0.176800  1.0
  H  H39  1  0.738300  0.206400  0.323200  1.0
  H  H40  1  0.468100  0.261700  0.323200  1.0
  H  H41  1  0.368400  0.278900  0.922500  1.0
  H  H42  1  0.910500  0.631600  0.922500  1.0
  H  H43  1  0.910500  0.278900  0.577500  1.0
  H  H44  1  0.721100  0.089500  0.922500  1.0
  H  H45  1  0.368400  0.089500  0.577500  1.0
  H  H46  1  0.721100  0.631600  0.577500  1.0
  H  H47  1  0.631600  0.721100  0.077500  1.0
  H  H48  1  0.089500  0.368400  0.077500  1.0
  H  H49  1  0.089500  0.721100  0.422500  1.0
  H  H50  1  0.278900  0.910500  0.077500  1.0
  H  H51  1  0.631600  0.910500  0.422500  1.0
  H  H52  1  0.278900  0.368400  0.422500  1.0
  H  H53  1  0.303900  0.233700  0.873500  1.0
  H  H54  1  0.929800  0.696100  0.873500  1.0
  H  H55  1  0.929800  0.233700  0.626500  1.0
  H  H56  1  0.766300  0.070200  0.873500  1.0
  H  H57  1  0.303900  0.070200  0.626500  1.0
  H  H58  1  0.766300  0.696100  0.626500  1.0
  H  H59  1  0.696100  0.766300  0.126500  1.0
  H  H60  1  0.070200  0.303900  0.126500  1.0
  H  H61  1  0.070200  0.766300  0.373500  1.0
  H  H62  1  0.233700  0.929800  0.126500  1.0
  H  H63  1  0.696100  0.929800  0.373500  1.0
  H  H64  1  0.233700  0.303900  0.373500  1.0
  C  C65  1  0.666667  0.333367  0.976400  1
  C  C66  1  0.666700  0.333367  0.523600  1
  C  C67  1  0.333333  0.666633  0.023600  1
  C  C68  1  0.333300  0.666633  0.476400  1
  C  C69  1  0.000000  0.000000  0.826300  1
  C  C70  1  0.000000  0.000000  0.673700  1
  C  C71  1  0.000000  0.000000  0.173700  1
  C  C72  1  0.000000  0.000000  0.326300  1
  C  C73  1  0.287800  0.964200  0.917700  1
  C  C74  1  0.676400  0.712200  0.917700  1
  C  C75  1  0.676400  0.964200  0.582300  1
  C  C76  1  0.035800  0.323600  0.917700  1
  C  C77  1  0.287800  0.323600  0.582300  1
  C  C78  1  0.035800  0.712200  0.582300  1
  C  C79  1  0.712200  0.035800  0.082300  1
  C  C80  1  0.323600  0.287800  0.082300  1
  C  C81  1  0.323600  0.035800  0.417700  1
  C  C82  1  0.964200  0.676400  0.082300  1
  C  C83  1  0.712200  0.676400  0.417700  1
  C  C84  1  0.964200  0.287800  0.417700  1
  C  C85  1  0.191600  0.856500  0.960900  1
  C  C86  1  0.664900  0.808400  0.960900  1
  C  C87  1  0.664900  0.856500  0.539100  1
  C  C88  1  0.143500  0.335100  0.960900  1
  C  C89  1  0.191600  0.335100  0.539100  1
  C  C90  1  0.143500  0.808400  0.539100  1
  C  C91  1  0.808400  0.143500  0.039100  1
  C  C92  1  0.335100  0.191600  0.039100  1
  C  C93  1  0.335100  0.143500  0.460900  1
  C  C94  1  0.856500  0.664900  0.039100  1
  C  C95  1  0.808400  0.664900  0.460900  1
  C  C96  1  0.856500  0.191600  0.460900  1
  C  C97  1  0.212100  0.027000  0.959600  1
  C  C98  1  0.814900  0.787900  0.959600  1
  C  C99  1  0.814900  0.027000  0.540400  1
  C  C100  1  0.973000  0.185100  0.959600  1
  C  C101  1  0.212100  0.185100  0.540400  1
  C  C102  1  0.973000  0.787900  0.540400  1
  C  C103  1  0.787900  0.973000  0.040400  1
  C  C104  1  0.185100  0.212100  0.040400  1
  C  C105  1  0.185100  0.973000  0.459600  1
  C  C106  1  0.027000  0.814900  0.040400  1
  C  C107  1  0.787900  0.814900  0.459600  1
  C  C108  1  0.027000  0.212100  0.459600  1
  C  C109  1  0.413200  0.969000  0.829600  1
  C  C110  1  0.555800  0.586800  0.829600  1
  C  C111  1  0.555800  0.969000  0.670400  1
  C  C112  1  0.031000  0.444200  0.829600  1
  C  C113  1  0.413200  0.444200  0.670400  1
  C  C114  1  0.031000  0.586800  0.670400  1
  C  C115  1  0.586800  0.031000  0.170400  1
  C  C116  1  0.444200  0.413200  0.170400  1
  C  C117  1  0.444200  0.031000  0.329600  1
  C  C118  1  0.969000  0.555800  0.170400  1
  C  C119  1  0.586800  0.555800  0.329600  1
  C  C120  1  0.969000  0.413200  0.329600  1
  C  C121  1  0.411600  0.136700  0.828500  1
  C  C122  1  0.725100  0.588400  0.828500  1
  C  C123  1  0.725100  0.136700  0.671500  1
  C  C124  1  0.863300  0.274900  0.828500  1
  C  C125  1  0.411600  0.274900  0.671500  1
  C  C126  1  0.863300  0.588400  0.671500  1
  C  C127  1  0.588400  0.863300  0.171500  1
  C  C128  1  0.274900  0.411600  0.171500  1
  C  C129  1  0.274900  0.863300  0.328500  1
  C  C130  1  0.136700  0.725100  0.171500  1
  C  C131  1  0.588400  0.725100  0.328500  1
  C  C132  1  0.136700  0.411600  0.328500  1
  C  C133  1  0.539700  0.126500  0.854400  1
  C  C134  1  0.586800  0.460300  0.854400  1
  C  C135  1  0.586800  0.126500  0.645600  1
  C  C136  1  0.873500  0.413200  0.854400  1
  C  C137  1  0.539700  0.413200  0.645600  1
  C  C138  1  0.873500  0.460300  0.645600  1
  C  C139  1  0.460300  0.873500  0.145600  1
  C  C140  1  0.413200  0.539700  0.145600  1
  C  C141  1  0.413200  0.873500  0.354400  1
  C  C142  1  0.126500  0.586800  0.145600  1
  C  C143  1  0.460300  0.586800  0.354400  1
  C  C144  1  0.126500  0.539700  0.354400  1
  C  C145  1  0.422200  0.036900  0.847800  1
  C  C146  1  0.614700  0.577800  0.847800  1
  C  C147  1  0.614700  0.036900  0.652200  1
  C  C148  1  0.963100  0.385300  0.847800  1
  C  C149  1  0.422200  0.385300  0.652200  1
  C  C150  1  0.963100  0.577800  0.652200  1
  C  C151  1  0.577800  0.963100  0.152200  1
  C  C152  1  0.385300  0.422200  0.152200  1
  C  C153  1  0.385300  0.963100  0.347800  1
  C  C154  1  0.036900  0.614700  0.152200  1
  C  C155  1  0.577800  0.614700  0.347800  1
  C  C156  1  0.036900  0.422200  0.347800  1
  C  C157  1  0.294100  0.064900  0.965600  1
  C  C158  1  0.770800  0.705900  0.965600  1
  C  C159  1  0.770800  0.064900  0.534400  1
  C  C160  1  0.935100  0.229200  0.965600  1
  C  C161  1  0.294100  0.229200  0.534400  1
  C  C162  1  0.935100  0.705900  0.534400  1
  C  C163  1  0.705900  0.935100  0.034400  1
  C  C164  1  0.229200  0.294100  0.034400  1
  C  C165  1  0.229200  0.935100  0.465600  1
  C  C166  1  0.064900  0.770800  0.034400  1
  C  C167  1  0.705900  0.770800  0.465600  1
  C  C168  1  0.064900  0.294100  0.465600  1
  C  C169  1  0.559900  0.239400  0.930100  1.0
  C  C170  1  0.679500  0.440100  0.930100  1.0
  C  C171  1  0.679500  0.239400  0.569900  1.0
  C  C172  1  0.760600  0.320500  0.930100  1.0
  C  C173  1  0.559900  0.320500  0.569900  1.0
  C  C174  1  0.760600  0.440100  0.569900  1.0
  C  C175  1  0.440100  0.760600  0.069900  1.0
  C  C176  1  0.320500  0.559900  0.069900  1.0
  C  C177  1  0.320500  0.760600  0.430100  1.0
  C  C178  1  0.239400  0.679500  0.069900  1.0
  C  C179  1  0.440100  0.679500  0.430100  1.0
  C  C180  1  0.239400  0.559900  0.430100  1.0
  C  C181  1  0.006000  0.102400  0.872700  1.0
  C  C182  1  0.096400  0.994000  0.872700  1.0
  C  C183  1  0.096400  0.102400  0.627300  1.0
  C  C184  1  0.897600  0.903600  0.872700  1.0
  C  C185  1  0.006000  0.903600  0.627300  1.0
  C  C186  1  0.897600  0.994000  0.627300  1.0
  C  C187  1  0.994000  0.897600  0.127300  1.0
  C  C188  1  0.903600  0.006000  0.127300  1.0
  C  C189  1  0.903600  0.897600  0.372700  1.0
  C  C190  1  0.102400  0.096400  0.127300  1.0
  C  C191  1  0.994000  0.096400  0.372700  1.0
  C  C192  1  0.102400  0.006000  0.372700  1.0
  C  C193  1  0.368500  0.500700  0.906500  1.0
  C  C194  1  0.132200  0.631500  0.906500  1.0
  C  C195  1  0.132200  0.500700  0.593500  1.0
  C  C196  1  0.499300  0.867800  0.906500  1.0
  C  C197  1  0.368500  0.867800  0.593500  1.0
  C  C198  1  0.499300  0.631500  0.593500  1.0
  C  C199  1  0.631500  0.499300  0.093500  1.0
  C  C200  1  0.867800  0.368500  0.093500  1.0
  C  C201  1  0.867800  0.499300  0.406500  1.0
  C  C202  1  0.500700  0.132200  0.093500  1.0
  C  C203  1  0.631500  0.132200  0.406500  1.0
  C  C204  1  0.500700  0.368500  0.406500  1.0
  C  C205  1  0.385700  0.428700  0.923700  1.0
  C  C206  1  0.043000  0.614300  0.923700  1.0
  C  C207  1  0.043000  0.428700  0.576300  1.0
  C  C208  1  0.571300  0.957000  0.923700  1.0
  C  C209  1  0.385700  0.957000  0.576300  1.0
  C  C210  1  0.571300  0.614300  0.576300  1.0
  C  C211  1  0.614300  0.571300  0.076300  1.0
  C  C212  1  0.957000  0.385700  0.076300  1.0
  C  C213  1  0.957000  0.571300  0.423700  1.0
  C  C214  1  0.428700  0.043000  0.076300  1.0
  C  C215  1  0.614300  0.043000  0.423700  1.0
  C  C216  1  0.428700  0.385700  0.423700  1.0
  C  C217  1  0.358400  0.327800  0.910700  1.0
  C  C218  1  0.969400  0.641600  0.910700  1.0
  C  C219  1  0.969400  0.327800  0.589300  1.0
  C  C220  1  0.672200  0.030600  0.910700  1.0
  C  C221  1  0.358400  0.030600  0.589300  1.0
  C  C222  1  0.672200  0.641600  0.589300  1.0
  C  C223  1  0.641600  0.672200  0.089300  1.0
  C  C224  1  0.030600  0.358400  0.089300  1.0
  C  C225  1  0.030600  0.672200  0.410700  1.0
  C  C226  1  0.327800  0.969400  0.089300  1.0
  C  C227  1  0.641600  0.969400  0.410700  1.0
  C  C228  1  0.327800  0.358400  0.410700  1.0
  C  C229  1  0.318200  0.299900  0.881700  1.0
  C  C230  1  0.981700  0.681800  0.881700  1.0
  C  C231  1  0.981700  0.299900  0.618300  1.0
  C  C232  1  0.700100  0.018300  0.881700  1.0
  C  C233  1  0.318200  0.018300  0.618300  1.0
  C  C234  1  0.700100  0.681800  0.618300  1.0
  C  C235  1  0.681800  0.700100  0.118300  1.0
  C  C236  1  0.018300  0.318200  0.118300  1.0
  C  C237  1  0.018300  0.700100  0.381700  1.0
  C  C238  1  0.299900  0.981700  0.118300  1.0
  C  C239  1  0.681800  0.981700  0.381700  1.0
  C  C240  1  0.299900  0.318200  0.381700  1.0
  C  C241  1  0.297500  0.370200  0.863600  1.0
  C  C242  1  0.072700  0.702500  0.863600  1.0
  C  C243  1  0.072700  0.370200  0.636400  1.0
  C  C244  1  0.629800  0.927300  0.863600  1.0
  C  C245  1  0.297500  0.927300  0.636400  1.0
  C  C246  1  0.629800  0.702500  0.636400  1.0
  C  C247  1  0.702500  0.629800  0.136400  1.0
  C  C248  1  0.927300  0.297500  0.136400  1.0
  C  C249  1  0.927300  0.629800  0.363600  1.0
  C  C250  1  0.370200  0.072700  0.136400  1.0
  C  C251  1  0.702500  0.072700  0.363600  1.0
  C  C252  1  0.370200  0.297500  0.363600  1.0
  C  C253  1  0.319200  0.468800  0.876200  1.0
  C  C254  1  0.149600  0.680800  0.876200  1.0
  C  C255  1  0.149600  0.468800  0.623800  1.0
  C  C256  1  0.531200  0.850400  0.876200  1.0
  C  C257  1  0.319200  0.850400  0.623800  1.0
  C  C258  1  0.531200  0.680800  0.623800  1.0
  C  C259  1  0.680800  0.531200  0.123800  1.0
  C  C260  1  0.850400  0.319200  0.123800  1.0
  C  C261  1  0.850400  0.531200  0.376200  1.0
  C  C262  1  0.468800  0.149600  0.123800  1.0
  C  C263  1  0.680800  0.149600  0.376200  1.0
  C  C264  1  0.468800  0.319200  0.376200  1.0
  C  C265  1  0.430000  0.452800  0.956300  1.0
  C  C266  1  0.022800  0.570000  0.956300  1.0
  C  C267  1  0.022800  0.452800  0.543700  1.0
  C  C268  1  0.547200  0.977200  0.956300  1.0
  C  C269  1  0.430000  0.977200  0.543700  1.0
  C  C270  1  0.547200  0.570000  0.543700  1.0
  C  C271  1  0.570000  0.547200  0.043700  1.0
  C  C272  1  0.977200  0.430000  0.043700  1.0
  C  C273  1  0.977200  0.547200  0.456300  1.0
  C  C274  1  0.452800  0.022800  0.043700  1.0
  C  C275  1  0.570000  0.022800  0.456300  1.0
  C  C276  1  0.452800  0.430000  0.456300  1.0
  C  C277  1  0.259500  0.336900  0.831000  1.0
  C  C278  1  0.077400  0.740500  0.831000  1.0
  C  C279  1  0.077400  0.336900  0.669000  1.0
  C  C280  1  0.663100  0.922600  0.831000  1.0
  C  C281  1  0.259500  0.922600  0.669000  1.0
  C  C282  1  0.663100  0.740500  0.669000  1.0
  C  C283  1  0.740500  0.663100  0.169000  1.0
  C  C284  1  0.922600  0.259500  0.169000  1.0
  C  C285  1  0.922600  0.663100  0.331000  1.0
  C  C286  1  0.336900  0.077400  0.169000  1.0
  C  C287  1  0.740500  0.077400  0.331000  1.0
  C  C288  1  0.336900  0.259500  0.331000  1.0
  C  C289  1  0.224300  0.404000  0.781600  1.0
  C  C290  1  0.179700  0.775700  0.781600  1.0
  C  C291  1  0.179700  0.404000  0.718400  1.0
  C  C292  1  0.596000  0.820300  0.781600  1.0
  C  C293  1  0.224300  0.820300  0.718400  1.0
  C  C294  1  0.596000  0.775700  0.718400  1.0
  C  C295  1  0.775700  0.596000  0.218400  1.0
  C  C296  1  0.820300  0.224300  0.218400  1.0
  C  C297  1  0.820300  0.596000  0.281600  1.0
  C  C298  1  0.404000  0.179700  0.218400  1.0
  C  C299  1  0.775700  0.179700  0.281600  1.0
  C  C300  1  0.404000  0.224300  0.281600  1.0
  C  C301  1  0.165900  0.310900  0.766300  1.0
  C  C302  1  0.145000  0.834100  0.766300  1.0
  C  C303  1  0.145000  0.310900  0.733700  1.0
  C  C304  1  0.689100  0.855000  0.766300  1.0
  C  C305  1  0.165900  0.855000  0.733700  1.0
  C  C306  1  0.689100  0.834100  0.733700  1.0
  C  C307  1  0.834100  0.689100  0.233700  1.0
  C  C308  1  0.855000  0.165900  0.233700  1.0
  C  C309  1  0.855000  0.689100  0.266300  1.0
  C  C310  1  0.310900  0.145000  0.233700  1.0
  C  C311  1  0.834100  0.145000  0.266300  1.0
  C  C312  1  0.310900  0.165900  0.266300  1.0
  C  C313  1  0.259400  0.496200  0.765800  1.0
  C  C314  1  0.236800  0.740600  0.765800  1.0
  C  C315  1  0.236800  0.496200  0.734200  1.0
  C  C316  1  0.503800  0.763200  0.765800  1.0
  C  C317  1  0.259400  0.763200  0.734200  1.0
  C  C318  1  0.503800  0.740600  0.734200  1.0
  C  C319  1  0.740600  0.503800  0.234200  1.0
  C  C320  1  0.763200  0.259400  0.234200  1.0
  C  C321  1  0.763200  0.503800  0.265800  1.0
  C  C322  1  0.496200  0.236800  0.234200  1.0
  C  C323  1  0.740600  0.236800  0.265800  1.0
  C  C324  1  0.496200  0.259400  0.265800  1.0
  N  N325  1  0.666667  0.333367  0.942400  1
  N  N326  1  0.666700  0.333367  0.557600  1
  N  N327  1  0.333333  0.666633  0.057600  1
  N  N328  1  0.333300  0.666633  0.442400  1
  N  N329  1  0.000000  0.000000  0.861500  1
  N  N330  1  0.000000  0.000000  0.638500  1
  N  N331  1  0.000000  0.000000  0.138500  1
  N  N332  1  0.000000  0.000000  0.361500  1
  N  N333  1  0.237000  0.957500  0.946600  1
  N  N334  1  0.720500  0.763000  0.946600  1
  N  N335  1  0.720500  0.957500  0.553400  1
  N  N336  1  0.042500  0.279500  0.946600  1
  N  N337  1  0.237000  0.279500  0.553400  1
  N  N338  1  0.042500  0.763000  0.553400  1
  N  N339  1  0.763000  0.042500  0.053400  1
  N  N340  1  0.279500  0.237000  0.053400  1
  N  N341  1  0.279500  0.042500  0.446600  1
  N  N342  1  0.957500  0.720500  0.053400  1
  N  N343  1  0.763000  0.720500  0.446600  1
  N  N344  1  0.957500  0.237000  0.446600  1
  N  N345  1  0.455800  0.089000  0.830500  1
  N  N346  1  0.633200  0.544200  0.830500  1
  N  N347  1  0.633200  0.089000  0.669500  1
  N  N348  1  0.911000  0.366800  0.830500  1
  N  N349  1  0.455800  0.366800  0.669500  1
  N  N350  1  0.911000  0.544200  0.669500  1
  N  N351  1  0.544200  0.911000  0.169500  1
  N  N352  1  0.366800  0.455800  0.169500  1
  N  N353  1  0.366800  0.911000  0.330500  1
  N  N354  1  0.089000  0.633200  0.169500  1
  N  N355  1  0.544200  0.633200  0.330500  1
  N  N356  1  0.089000  0.455800  0.330500  1
  N  N357  1  0.451200  0.545700  0.968200  1.0
  N  N358  1  0.094500  0.548800  0.968200  1.0
  N  N359  1  0.094500  0.545700  0.531800  1.0
  N  N360  1  0.454300  0.905500  0.968200  1.0
  N  N361  1  0.451200  0.905500  0.531800  1.0
  N  N362  1  0.454300  0.548800  0.531800  1.0
  N  N363  1  0.548800  0.454300  0.031800  1.0
  N  N364  1  0.905500  0.451200  0.031800  1.0
  N  N365  1  0.905500  0.454300  0.468200  1.0
  N  N366  1  0.545700  0.094500  0.031800  1.0
  N  N367  1  0.548800  0.094500  0.468200  1.0
  N  N368  1  0.545700  0.451200  0.468200  1.0
  N  N369  1  0.250400  0.410400  0.813700  1.0
  N  N370  1  0.160000  0.749600  0.813700  1.0
  N  N371  1  0.160000  0.410400  0.686300  1.0
  N  N372  1  0.589600  0.840000  0.813700  1.0
  N  N373  1  0.250400  0.840000  0.686300  1.0
  N  N374  1  0.589600  0.749600  0.686300  1.0
  N  N375  1  0.749600  0.589600  0.186300  1.0
  N  N376  1  0.840000  0.250400  0.186300  1.0
  N  N377  1  0.840000  0.589600  0.313700  1.0
  N  N378  1  0.410400  0.160000  0.186300  1.0
  N  N379  1  0.749600  0.160000  0.313700  1.0
  N  N380  1  0.410400  0.250400  0.313700  1.0
  O  O381  1  0.338200  0.054700  0.900300  1
  O  O382  1  0.716500  0.661800  0.900300  1
  O  O383  1  0.716500  0.054700  0.599700  1
  O  O384  1  0.945300  0.283500  0.900300  1
  O  O385  1  0.338200  0.283500  0.599700  1
  O  O386  1  0.945300  0.661800  0.599700  1
  O  O387  1  0.661800  0.945300  0.099700  1
  O  O388  1  0.283500  0.338200  0.099700  1
  O  O389  1  0.283500  0.945300  0.400300  1
  O  O390  1  0.054700  0.716500  0.099700  1
  O  O391  1  0.661800  0.716500  0.400300  1
  O  O392  1  0.054700  0.338200  0.400300  1
  O  O393  1  0.212200  0.106000  0.770900  1
  O  O394  1  0.893800  0.787800  0.770900  1
  O  O395  1  0.893800  0.106000  0.729100  1
  O  O396  1  0.894000  0.106200  0.770900  1
  O  O397  1  0.212200  0.106200  0.729100  1
  O  O398  1  0.894000  0.787800  0.729100  1
  O  O399  1  0.787800  0.894000  0.229100  1
  O  O400  1  0.106200  0.212200  0.229100  1
  O  O401  1  0.106200  0.894000  0.270900  1
  O  O402  1  0.106000  0.893800  0.229100  1
  O  O403  1  0.787800  0.893800  0.270900  1
  O  O404  1  0.106000  0.212200  0.270900  1
  O  O405  1  0.900000  0.900000  0.750000  1
  O  O406  1  1.000000  0.100000  0.750000  1
  O  O407  1  1.000000  0.900000  0.750000  1
  O  O408  1  0.100000  0.000000  0.750000  1
  O  O409  1  0.900000  0.000000  0.750000  1
  O  O410  1  0.100000  0.100000  0.750000  1
  O  O411  1  0.100000  0.100000  0.250000  1
  O  O412  1  1.000000  0.900000  0.250000  1
  O  O413  1  1.000000  0.100000  0.250000  1
  O  O414  1  0.900000  0.000000  0.250000  1
  O  O415  1  0.100000  0.000000  0.250000  1
  O  O416  1  0.900000  0.900000  0.250000  1
  O  O417  1  0.394200  0.599900  0.915300  1.0
  O  O418  1  0.205700  0.605800  0.915300  1.0
  O  O419  1  0.205700  0.599900  0.584700  1.0
  O  O420  1  0.400100  0.794300  0.915300  1.0
  O  O421  1  0.394200  0.794300  0.584700  1.0
  O  O422  1  0.400100  0.605800  0.584700  1.0
  O  O423  1  0.605800  0.400100  0.084700  1.0
  O  O424  1  0.794300  0.394200  0.084700  1.0
  O  O425  1  0.794300  0.400100  0.415300  1.0
  O  O426  1  0.599900  0.205700  0.084700  1.0
  O  O427  1  0.605800  0.205700  0.415300  1.0
  O  O428  1  0.599900  0.394200  0.415300  1.0
  O  O429  1  0.300300  0.540300  0.861500  1.0
  O  O430  1  0.240000  0.699700  0.861500  1.0
  O  O431  1  0.240000  0.540300  0.638500  1.0
  O  O432  1  0.459700  0.760000  0.861500  1.0
  O  O433  1  0.300300  0.760000  0.638500  1.0
  O  O434  1  0.459700  0.699700  0.638500  1.0
  O  O435  1  0.699700  0.459700  0.138500  1.0
  O  O436  1  0.760000  0.300300  0.138500  1.0
  O  O437  1  0.760000  0.459700  0.361500  1.0
  O  O438  1  0.540300  0.240000  0.138500  1.0
  O  O439  1  0.699700  0.240000  0.361500  1.0
  O  O440  1  0.540300  0.300300  0.361500  1.0
  O  O441  1  0.447200  0.387400  0.970700  1.0
  O  O442  1  0.940200  0.552800  0.970700  1.0
  O  O443  1  0.940200  0.387400  0.529300  1.0
  O  O444  1  0.612600  0.059800  0.970700  1.0
  O  O445  1  0.447200  0.059800  0.529300  1.0
  O  O446  1  0.612600  0.552800  0.529300  1.0
  O  O447  1  0.552800  0.612600  0.029300  1.0
  O  O448  1  0.059800  0.447200  0.029300  1.0
  O  O449  1  0.059800  0.612600  0.470700  1.0
  O  O450  1  0.387400  0.940200  0.029300  1.0
  O  O451  1  0.552800  0.940200  0.470700  1.0
  O  O452  1  0.387400  0.447200  0.470700  1.0
  O  O453  1  0.242400  0.249700  0.820700  1.0
  O  O454  1  0.007300  0.757600  0.820700  1.0
  O  O455  1  0.007300  0.249700  0.679300  1.0
  O  O456  1  0.750300  0.992700  0.820700  1.0
  O  O457  1  0.242400  0.992700  0.679300  1.0
  O  O458  1  0.750300  0.757600  0.679300  1.0
  O  O459  1  0.757600  0.750300  0.179300  1.0
  O  O460  1  0.992700  0.242400  0.179300  1.0
  O  O461  1  0.992700  0.750300  0.320700  1.0
  O  O462  1  0.249700  0.007300  0.179300  1.0
  O  O463  1  0.757600  0.007300  0.320700  1.0
  O  O464  1  0.249700  0.242400  0.320700  1.0
