# generated using pymatgen
data_Ga2H30C82N16O25
_symmetry_space_group_name_H-M   'P 1'
_cell_length_a   14.28300000
_cell_length_b   14.28300000
_cell_length_c   42.96600000
_cell_angle_alpha   90.00000000
_cell_angle_beta   90.00000000
_cell_angle_gamma   120.00000000
_symmetry_Int_Tables_number   1
_chemical_formula_structural   Ga2H30C82N16O25
_chemical_formula_sum   'Ga4 H60 C164 N32 O50'
_cell_volume   7590.92024005
_cell_formula_units_Z   2
loop_
 _symmetry_equiv_pos_site_id
 _symmetry_equiv_pos_as_xyz
  1  'x, y, z'
loop_
 _atom_site_type_symbol
 _atom_site_label
 _atom_site_symmetry_multiplicity
 _atom_site_fract_x
 _atom_site_fract_y
 _atom_site_fract_z
 _atom_site_occupancy
  Ga  Ga1  1  0.333333  0.666667  0.888200  1.0
  Ga  Ga2  1  0.333333  0.666667  0.611800  1.0
  Ga  Ga3  1  0.666667  0.333333  0.111800  1.0
  Ga  Ga4  1  0.666667  0.333333  0.388200  1.0
  H  H5  1  0.478000  0.563300  0.986600  1.0
  H  H6  1  0.085300  0.522000  0.986600  1.0
  H  H7  1  0.085300  0.563300  0.513400  1.0
  H  H8  1  0.436700  0.914700  0.986600  1.0
  H  H9  1  0.478000  0.914700  0.513400  1.0
  H  H10  1  0.436700  0.522000  0.513400  1.0
  H  H11  1  0.522000  0.436700  0.013400  1.0
  H  H12  1  0.914700  0.478000  0.013400  1.0
  H  H13  1  0.914700  0.436700  0.486600  1.0
  H  H14  1  0.563300  0.085300  0.013400  1.0
  H  H15  1  0.522000  0.085300  0.486600  1.0
  H  H16  1  0.563300  0.478000  0.486600  1.0
  H  H17  1  0.438400  0.589200  0.957600  1.0
  H  H18  1  0.150800  0.561600  0.957600  1.0
  H  H19  1  0.150800  0.589200  0.542400  1.0
  H  H20  1  0.410800  0.849200  0.957600  1.0
  H  H21  1  0.438400  0.849200  0.542400  1.0
  H  H22  1  0.410800  0.561600  0.542400  1.0
  H  H23  1  0.561600  0.410800  0.042400  1.0
  H  H24  1  0.849200  0.438400  0.042400  1.0
  H  H25  1  0.849200  0.410800  0.457600  1.0
  H  H26  1  0.589200  0.150800  0.042400  1.0
  H  H27  1  0.561600  0.150800  0.457600  1.0
  H  H28  1  0.589200  0.438400  0.457600  1.0
  H  H29  1  0.261700  0.468100  0.823200  1.0
  H  H30  1  0.206400  0.738300  0.823200  1.0
  H  H31  1  0.206400  0.468100  0.676800  1.0
  H  H32  1  0.531900  0.793600  0.823200  1.0
  H  H33  1  0.261700  0.793600  0.676800  1.0
  H  H34  1  0.531900  0.738300  0.676800  1.0
  H  H35  1  0.738300  0.531900  0.176800  1.0
  H  H36  1  0.793600  0.261700  0.176800  1.0
  H  H37  1  0.793600  0.531900  0.323200  1.0
  H  H38  1  0.468100  0.206400  0.176800  1.0
  H  H39  1  0.738300  0.206400  0.323200  1.0
  H  H40  1  0.468100  0.261700  0.323200  1.0
  H  H41  1  0.368400  0.278900  0.922500  1.0
  H  H42  1  0.910500  0.631600  0.922500  1.0
  H  H43  1  0.910500  0.278900  0.577500  1.0
  H  H44  1  0.721100  0.089500  0.922500  1.0
  H  H45  1  0.368400  0.089500  0.577500  1.0
  H  H46  1  0.721100  0.631600  0.577500  1.0
  H  H47  1  0.631600  0.721100  0.077500  1.0
  H  H48  1  0.089500  0.368400  0.077500  1.0
  H  H49  1  0.089500  0.721100  0.422500  1.0
  H  H50  1  0.278900  0.910500  0.077500  1.0
  H  H51  1  0.631600  0.910500  0.422500  1.0
  H  H52  1  0.278900  0.368400  0.422500  1.0
  H  H53  1  0.303900  0.233700  0.873500  1.0
  H  H54  1  0.929800  0.696100  0.873500  1.0
  H  H55  1  0.929800  0.233700  0.626500  1.0
  H  H56  1  0.766300  0.070200  0.873500  1.0
  H  H57  1  0.303900  0.070200  0.626500  1.0
  H  H58  1  0.766300  0.696100  0.626500  1.0
  H  H59  1  0.696100  0.766300  0.126500  1.0
  H  H60  1  0.070200  0.303900  0.126500  1.0
  H  H61  1  0.070200  0.766300  0.373500  1.0
  H  H62  1  0.233700  0.929800  0.126500  1.0
  H  H63  1  0.696100  0.929800  0.373500  1.0
  H  H64  1  0.233700  0.303900  0.373500  1.0
  C  C65  1  0.666667  0.333367  0.976400  1
  C  C66  1  0.666700  0.333367  0.523600  1
  C  C67  1  0.333333  0.666633  0.023600  1
  C  C68  1  0.333300  0.666633  0.476400  1
  C  C69  1  0.000000  0.000000  0.826300  1
  C  C70  1  0.000000  0.000000  0.673700  1
  C  C71  1  0.000000  0.000000  0.173700  1
  C  C72  1  0.000000  0.000000  0.326300  1
  C  C73  1  0.559900  0.239400  0.930100  1.0
  C  C74  1  0.679500  0.440100  0.930100  1.0
  C  C75  1  0.679500  0.239400  0.569900  1.0
  C  C76  1  0.760600  0.320500  0.930100  1.0
  C  C77  1  0.559900  0.320500  0.569900  1.0
  C  C78  1  0.760600  0.440100  0.569900  1.0
  C  C79  1  0.440100  0.760600  0.069900  1.0
  C  C80  1  0.320500  0.559900  0.069900  1.0
  C  C81  1  0.320500  0.760600  0.430100  1.0
  C  C82  1  0.239400  0.679500  0.069900  1.0
  C  C83  1  0.440100  0.679500  0.430100  1.0
  C  C84  1  0.239400  0.559900  0.430100  1.0
  C  C85  1  0.094000  0.087600  0.878700  1.0
  C  C86  1  0.993600  0.906000  0.878700  1.0
  C  C87  1  0.993600  0.087600  0.621300  1.0
  C  C88  1  0.912400  0.006400  0.878700  1.0
  C  C89  1  0.094000  0.006400  0.621300  1.0
  C  C90  1  0.912400  0.906000  0.621300  1.0
  C  C91  1  0.906000  0.912400  0.121300  1.0
  C  C92  1  0.006400  0.094000  0.121300  1.0
  C  C93  1  0.006400  0.912400  0.378700  1.0
  C  C94  1  0.087600  0.993600  0.121300  1.0
  C  C95  1  0.906000  0.993600  0.378700  1.0
  C  C96  1  0.087600  0.094000  0.378700  1.0
  C  C97  1  0.368500  0.500700  0.906500  1.0
  C  C98  1  0.132200  0.631500  0.906500  1.0
  C  C99  1  0.132200  0.500700  0.593500  1.0
  C  C100  1  0.499300  0.867800  0.906500  1.0
  C  C101  1  0.368500  0.867800  0.593500  1.0
  C  C102  1  0.499300  0.631500  0.593500  1.0
  C  C103  1  0.631500  0.499300  0.093500  1.0
  C  C104  1  0.867800  0.368500  0.093500  1.0
  C  C105  1  0.867800  0.499300  0.406500  1.0
  C  C106  1  0.500700  0.132200  0.093500  1.0
  C  C107  1  0.631500  0.132200  0.406500  1.0
  C  C108  1  0.500700  0.368500  0.406500  1.0
  C  C109  1  0.385700  0.428700  0.923700  1.0
  C  C110  1  0.043000  0.614300  0.923700  1.0
  C  C111  1  0.043000  0.428700  0.576300  1.0
  C  C112  1  0.571300  0.957000  0.923700  1.0
  C  C113  1  0.385700  0.957000  0.576300  1.0
  C  C114  1  0.571300  0.614300  0.576300  1.0
  C  C115  1  0.614300  0.571300  0.076300  1.0
  C  C116  1  0.957000  0.385700  0.076300  1.0
  C  C117  1  0.957000  0.571300  0.423700  1.0
  C  C118  1  0.428700  0.043000  0.076300  1.0
  C  C119  1  0.614300  0.043000  0.423700  1.0
  C  C120  1  0.428700  0.385700  0.423700  1.0
  C  C121  1  0.358400  0.327800  0.910700  1.0
  C  C122  1  0.969400  0.641600  0.910700  1.0
  C  C123  1  0.969400  0.327800  0.589300  1.0
  C  C124  1  0.672200  0.030600  0.910700  1.0
  C  C125  1  0.358400  0.030600  0.589300  1.0
  C  C126  1  0.672200  0.641600  0.589300  1.0
  C  C127  1  0.641600  0.672200  0.089300  1.0
  C  C128  1  0.030600  0.358400  0.089300  1.0
  C  C129  1  0.030600  0.672200  0.410700  1.0
  C  C130  1  0.327800  0.969400  0.089300  1.0
  C  C131  1  0.641600  0.969400  0.410700  1.0
  C  C132  1  0.327800  0.358400  0.410700  1.0
  C  C133  1  0.318200  0.299900  0.881700  1.0
  C  C134  1  0.981700  0.681800  0.881700  1.0
  C  C135  1  0.981700  0.299900  0.618300  1.0
  C  C136  1  0.700100  0.018300  0.881700  1.0
  C  C137  1  0.318200  0.018300  0.618300  1.0
  C  C138  1  0.700100  0.681800  0.618300  1.0
  C  C139  1  0.681800  0.700100  0.118300  1.0
  C  C140  1  0.018300  0.318200  0.118300  1.0
  C  C141  1  0.018300  0.700100  0.381700  1.0
  C  C142  1  0.299900  0.981700  0.118300  1.0
  C  C143  1  0.681800  0.981700  0.381700  1.0
  C  C144  1  0.299900  0.318200  0.381700  1.0
  C  C145  1  0.297500  0.370200  0.863600  1.0
  C  C146  1  0.072700  0.702500  0.863600  1.0
  C  C147  1  0.072700  0.370200  0.636400  1.0
  C  C148  1  0.629800  0.927300  0.863600  1.0
  C  C149  1  0.297500  0.927300  0.636400  1.0
  C  C150  1  0.629800  0.702500  0.636400  1.0
  C  C151  1  0.702500  0.629800  0.136400  1.0
  C  C152  1  0.927300  0.297500  0.136400  1.0
  C  C153  1  0.927300  0.629800  0.363600  1.0
  C  C154  1  0.370200  0.072700  0.136400  1.0
  C  C155  1  0.702500  0.072700  0.363600  1.0
  C  C156  1  0.370200  0.297500  0.363600  1.0
  C  C157  1  0.319200  0.468800  0.876200  1.0
  C  C158  1  0.149600  0.680800  0.876200  1.0
  C  C159  1  0.149600  0.468800  0.623800  1.0
  C  C160  1  0.531200  0.850400  0.876200  1.0
  C  C161  1  0.319200  0.850400  0.623800  1.0
  C  C162  1  0.531200  0.680800  0.623800  1.0
  C  C163  1  0.680800  0.531200  0.123800  1.0
  C  C164  1  0.850400  0.319200  0.123800  1.0
  C  C165  1  0.850400  0.531200  0.376200  1.0
  C  C166  1  0.468800  0.149600  0.123800  1.0
  C  C167  1  0.680800  0.149600  0.376200  1.0
  C  C168  1  0.468800  0.319200  0.376200  1.0
  C  C169  1  0.430000  0.452800  0.956300  1.0
  C  C170  1  0.022800  0.570000  0.956300  1.0
  C  C171  1  0.022800  0.452800  0.543700  1.0
  C  C172  1  0.547200  0.977200  0.956300  1.0
  C  C173  1  0.430000  0.977200  0.543700  1.0
  C  C174  1  0.547200  0.570000  0.543700  1.0
  C  C175  1  0.570000  0.547200  0.043700  1.0
  C  C176  1  0.977200  0.430000  0.043700  1.0
  C  C177  1  0.977200  0.547200  0.456300  1.0
  C  C178  1  0.452800  0.022800  0.043700  1.0
  C  C179  1  0.570000  0.022800  0.456300  1.0
  C  C180  1  0.452800  0.430000  0.456300  1.0
  C  C181  1  0.259500  0.336900  0.831000  1.0
  C  C182  1  0.077400  0.740500  0.831000  1.0
  C  C183  1  0.077400  0.336900  0.669000  1.0
  C  C184  1  0.663100  0.922600  0.831000  1.0
  C  C185  1  0.259500  0.922600  0.669000  1.0
  C  C186  1  0.663100  0.740500  0.669000  1.0
  C  C187  1  0.740500  0.663100  0.169000  1.0
  C  C188  1  0.922600  0.259500  0.169000  1.0
  C  C189  1  0.922600  0.663100  0.331000  1.0
  C  C190  1  0.336900  0.077400  0.169000  1.0
  C  C191  1  0.740500  0.077400  0.331000  1.0
  C  C192  1  0.336900  0.259500  0.331000  1.0
  C  C193  1  0.224300  0.404000  0.781600  1.0
  C  C194  1  0.179700  0.775700  0.781600  1.0
  C  C195  1  0.179700  0.404000  0.718400  1.0
  C  C196  1  0.596000  0.820300  0.781600  1.0
  C  C197  1  0.224300  0.820300  0.718400  1.0
  C  C198  1  0.596000  0.775700  0.718400  1.0
  C  C199  1  0.775700  0.596000  0.218400  1.0
  C  C200  1  0.820300  0.224300  0.218400  1.0
  C  C201  1  0.820300  0.596000  0.281600  1.0
  C  C202  1  0.404000  0.179700  0.218400  1.0
  C  C203  1  0.775700  0.179700  0.281600  1.0
  C  C204  1  0.404000  0.224300  0.281600  1.0
  C  C205  1  0.165900  0.310900  0.766300  1.0
  C  C206  1  0.145000  0.834100  0.766300  1.0
  C  C207  1  0.145000  0.310900  0.733700  1.0
  C  C208  1  0.689100  0.855000  0.766300  1.0
  C  C209  1  0.165900  0.855000  0.733700  1.0
  C  C210  1  0.689100  0.834100  0.733700  1.0
  C  C211  1  0.834100  0.689100  0.233700  1.0
  C  C212  1  0.855000  0.165900  0.233700  1.0
  C  C213  1  0.855000  0.689100  0.266300  1.0
  C  C214  1  0.310900  0.145000  0.233700  1.0
  C  C215  1  0.834100  0.145000  0.266300  1.0
  C  C216  1  0.310900  0.165900  0.266300  1.0
  C  C217  1  0.259400  0.496200  0.765800  1.0
  C  C218  1  0.236800  0.740600  0.765800  1.0
  C  C219  1  0.236800  0.496200  0.734200  1.0
  C  C220  1  0.503800  0.763200  0.765800  1.0
  C  C221  1  0.259400  0.763200  0.734200  1.0
  C  C222  1  0.503800  0.740600  0.734200  1.0
  C  C223  1  0.740600  0.503800  0.234200  1.0
  C  C224  1  0.763200  0.259400  0.234200  1.0
  C  C225  1  0.763200  0.503800  0.265800  1.0
  C  C226  1  0.496200  0.236800  0.234200  1.0
  C  C227  1  0.740600  0.236800  0.265800  1.0
  C  C228  1  0.496200  0.259400  0.265800  1.0
  N  N229  1  0.666667  0.333367  0.942400  1
  N  N230  1  0.666700  0.333367  0.557600  1
  N  N231  1  0.333333  0.666633  0.057600  1
  N  N232  1  0.333300  0.666633  0.442400  1
  N  N233  1  0.000000  0.000000  0.861500  1
  N  N234  1  0.000000  0.000000  0.638500  1
  N  N235  1  0.000000  0.000000  0.138500  1
  N  N236  1  0.000000  0.000000  0.361500  1
  N  N237  1  0.451200  0.545700  0.968200  1.0
  N  N238  1  0.094500  0.548800  0.968200  1.0
  N  N239  1  0.094500  0.545700  0.531800  1.0
  N  N240  1  0.454300  0.905500  0.968200  1.0
  N  N241  1  0.451200  0.905500  0.531800  1.0
  N  N242  1  0.454300  0.548800  0.531800  1.0
  N  N243  1  0.548800  0.454300  0.031800  1.0
  N  N244  1  0.905500  0.451200  0.031800  1.0
  N  N245  1  0.905500  0.454300  0.468200  1.0
  N  N246  1  0.545700  0.094500  0.031800  1.0
  N  N247  1  0.548800  0.094500  0.468200  1.0
  N  N248  1  0.545700  0.451200  0.468200  1.0
  N  N249  1  0.250400  0.410400  0.813700  1.0
  N  N250  1  0.160000  0.749600  0.813700  1.0
  N  N251  1  0.160000  0.410400  0.686300  1.0
  N  N252  1  0.589600  0.840000  0.813700  1.0
  N  N253  1  0.250400  0.840000  0.686300  1.0
  N  N254  1  0.589600  0.749600  0.686300  1.0
  N  N255  1  0.749600  0.589600  0.186300  1.0
  N  N256  1  0.840000  0.250400  0.186300  1.0
  N  N257  1  0.840000  0.589600  0.313700  1.0
  N  N258  1  0.410400  0.160000  0.186300  1.0
  N  N259  1  0.749600  0.160000  0.313700  1.0
  N  N260  1  0.410400  0.250400  0.313700  1.0
  O  O261  1  0.000000  0.000000  0.750000  1
  O  O262  1  0.000000  0.000000  0.250000  1
  O  O263  1  0.394200  0.599900  0.915300  1.0
  O  O264  1  0.205700  0.605800  0.915300  1.0
  O  O265  1  0.205700  0.599900  0.584700  1.0
  O  O266  1  0.400100  0.794300  0.915300  1.0
  O  O267  1  0.394200  0.794300  0.584700  1.0
  O  O268  1  0.400100  0.605800  0.584700  1.0
  O  O269  1  0.605800  0.400100  0.084700  1.0
  O  O270  1  0.794300  0.394200  0.084700  1.0
  O  O271  1  0.794300  0.400100  0.415300  1.0
  O  O272  1  0.599900  0.205700  0.084700  1.0
  O  O273  1  0.605800  0.205700  0.415300  1.0
  O  O274  1  0.599900  0.394200  0.415300  1.0
  O  O275  1  0.300300  0.540300  0.861500  1.0
  O  O276  1  0.240000  0.699700  0.861500  1.0
  O  O277  1  0.240000  0.540300  0.638500  1.0
  O  O278  1  0.459700  0.760000  0.861500  1.0
  O  O279  1  0.300300  0.760000  0.638500  1.0
  O  O280  1  0.459700  0.699700  0.638500  1.0
  O  O281  1  0.699700  0.459700  0.138500  1.0
  O  O282  1  0.760000  0.300300  0.138500  1.0
  O  O283  1  0.760000  0.459700  0.361500  1.0
  O  O284  1  0.540300  0.240000  0.138500  1.0
  O  O285  1  0.699700  0.240000  0.361500  1.0
  O  O286  1  0.540300  0.300300  0.361500  1.0
  O  O287  1  0.447200  0.387400  0.970700  1.0
  O  O288  1  0.940200  0.552800  0.970700  1.0
  O  O289  1  0.940200  0.387400  0.529300  1.0
  O  O290  1  0.612600  0.059800  0.970700  1.0
  O  O291  1  0.447200  0.059800  0.529300  1.0
  O  O292  1  0.612600  0.552800  0.529300  1.0
  O  O293  1  0.552800  0.612600  0.029300  1.0
  O  O294  1  0.059800  0.447200  0.029300  1.0
  O  O295  1  0.059800  0.612600  0.470700  1.0
  O  O296  1  0.387400  0.940200  0.029300  1.0
  O  O297  1  0.552800  0.940200  0.470700  1.0
  O  O298  1  0.387400  0.447200  0.470700  1.0
  O  O299  1  0.242400  0.249700  0.820700  1.0
  O  O300  1  0.007300  0.757600  0.820700  1.0
  O  O301  1  0.007300  0.249700  0.679300  1.0
  O  O302  1  0.750300  0.992700  0.820700  1.0
  O  O303  1  0.242400  0.992700  0.679300  1.0
  O  O304  1  0.750300  0.757600  0.679300  1.0
  O  O305  1  0.757600  0.750300  0.179300  1.0
  O  O306  1  0.992700  0.242400  0.179300  1.0
  O  O307  1  0.992700  0.750300  0.320700  1.0
  O  O308  1  0.249700  0.007300  0.179300  1.0
  O  O309  1  0.757600  0.007300  0.320700  1.0
  O  O310  1  0.249700  0.242400  0.320700  1.0
