# generated using pymatgen
data_Pd3C64(N23O2)2
_symmetry_space_group_name_H-M   'P 1'
_cell_length_a   23.44724830
_cell_length_b   23.44724830
_cell_length_c   23.44724830
_cell_angle_alpha   108.54544057
_cell_angle_beta   109.93608450
_cell_angle_gamma   109.93608450
_symmetry_Int_Tables_number   1
_chemical_formula_structural   Pd3C64(N23O2)2
_chemical_formula_sum   'Pd12 C256 N184 O16'
_cell_volume   9921.30670893
_cell_formula_units_Z   4
loop_
 _symmetry_equiv_pos_site_id
 _symmetry_equiv_pos_as_xyz
  1  'x, y, z'
loop_
 _atom_site_type_symbol
 _atom_site_label
 _atom_site_symmetry_multiplicity
 _atom_site_fract_x
 _atom_site_fract_y
 _atom_site_fract_z
 _atom_site_occupancy
  C  C1  1  0.893000  0.653000  0.546000  1
  C  C2  1  0.107000  0.260000  0.653000  1
  C  C3  1  0.107000  0.347000  0.454000  1
  C  C4  1  0.607000  0.653000  0.260000  1
  C  C5  1  0.893000  0.740000  0.347000  1
  C  C6  1  0.393000  0.546000  0.653000  1
  C  C7  1  0.393000  0.347000  0.740000  1
  C  C8  1  0.607000  0.454000  0.347000  1
  C  C9  1  0.926000  0.753000  0.679000  1
  C  C10  1  0.074000  0.327000  0.753000  1
  C  C11  1  0.074000  0.247000  0.321000  1
  C  C12  1  0.574000  0.753000  0.327000  1
  C  C13  1  0.926000  0.673000  0.247000  1
  C  C14  1  0.426000  0.679000  0.753000  1
  C  C15  1  0.426000  0.247000  0.673000  1
  C  C16  1  0.574000  0.321000  0.247000  1
  C  C17  1  0.883000  0.770000  0.653000  1
  C  C18  1  0.117000  0.387000  0.770000  1
  C  C19  1  0.117000  0.230000  0.347000  1
  C  C20  1  0.617000  0.770000  0.387000  1
  C  C21  1  0.883000  0.613000  0.230000  1
  C  C22  1  0.383000  0.653000  0.770000  1
  C  C23  1  0.383000  0.230000  0.613000  1
  C  C24  1  0.617000  0.347000  0.230000  1
  C  C25  1  0.837000  0.749000  0.586000  1
  C  C26  1  0.163000  0.412000  0.749000  1
  C  C27  1  0.163000  0.251000  0.414000  1
  C  C28  1  0.663000  0.749000  0.412000  1
  C  C29  1  0.837000  0.588000  0.251000  1
  C  C30  1  0.337000  0.586000  0.749000  1
  C  C31  1  0.337000  0.251000  0.588000  1
  C  C32  1  0.663000  0.414000  0.251000  1
  C  C33  1  0.966000  0.794000  0.760000  1
  C  C34  1  0.034000  0.328000  0.794000  1
  C  C35  1  0.034000  0.206000  0.240000  1
  C  C36  1  0.534000  0.794000  0.328000  1
  C  C37  1  0.966000  0.672000  0.206000  1
  C  C38  1  0.466000  0.760000  0.794000  1
  C  C39  1  0.466000  0.206000  0.672000  1
  C  C40  1  0.534000  0.240000  0.206000  1
  C  C41  1  0.787000  0.660000  0.537000  1.0
  C  C42  1  0.123000  0.373000  0.660000  1.0
  C  C43  1  0.123000  0.250000  0.463000  1.0
  C  C44  1  0.713000  0.750000  0.373000  1.0
  C  C45  1  0.787000  0.627000  0.250000  1.0
  C  C46  1  0.377000  0.537000  0.750000  1.0
  C  C47  1  0.377000  0.340000  0.627000  1.0
  C  C48  1  0.713000  0.463000  0.340000  1.0
  C  C49  1  0.213000  0.340000  0.463000  1.0
  C  C50  1  0.877000  0.627000  0.340000  1.0
  C  C51  1  0.877000  0.750000  0.537000  1.0
  C  C52  1  0.287000  0.250000  0.627000  1.0
  C  C53  1  0.213000  0.373000  0.750000  1.0
  C  C54  1  0.623000  0.463000  0.250000  1.0
  C  C55  1  0.623000  0.660000  0.373000  1.0
  C  C56  1  0.287000  0.537000  0.660000  1.0
  C  C57  1  0.835000  0.631000  0.558000  1.0
  C  C58  1  0.073000  0.296000  0.631000  1.0
  C  C59  1  0.073000  0.277000  0.442000  1.0
  C  C60  1  0.665000  0.723000  0.296000  1.0
  C  C61  1  0.835000  0.704000  0.277000  1.0
  C  C62  1  0.427000  0.558000  0.723000  1.0
  C  C63  1  0.427000  0.369000  0.704000  1.0
  C  C64  1  0.665000  0.442000  0.369000  1.0
  C  C65  1  0.165000  0.369000  0.442000  1.0
  C  C66  1  0.927000  0.704000  0.369000  1.0
  C  C67  1  0.927000  0.723000  0.558000  1.0
  C  C68  1  0.335000  0.277000  0.704000  1.0
  C  C69  1  0.165000  0.296000  0.723000  1.0
  C  C70  1  0.573000  0.442000  0.277000  1.0
  C  C71  1  0.573000  0.631000  0.296000  1.0
  C  C72  1  0.335000  0.558000  0.631000  1.0
  C  C73  1  0.881000  0.669000  0.636000  1.0
  C  C74  1  0.033000  0.288000  0.669000  1.0
  C  C75  1  0.033000  0.245000  0.364000  1.0
  C  C76  1  0.619000  0.755000  0.288000  1.0
  C  C77  1  0.881000  0.712000  0.245000  1.0
  C  C78  1  0.467000  0.636000  0.755000  1.0
  C  C79  1  0.467000  0.331000  0.712000  1.0
  C  C80  1  0.619000  0.364000  0.331000  1.0
  C  C81  1  0.119000  0.331000  0.364000  1.0
  C  C82  1  0.967000  0.712000  0.331000  1.0
  C  C83  1  0.967000  0.755000  0.636000  1.0
  C  C84  1  0.381000  0.245000  0.712000  1.0
  C  C85  1  0.119000  0.288000  0.755000  1.0
  C  C86  1  0.533000  0.364000  0.245000  1.0
  C  C87  1  0.533000  0.669000  0.288000  1.0
  C  C88  1  0.381000  0.636000  0.669000  1.0
  C  C89  1  0.600000  0.640000  0.540000  1.0
  C  C90  1  0.100000  0.540000  0.640000  1.0
  C  C91  1  0.100000  0.060000  0.460000  1.0
  C  C92  1  0.900000  0.940000  0.540000  1.0
  C  C93  1  0.600000  0.460000  0.060000  1.0
  C  C94  1  0.400000  0.540000  0.940000  1.0
  C  C95  1  0.400000  0.360000  0.460000  1.0
  C  C96  1  0.900000  0.460000  0.360000  1.0
  C  C97  1  0.632000  0.715000  0.583000  1.0
  C  C98  1  0.132000  0.583000  0.715000  1.0
  C  C99  1  0.132000  0.049000  0.417000  1.0
  C  C100  1  0.868000  0.951000  0.583000  1.0
  C  C101  1  0.632000  0.417000  0.049000  1.0
  C  C102  1  0.368000  0.583000  0.951000  1.0
  C  C103  1  0.368000  0.285000  0.417000  1.0
  C  C104  1  0.868000  0.417000  0.285000  1.0
  C  C105  1  0.775000  0.092000  0.817000  1.0
  C  C106  1  0.275000  0.817000  0.092000  1.0
  C  C107  1  0.275000  0.958000  0.183000  1.0
  C  C108  1  0.725000  0.042000  0.817000  1.0
  C  C109  1  0.775000  0.183000  0.958000  1.0
  C  C110  1  0.225000  0.817000  0.042000  1.0
  C  C111  1  0.225000  0.908000  0.183000  1.0
  C  C112  1  0.725000  0.183000  0.908000  1.0
  C  C113  1  0.365000  0.396000  0.257000  1.0
  C  C114  1  0.139000  0.531000  0.396000  1.0
  C  C115  1  0.139000  0.108000  0.743000  1.0
  C  C116  1  0.135000  0.892000  0.531000  1.0
  C  C117  1  0.365000  0.469000  0.108000  1.0
  C  C118  1  0.361000  0.257000  0.892000  1.0
  C  C119  1  0.361000  0.604000  0.469000  1.0
  C  C120  1  0.135000  0.743000  0.604000  1.0
  C  C121  1  0.635000  0.604000  0.743000  1.0
  C  C122  1  0.861000  0.469000  0.604000  1.0
  C  C123  1  0.861000  0.892000  0.257000  1.0
  C  C124  1  0.865000  0.108000  0.469000  1.0
  C  C125  1  0.635000  0.531000  0.892000  1.0
  C  C126  1  0.639000  0.743000  0.108000  1.0
  C  C127  1  0.639000  0.396000  0.531000  1.0
  C  C128  1  0.865000  0.257000  0.396000  1.0
  C  C129  1  0.426000  0.428000  0.328000  1.0
  C  C130  1  0.100000  0.502000  0.428000  1.0
  C  C131  1  0.100000  0.098000  0.672000  1.0
  C  C132  1  0.074000  0.902000  0.502000  1.0
  C  C133  1  0.426000  0.498000  0.098000  1.0
  C  C134  1  0.400000  0.328000  0.902000  1.0
  C  C135  1  0.400000  0.572000  0.498000  1.0
  C  C136  1  0.074000  0.672000  0.572000  1.0
  C  C137  1  0.574000  0.572000  0.672000  1.0
  C  C138  1  0.900000  0.498000  0.572000  1.0
  C  C139  1  0.900000  0.902000  0.328000  1.0
  C  C140  1  0.926000  0.098000  0.498000  1.0
  C  C141  1  0.574000  0.502000  0.902000  1.0
  C  C142  1  0.600000  0.672000  0.098000  1.0
  C  C143  1  0.600000  0.428000  0.502000  1.0
  C  C144  1  0.926000  0.328000  0.428000  1.0
  C  C145  1  0.456000  0.499000  0.367000  1.0
  C  C146  1  0.132000  0.543000  0.499000  1.0
  C  C147  1  0.132000  0.089000  0.633000  1.0
  C  C148  1  0.044000  0.911000  0.543000  1.0
  C  C149  1  0.456000  0.457000  0.089000  1.0
  C  C150  1  0.368000  0.367000  0.911000  1.0
  C  C151  1  0.368000  0.501000  0.457000  1.0
  C  C152  1  0.044000  0.633000  0.501000  1.0
  C  C153  1  0.544000  0.501000  0.633000  1.0
  C  C154  1  0.868000  0.457000  0.501000  1.0
  C  C155  1  0.868000  0.911000  0.367000  1.0
  C  C156  1  0.956000  0.089000  0.457000  1.0
  C  C157  1  0.544000  0.543000  0.911000  1.0
  C  C158  1  0.632000  0.633000  0.089000  1.0
  C  C159  1  0.632000  0.499000  0.543000  1.0
  C  C160  1  0.956000  0.367000  0.499000  1.0
  C  C161  1  0.426000  0.536000  0.340000  1.0
  C  C162  1  0.196000  0.610000  0.536000  1.0
  C  C163  1  0.196000  0.086000  0.660000  1.0
  C  C164  1  0.074000  0.914000  0.610000  1.0
  C  C165  1  0.426000  0.390000  0.086000  1.0
  C  C166  1  0.304000  0.340000  0.914000  1.0
  C  C167  1  0.304000  0.464000  0.390000  1.0
  C  C168  1  0.074000  0.660000  0.464000  1.0
  C  C169  1  0.574000  0.464000  0.660000  1.0
  C  C170  1  0.804000  0.390000  0.464000  1.0
  C  C171  1  0.804000  0.914000  0.340000  1.0
  C  C172  1  0.926000  0.086000  0.390000  1.0
  C  C173  1  0.574000  0.610000  0.914000  1.0
  C  C174  1  0.696000  0.660000  0.086000  1.0
  C  C175  1  0.696000  0.536000  0.610000  1.0
  C  C176  1  0.926000  0.340000  0.536000  1.0
  C  C177  1  0.370000  0.500000  0.272000  1.0
  C  C178  1  0.228000  0.630000  0.500000  1.0
  C  C179  1  0.228000  0.098000  0.728000  1.0
  C  C180  1  0.130000  0.902000  0.630000  1.0
  C  C181  1  0.370000  0.370000  0.098000  1.0
  C  C182  1  0.272000  0.272000  0.902000  1.0
  C  C183  1  0.272000  0.500000  0.370000  1.0
  C  C184  1  0.130000  0.728000  0.500000  1.0
  C  C185  1  0.630000  0.500000  0.728000  1.0
  C  C186  1  0.772000  0.370000  0.500000  1.0
  C  C187  1  0.772000  0.902000  0.272000  1.0
  C  C188  1  0.870000  0.098000  0.370000  1.0
  C  C189  1  0.630000  0.630000  0.902000  1.0
  C  C190  1  0.728000  0.728000  0.098000  1.0
  C  C191  1  0.728000  0.500000  0.630000  1.0
  C  C192  1  0.870000  0.272000  0.500000  1.0
  C  C193  1  0.516000  0.535000  0.437000  1.0
  C  C194  1  0.098000  0.519000  0.535000  1.0
  C  C195  1  0.098000  0.079000  0.563000  1.0
  C  C196  1  0.984000  0.921000  0.519000  1.0
  C  C197  1  0.516000  0.481000  0.079000  1.0
  C  C198  1  0.402000  0.437000  0.921000  1.0
  C  C199  1  0.402000  0.465000  0.481000  1.0
  C  C200  1  0.984000  0.563000  0.465000  1.0
  C  C201  1  0.484000  0.465000  0.563000  1.0
  C  C202  1  0.902000  0.481000  0.465000  1.0
  C  C203  1  0.902000  0.921000  0.437000  1.0
  C  C204  1  0.016000  0.079000  0.481000  1.0
  C  C205  1  0.484000  0.519000  0.921000  1.0
  C  C206  1  0.598000  0.563000  0.079000  1.0
  C  C207  1  0.598000  0.535000  0.519000  1.0
  C  C208  1  0.016000  0.437000  0.535000  1.0
  C  C209  1  0.695000  0.746000  0.647000  1.0
  C  C210  1  0.099000  0.551000  0.746000  1.0
  C  C211  1  0.099000  0.048000  0.353000  1.0
  C  C212  1  0.805000  0.952000  0.551000  1.0
  C  C213  1  0.695000  0.449000  0.048000  1.0
  C  C214  1  0.401000  0.647000  0.952000  1.0
  C  C215  1  0.401000  0.254000  0.449000  1.0
  C  C216  1  0.805000  0.353000  0.254000  1.0
  C  C217  1  0.305000  0.254000  0.353000  1.0
  C  C218  1  0.901000  0.449000  0.254000  1.0
  C  C219  1  0.901000  0.952000  0.647000  1.0
  C  C220  1  0.195000  0.048000  0.449000  1.0
  C  C221  1  0.305000  0.551000  0.952000  1.0
  C  C222  1  0.599000  0.353000  0.048000  1.0
  C  C223  1  0.599000  0.746000  0.551000  1.0
  C  C224  1  0.195000  0.647000  0.746000  1.0
  C  C225  1  0.723000  0.811000  0.680000  1.0
  C  C226  1  0.131000  0.588000  0.811000  1.0
  C  C227  1  0.131000  0.043000  0.320000  1.0
  C  C228  1  0.777000  0.957000  0.588000  1.0
  C  C229  1  0.723000  0.412000  0.043000  1.0
  C  C230  1  0.369000  0.680000  0.957000  1.0
  C  C231  1  0.369000  0.189000  0.412000  1.0
  C  C232  1  0.777000  0.320000  0.189000  1.0
  C  C233  1  0.277000  0.189000  0.320000  1.0
  C  C234  1  0.869000  0.412000  0.189000  1.0
  C  C235  1  0.869000  0.957000  0.680000  1.0
  C  C236  1  0.223000  0.043000  0.412000  1.0
  C  C237  1  0.277000  0.588000  0.957000  1.0
  C  C238  1  0.631000  0.320000  0.043000  1.0
  C  C239  1  0.631000  0.811000  0.588000  1.0
  C  C240  1  0.223000  0.680000  0.811000  1.0
  C  C241  1  0.112000  0.296000  0.088000  1.0
  C  C242  1  0.208000  0.684000  0.296000  1.0
  C  C243  1  0.208000  0.024000  0.912000  1.0
  C  C244  1  0.388000  0.976000  0.684000  1.0
  C  C245  1  0.112000  0.316000  0.024000  1.0
  C  C246  1  0.292000  0.088000  0.976000  1.0
  C  C247  1  0.292000  0.704000  0.316000  1.0
  C  C248  1  0.388000  0.912000  0.704000  1.0
  C  C249  1  0.888000  0.704000  0.912000  1.0
  C  C250  1  0.792000  0.316000  0.704000  1.0
  C  C251  1  0.792000  0.976000  0.088000  1.0
  C  C252  1  0.612000  0.024000  0.316000  1.0
  C  C253  1  0.888000  0.684000  0.976000  1.0
  C  C254  1  0.708000  0.912000  0.024000  1.0
  C  C255  1  0.708000  0.296000  0.684000  1.0
  C  C256  1  0.612000  0.088000  0.296000  1.0
  N  N257  1  0.796000  0.706000  0.754000  1
  N  N258  1  0.952000  0.410000  0.706000  1
  N  N259  1  0.952000  0.042000  0.246000  1
  N  N260  1  0.704000  0.958000  0.410000  1
  N  N261  1  0.796000  0.590000  0.042000  1
  N  N262  1  0.548000  0.754000  0.958000  1
  N  N263  1  0.548000  0.294000  0.590000  1
  N  N264  1  0.704000  0.246000  0.294000  1
  N  N265  1  0.204000  0.294000  0.246000  1
  N  N266  1  0.048000  0.590000  0.294000  1
  N  N267  1  0.048000  0.958000  0.754000  1
  N  N268  1  0.296000  0.042000  0.590000  1
  N  N269  1  0.204000  0.410000  0.958000  1
  N  N270  1  0.452000  0.246000  0.042000  1
  N  N271  1  0.452000  0.706000  0.410000  1
  N  N272  1  0.296000  0.754000  0.706000  1
  N  N273  1  0.456000  0.298000  0.342000  1
  N  N274  1  0.956000  0.342000  0.298000  1
  N  N275  1  0.956000  0.114000  0.658000  1
  N  N276  1  0.044000  0.886000  0.342000  1
  N  N277  1  0.456000  0.658000  0.114000  1
  N  N278  1  0.544000  0.342000  0.886000  1
  N  N279  1  0.544000  0.702000  0.658000  1
  N  N280  1  0.044000  0.658000  0.702000  1
  N  N281  1  0.418000  0.208000  0.290000  1
  N  N282  1  0.918000  0.290000  0.208000  1
  N  N283  1  0.918000  0.128000  0.710000  1
  N  N284  1  0.082000  0.872000  0.290000  1
  N  N285  1  0.418000  0.710000  0.128000  1
  N  N286  1  0.582000  0.290000  0.872000  1
  N  N287  1  0.582000  0.792000  0.710000  1
  N  N288  1  0.082000  0.710000  0.792000  1
  N  N289  1  0.885000  0.948000  0.833000  1
  N  N290  1  0.115000  0.563000  0.948000  1
  N  N291  1  0.115000  0.052000  0.167000  1
  N  N292  1  0.615000  0.948000  0.563000  1
  N  N293  1  0.885000  0.437000  0.052000  1
  N  N294  1  0.385000  0.833000  0.948000  1
  N  N295  1  0.385000  0.052000  0.437000  1
  N  N296  1  0.615000  0.167000  0.052000  1
  N  N297  1  0.362000  0.629000  0.235000  1
  N  N298  1  0.394000  0.767000  0.629000  1
  N  N299  1  0.394000  0.127000  0.765000  1
  N  N300  1  0.138000  0.873000  0.767000  1
  N  N301  1  0.362000  0.233000  0.127000  1
  N  N302  1  0.106000  0.235000  0.873000  1
  N  N303  1  0.106000  0.371000  0.233000  1
  N  N304  1  0.138000  0.765000  0.371000  1
  N  N305  1  0.638000  0.371000  0.765000  1
  N  N306  1  0.606000  0.233000  0.371000  1
  N  N307  1  0.606000  0.873000  0.235000  1
  N  N308  1  0.862000  0.127000  0.233000  1
  N  N309  1  0.638000  0.767000  0.873000  1
  N  N310  1  0.894000  0.765000  0.127000  1
  N  N311  1  0.894000  0.629000  0.767000  1
  N  N312  1  0.862000  0.235000  0.629000  1
  N  N313  1  0.200000  0.200000  0.000000  1
  N  N314  1  0.200000  0.500000  0.200000  1
  N  N315  1  0.300000  0.800000  0.500000  1
  N  N316  1  0.300000  1.000000  0.800000  1
  N  N317  1  0.800000  0.800000  0.000000  1
  N  N318  1  0.800000  0.500000  0.800000  1
  N  N319  1  0.700000  0.200000  0.500000  1
  N  N320  1  0.700000  1.000000  0.200000  1
  N  N321  1  0.447000  0.083000  0.308000  1
  N  N322  1  0.775000  0.136000  0.083000  1
  N  N323  1  0.775000  0.139000  0.692000  1
  N  N324  1  0.053000  0.861000  0.136000  1
  N  N325  1  0.447000  0.864000  0.139000  1
  N  N326  1  0.725000  0.308000  0.861000  1
  N  N327  1  0.725000  0.917000  0.864000  1
  N  N328  1  0.053000  0.692000  0.917000  1
  N  N329  1  0.553000  0.917000  0.692000  1
  N  N330  1  0.225000  0.864000  0.917000  1
  N  N331  1  0.225000  0.861000  0.308000  1
  N  N332  1  0.947000  0.139000  0.864000  1
  N  N333  1  0.553000  0.136000  0.861000  1
  N  N334  1  0.275000  0.692000  0.139000  1
  N  N335  1  0.275000  0.083000  0.136000  1
  N  N336  1  0.947000  0.308000  0.083000  1
  N  N337  1  0.231000  0.202000  0.067000  1
  N  N338  1  0.135000  0.471000  0.202000  1
  N  N339  1  0.135000  0.164000  0.933000  1
  N  N340  1  0.269000  0.836000  0.471000  1
  N  N341  1  0.231000  0.529000  0.164000  1
  N  N342  1  0.365000  0.067000  0.836000  1
  N  N343  1  0.365000  0.798000  0.529000  1
  N  N344  1  0.269000  0.933000  0.798000  1
  N  N345  1  0.769000  0.798000  0.933000  1
  N  N346  1  0.865000  0.529000  0.798000  1
  N  N347  1  0.865000  0.836000  0.067000  1
  N  N348  1  0.731000  0.164000  0.529000  1
  N  N349  1  0.769000  0.471000  0.836000  1
  N  N350  1  0.635000  0.933000  0.164000  1
  N  N351  1  0.635000  0.202000  0.471000  1
  N  N352  1  0.731000  0.067000  0.202000  1
  N  N353  1  0.470000  0.873000  0.265000  1
  N  N354  1  0.608000  0.903000  0.873000  1
  N  N355  1  0.608000  0.205000  0.735000  1
  N  N356  1  0.030000  0.795000  0.903000  1
  N  N357  1  0.470000  0.097000  0.205000  1
  N  N358  1  0.892000  0.265000  0.795000  1
  N  N359  1  0.892000  0.127000  0.097000  1
  N  N360  1  0.030000  0.735000  0.127000  1
  N  N361  1  0.530000  0.127000  0.735000  1
  N  N362  1  0.392000  0.097000  0.127000  1
  N  N363  1  0.392000  0.795000  0.265000  1
  N  N364  1  0.970000  0.205000  0.097000  1
  N  N365  1  0.530000  0.903000  0.795000  1
  N  N366  1  0.108000  0.735000  0.205000  1
  N  N367  1  0.108000  0.873000  0.903000  1
  N  N368  1  0.970000  0.265000  0.873000  1
  N  N369  1  0.542000  0.496000  0.454000  1.0
  N  N370  1  0.042000  0.454000  0.496000  1.0
  N  N371  1  0.042000  0.088000  0.546000  1.0
  N  N372  1  0.958000  0.912000  0.454000  1.0
  N  N373  1  0.542000  0.546000  0.088000  1.0
  N  N374  1  0.458000  0.454000  0.912000  1.0
  N  N375  1  0.458000  0.504000  0.546000  1.0
  N  N376  1  0.958000  0.546000  0.504000  1.0
  N  N377  1  0.696000  0.854000  0.658000  1.0
  N  N378  1  0.196000  0.658000  0.854000  1.0
  N  N379  1  0.196000  0.038000  0.342000  1.0
  N  N380  1  0.804000  0.962000  0.658000  1.0
  N  N381  1  0.696000  0.342000  0.038000  1.0
  N  N382  1  0.304000  0.658000  0.962000  1.0
  N  N383  1  0.304000  0.146000  0.342000  1.0
  N  N384  1  0.804000  0.342000  0.146000  1.0
  N  N385  1  0.803000  0.071000  0.768000  1.0
  N  N386  1  0.303000  0.768000  0.071000  1.0
  N  N387  1  0.303000  0.035000  0.232000  1.0
  N  N388  1  0.697000  0.965000  0.768000  1.0
  N  N389  1  0.803000  0.232000  0.035000  1.0
  N  N390  1  0.197000  0.768000  0.965000  1.0
  N  N391  1  0.197000  0.929000  0.232000  1.0
  N  N392  1  0.697000  0.232000  0.929000  1.0
  N  N393  1  0.342000  0.434000  0.236000  1.0
  N  N394  1  0.198000  0.592000  0.434000  1.0
  N  N395  1  0.198000  0.106000  0.764000  1.0
  N  N396  1  0.158000  0.894000  0.592000  1.0
  N  N397  1  0.342000  0.408000  0.106000  1.0
  N  N398  1  0.302000  0.236000  0.894000  1.0
  N  N399  1  0.302000  0.566000  0.408000  1.0
  N  N400  1  0.158000  0.764000  0.566000  1.0
  N  N401  1  0.658000  0.566000  0.764000  1.0
  N  N402  1  0.802000  0.408000  0.566000  1.0
  N  N403  1  0.802000  0.894000  0.236000  1.0
  N  N404  1  0.842000  0.106000  0.408000  1.0
  N  N405  1  0.658000  0.592000  0.894000  1.0
  N  N406  1  0.698000  0.764000  0.106000  1.0
  N  N407  1  0.698000  0.434000  0.592000  1.0
  N  N408  1  0.842000  0.236000  0.434000  1.0
  N  N409  1  0.181000  0.355000  0.152000  1.0
  N  N410  1  0.203000  0.674000  0.355000  1.0
  N  N411  1  0.203000  0.029000  0.848000  1.0
  N  N412  1  0.319000  0.971000  0.674000  1.0
  N  N413  1  0.181000  0.326000  0.029000  1.0
  N  N414  1  0.297000  0.152000  0.971000  1.0
  N  N415  1  0.297000  0.645000  0.326000  1.0
  N  N416  1  0.319000  0.848000  0.645000  1.0
  N  N417  1  0.819000  0.645000  0.848000  1.0
  N  N418  1  0.797000  0.326000  0.645000  1.0
  N  N419  1  0.797000  0.971000  0.152000  1.0
  N  N420  1  0.681000  0.029000  0.326000  1.0
  N  N421  1  0.819000  0.674000  0.971000  1.0
  N  N422  1  0.703000  0.848000  0.029000  1.0
  N  N423  1  0.703000  0.355000  0.674000  1.0
  N  N424  1  0.681000  0.152000  0.355000  1.0
  N  N425  1  0.540000  0.603000  0.473000  1.0
  N  N426  1  0.130000  0.563000  0.603000  1.0
  N  N427  1  0.130000  0.067000  0.527000  1.0
  N  N428  1  0.960000  0.933000  0.563000  1.0
  N  N429  1  0.540000  0.437000  0.067000  1.0
  N  N430  1  0.370000  0.473000  0.933000  1.0
  N  N431  1  0.370000  0.397000  0.437000  1.0
  N  N432  1  0.960000  0.527000  0.397000  1.0
  N  N433  1  0.460000  0.397000  0.527000  1.0
  N  N434  1  0.870000  0.437000  0.397000  1.0
  N  N435  1  0.870000  0.933000  0.473000  1.0
  N  N436  1  0.040000  0.067000  0.437000  1.0
  N  N437  1  0.460000  0.563000  0.933000  1.0
  N  N438  1  0.630000  0.527000  0.067000  1.0
  N  N439  1  0.630000  0.603000  0.563000  1.0
  N  N440  1  0.040000  0.473000  0.603000  1.0
  O  O441  1  0.936000  0.765000  0.783000  1.0
  O  O442  1  0.982000  0.329000  0.765000  1.0
  O  O443  1  0.982000  0.153000  0.217000  1.0
  O  O444  1  0.564000  0.847000  0.329000  1.0
  O  O445  1  0.936000  0.671000  0.153000  1.0
  O  O446  1  0.518000  0.783000  0.847000  1.0
  O  O447  1  0.518000  0.235000  0.671000  1.0
  O  O448  1  0.564000  0.217000  0.235000  1.0
  O  O449  1  0.064000  0.235000  0.217000  1.0
  O  O450  1  0.018000  0.671000  0.235000  1.0
  O  O451  1  0.018000  0.847000  0.783000  1.0
  O  O452  1  0.436000  0.153000  0.671000  1.0
  O  O453  1  0.064000  0.329000  0.847000  1.0
  O  O454  1  0.482000  0.217000  0.153000  1.0
  O  O455  1  0.482000  0.765000  0.329000  1.0
  O  O456  1  0.436000  0.783000  0.765000  1.0
  Pd  Pd457  1  0.750000  0.960300  0.710300  1.0
  Pd  Pd458  1  0.250000  0.710300  0.960300  1.0
  Pd  Pd459  1  0.250000  0.039700  0.289700  1.0
  Pd  Pd460  1  0.750000  0.289700  0.039700  1.0
  Pd  Pd461  1  0.263400  0.381700  0.131700  1.0
  Pd  Pd462  1  0.250000  0.618300  0.381700  1.0
  Pd  Pd463  1  0.250000  0.131700  0.868300  1.0
  Pd  Pd464  1  0.236600  0.868300  0.618300  1.0
  Pd  Pd465  1  0.736600  0.618300  0.868300  1.0
  Pd  Pd466  1  0.750000  0.381700  0.618300  1.0
  Pd  Pd467  1  0.750000  0.868300  0.131700  1.0
  Pd  Pd468  1  0.763400  0.131700  0.381700  1.0
