# generated using pymatgen
data_Fe2CoB2H54C65(N12O)2
_symmetry_space_group_name_H-M   'P 1'
_cell_length_a   20.41800000
_cell_length_b   21.06200000
_cell_length_c   23.41600000
_cell_angle_alpha   91.63100000
_cell_angle_beta   112.93000000
_cell_angle_gamma   115.75700000
_symmetry_Int_Tables_number   1
_chemical_formula_structural   Fe2CoB2H54C65(N12O)2
_chemical_formula_sum   'Fe8 Co4 B8 H216 C260 N96 O8'
_cell_volume   8111.87755606
_cell_formula_units_Z   4
loop_
 _symmetry_equiv_pos_site_id
 _symmetry_equiv_pos_as_xyz
  1  'x, y, z'
loop_
 _atom_site_type_symbol
 _atom_site_label
 _atom_site_symmetry_multiplicity
 _atom_site_fract_x
 _atom_site_fract_y
 _atom_site_fract_z
 _atom_site_occupancy
  Fe  Fe1  1  0.685170  0.641590  0.039110  1.0
  Fe  Fe2  1  0.314830  0.358410  0.960890  1.0
  Fe  Fe3  1  0.662560  0.911330  0.238370  1.0
  Fe  Fe4  1  0.337440  0.088670  0.761630  1.0
  Fe  Fe5  1  0.556740  0.600660  0.376710  1.0
  Fe  Fe6  1  0.443260  0.399340  0.623290  1.0
  Fe  Fe7  1  0.896410  0.575390  0.367520  1.0
  Fe  Fe8  1  0.103590  0.424610  0.632480  1.0
  Co  Co9  1  0.412100  0.613770  0.953890  1.0
  Co  Co10  1  0.587900  0.386230  0.046110  1.0
  Co  Co11  1  0.740330  0.710730  0.270120  1.0
  Co  Co12  1  0.259670  0.289270  0.729880  1.0
  B  B13  1  0.817800  0.731600  0.996300  1.0
  B  B14  1  0.182200  0.268400  0.003700  1.0
  B  B15  1  0.790500  0.073200  0.282800  1.0
  B  B16  1  0.209500  0.926800  0.717200  1.0
  B  B17  1  0.639700  0.675200  0.519300  1.0
  B  B18  1  0.360300  0.324800  0.480700  1.0
  B  B19  1  0.082000  0.659200  0.451700  1.0
  B  B20  1  0.918000  0.340800  0.548300  1.0
  H  H21  1  0.686400  0.761900  0.712200  1
  H  H22  1  0.313600  0.238100  0.287800  1
  H  H23  1  0.683700  0.700300  0.751100  1
  H  H24  1  0.316300  0.299700  0.248900  1
  H  H25  1  0.644900  0.679300  0.674900  1
  H  H26  1  0.355100  0.320700  0.325100  1
  H  H27  1  0.539400  0.651200  0.091500  1.0
  H  H28  1  0.460600  0.348800  0.908500  1.0
  H  H29  1  0.542900  0.666900  0.190400  1.0
  H  H30  1  0.457100  0.333100  0.809600  1.0
  H  H31  1  0.434000  0.669900  0.199700  1.0
  H  H32  1  0.566000  0.330100  0.800300  1.0
  H  H33  1  0.321700  0.653200  0.106900  1.0
  H  H34  1  0.678300  0.346800  0.893100  1.0
  H  H35  1  0.199400  0.625600  0.990500  1.0
  H  H36  1  0.800600  0.374400  0.009500  1.0
  H  H37  1  0.091700  0.506800  0.782100  1.0
  H  H38  1  0.908300  0.493200  0.217900  1.0
  H  H39  1  0.960900  0.478900  0.708700  1.0
  H  H40  1  0.039100  0.521100  0.291300  1.0
  H  H41  1  0.951500  0.602900  0.836300  1.0
  H  H42  1  0.048500  0.397100  0.163700  1.0
  H  H43  1  0.084000  0.635200  0.907200  1.0
  H  H44  1  0.916000  0.364800  0.092800  1.0
  H  H45  1  0.824900  0.380100  0.711600  1.0
  H  H46  1  0.175100  0.619900  0.288400  1.0
  H  H47  1  0.748600  0.286000  0.619200  1.0
  H  H48  1  0.251400  0.714000  0.380800  1.0
  H  H49  1  0.717100  0.427000  0.511400  1.0
  H  H50  1  0.282900  0.573000  0.488600  1.0
  H  H51  1  0.793400  0.521100  0.603700  1.0
  H  H52  1  0.206600  0.478900  0.396300  1.0
  H  H53  1  0.928400  0.653700  0.714500  1.0
  H  H54  1  0.071600  0.346300  0.285500  1.0
  H  H55  1  0.884400  0.739700  0.712500  1.0
  H  H56  1  0.115600  0.260300  0.287500  1.0
  H  H57  1  0.687100  0.592800  0.729300  1.0
  H  H58  1  0.312900  0.407200  0.270700  1.0
  H  H59  1  0.731100  0.506800  0.731200  1.0
  H  H60  1  0.268900  0.493200  0.268800  1.0
  H  H61  1  0.355000  0.482800  0.852000  1.0
  H  H62  1  0.645000  0.517200  0.148000  1.0
  H  H63  1  0.356300  0.466800  0.753900  1.0
  H  H64  1  0.643700  0.533200  0.246100  1.0
  H  H65  1  0.391800  0.565300  0.708000  1.0
  H  H66  1  0.608200  0.434700  0.292000  1.0
  H  H67  1  0.426000  0.678100  0.760900  1.0
  H  H68  1  0.574000  0.321900  0.239100  1.0
  H  H69  1  0.488500  0.805200  0.845000  1.0
  H  H70  1  0.511500  0.194800  0.155000  1.0
  H  H71  1  0.537100  0.914400  0.041700  1.0
  H  H72  1  0.462900  0.085600  0.958300  1.0
  H  H73  1  0.609200  0.039900  0.075200  1.0
  H  H74  1  0.390800  0.960100  0.924800  1.0
  H  H75  1  0.664100  0.050300  0.926600  1.0
  H  H76  1  0.335900  0.949700  0.073400  1.0
  H  H77  1  0.595100  0.924900  0.895600  1.0
  H  H78  1  0.404900  0.075100  0.104400  1.0
  H  H79  1  0.584000  0.144600  0.913100  1.0
  H  H80  1  0.416000  0.855400  0.086900  1.0
  H  H81  1  0.613300  0.201700  0.836900  1.0
  H  H82  1  0.386700  0.798300  0.163100  1.0
  H  H83  1  0.747200  0.267500  0.853300  1.0
  H  H84  1  0.252800  0.732500  0.146700  1.0
  H  H85  1  0.851400  0.277400  0.947000  1.0
  H  H86  1  0.148600  0.722600  0.053000  1.0
  H  H87  1  0.822600  0.216900  0.024600  1.0
  H  H88  1  0.177400  0.783100  0.975400  1.0
  H  H89  1  0.656200  0.223800  0.077000  1.0
  H  H90  1  0.343800  0.776200  0.923000  1.0
  H  H91  1  0.733500  0.296500  0.181300  1.0
  H  H92  1  0.266500  0.703500  0.818700  1.0
  H  H93  1  0.882800  0.208400  0.218500  1.0
  H  H94  1  0.117200  0.791600  0.781500  1.0
  H  H95  1  0.805500  0.135800  0.114300  1.0
  H  H96  1  0.194500  0.864200  0.885700  1.0
  H  H97  1  0.958700  0.342900  0.347700  1.0
  H  H98  1  0.041300  0.657100  0.652300  1.0
  H  H99  1  0.967500  0.337500  0.283000  1.0
  H  H100  1  0.032500  0.662500  0.717000  1.0
  H  H101  1  0.932600  0.265900  0.307900  1.0
  H  H102  1  0.067400  0.734100  0.692100  1.0
  H  H103  1  0.747000  0.737300  0.412500  1.0
  H  H104  1  0.253000  0.262700  0.587500  1.0
  H  H105  1  0.832900  0.813500  0.511700  1.0
  H  H106  1  0.167100  0.186500  0.488300  1.0
  H  H107  1  0.960400  0.906400  0.529200  1.0
  H  H108  1  0.039600  0.093600  0.470800  1.0
  H  H109  1  0.996700  0.918100  0.446000  1.0
  H  H110  1  0.003300  0.081900  0.554000  1.0
  H  H111  1  0.030200  0.913100  0.352000  1.0
  H  H112  1  0.969800  0.086900  0.648000  1.0
  H  H113  1  0.118000  0.901000  0.304300  1.0
  H  H114  1  0.882000  0.099000  0.695700  1.0
  H  H115  1  0.203000  0.938800  0.254000  1.0
  H  H116  1  0.797000  0.061200  0.746000  1.0
  H  H117  1  0.006900  0.897700  0.084700  1.0
  H  H118  1  0.993100  0.102300  0.915300  1.0
  H  H119  1  0.923100  0.857000  0.133900  1.0
  H  H120  1  0.076900  0.143000  0.866100  1.0
  H  H121  1  0.064500  0.811100  0.060600  1.0
  H  H122  1  0.935500  0.188900  0.939400  1.0
  H  H123  1  0.014600  0.770300  0.951000  1.0
  H  H124  1  0.985400  0.229700  0.049000  1.0
  H  H125  1  0.154900  0.975700  0.945300  1.0
  H  H126  1  0.845100  0.024300  0.054700  1.0
  H  H127  1  0.199700  0.013500  0.054400  1.0
  H  H128  1  0.800300  0.986500  0.945600  1.0
  H  H129  1  0.261200  0.073200  0.205400  1.0
  H  H130  1  0.738800  0.926800  0.794600  1.0
  H  H131  1  0.405700  0.133200  0.269500  1.0
  H  H132  1  0.594300  0.866800  0.730500  1.0
  H  H133  1  0.479700  0.073200  0.270400  1.0
  H  H134  1  0.520300  0.926800  0.729600  1.0
  H  H135  1  0.408200  0.950300  0.211900  1.0
  H  H136  1  0.591800  0.049700  0.788100  1.0
  H  H137  1  0.270100  0.897300  0.147400  1.0
  H  H138  1  0.729900  0.102700  0.852600  1.0
  H  H139  1  0.989700  0.774700  0.797900  1.0
  H  H140  1  0.010300  0.225300  0.202100  1.0
  H  H141  1  0.951100  0.766800  0.846700  1.0
  H  H142  1  0.048900  0.233200  0.153300  1.0
  H  H143  1  0.023000  0.747900  0.861000  1.0
  H  H144  1  0.977000  0.252100  0.139000  1.0
  H  H145  1  0.666000  0.787300  0.059800  1.0
  H  H146  1  0.334000  0.212700  0.940200  1.0
  H  H147  1  0.744200  0.901500  0.031600  1.0
  H  H148  1  0.255800  0.098500  0.968400  1.0
  H  H149  1  0.835500  0.878100  0.998800  1.0
  H  H150  1  0.164500  0.121900  0.001200  1.0
  H  H151  1  0.817800  0.606300  0.146700  1.0
  H  H152  1  0.182200  0.393700  0.853300  1.0
  H  H153  1  0.957000  0.650900  0.155700  1.0
  H  H154  1  0.043000  0.349100  0.844300  1.0
  H  H155  1  0.966900  0.723900  0.074500  1.0
  H  H156  1  0.033100  0.276100  0.925500  1.0
  H  H157  1  0.574000  0.534700  0.893300  1.0
  H  H158  1  0.426000  0.465300  0.106700  1.0
  H  H159  1  0.624400  0.556500  0.810200  1.0
  H  H160  1  0.375600  0.443500  0.189800  1.0
  H  H161  1  0.760900  0.666000  0.860500  1.0
  H  H162  1  0.239100  0.334000  0.139500  1.0
  H  H163  1  0.751100  0.882500  0.158100  1.0
  H  H164  1  0.248900  0.117500  0.841900  1.0
  H  H165  1  0.874100  0.982800  0.157900  1.0
  H  H166  1  0.125900  0.017200  0.842100  1.0
  H  H167  1  0.899100  0.095900  0.222400  1.0
  H  H168  1  0.100900  0.904100  0.777600  1.0
  H  H169  1  0.739000  0.898200  0.386300  1.0
  H  H170  1  0.261000  0.101800  0.613700  1.0
  H  H171  1  0.859000  0.005500  0.473900  1.0
  H  H172  1  0.141000  0.994500  0.526100  1.0
  H  H173  1  0.887500  0.110000  0.421600  1.0
  H  H174  1  0.112500  0.890000  0.578400  1.0
  H  H175  1  0.520000  0.957200  0.173400  1.0
  H  H176  1  0.480000  0.042800  0.826600  1.0
  H  H177  1  0.556300  0.088800  0.181400  1.0
  H  H178  1  0.443700  0.911200  0.818600  1.0
  H  H179  1  0.705200  0.159600  0.243700  1.0
  H  H180  1  0.294800  0.840400  0.756300  1.0
  H  H181  1  0.578600  0.758100  0.340400  1.0
  H  H182  1  0.421400  0.241900  0.659600  1.0
  H  H183  1  0.645100  0.869400  0.429900  1.0
  H  H184  1  0.354900  0.130600  0.570100  1.0
  H  H185  1  0.680200  0.829700  0.530900  1.0
  H  H186  1  0.319800  0.170300  0.469100  1.0
  H  H187  1  0.389900  0.498200  0.390700  1.0
  H  H188  1  0.610100  0.501800  0.609300  1.0
  H  H189  1  0.385200  0.513100  0.495400  1.0
  H  H190  1  0.614800  0.486900  0.504600  1.0
  H  H191  1  0.523800  0.607200  0.572800  1.0
  H  H192  1  0.476200  0.392800  0.427200  1.0
  H  H193  1  0.696300  0.552300  0.406700  1.0
  H  H194  1  0.303700  0.447700  0.593300  1.0
  H  H195  1  0.803600  0.580000  0.516700  1.0
  H  H196  1  0.196400  0.420000  0.483300  1.0
  H  H197  1  0.784700  0.656200  0.585500  1.0
  H  H198  1  0.215300  0.343800  0.414500  1.0
  H  H199  1  0.877800  0.671800  0.467700  1.0
  H  H200  1  0.122200  0.328200  0.532300  1.0
  H  H201  1  0.997800  0.760300  0.566700  1.0
  H  H202  1  0.002200  0.239700  0.433300  1.0
  H  H203  1  0.119600  0.759200  0.564700  1.0
  H  H204  1  0.880400  0.240800  0.435300  1.0
  H  H205  1  0.902100  0.423500  0.385100  1.0
  H  H206  1  0.097900  0.576500  0.614900  1.0
  H  H207  1  0.034300  0.425400  0.451800  1.0
  H  H208  1  0.965700  0.574600  0.548200  1.0
  H  H209  1  0.139700  0.555300  0.490700  1.0
  H  H210  1  0.860300  0.444700  0.509300  1.0
  H  H211  1  0.922300  0.652600  0.252400  1.0
  H  H212  1  0.077700  0.347400  0.747600  1.0
  H  H213  1  0.060600  0.742500  0.267600  1.0
  H  H214  1  0.939400  0.257500  0.732400  1.0
  H  H215  1  0.156300  0.753500  0.376800  1.0
  H  H216  1  0.843700  0.246500  0.623200  1.0
  H  H217  1  0.860700  0.760400  0.982800  1.0
  H  H218  1  0.139300  0.239600  0.017200  1.0
  H  H219  1  0.832200  0.125800  0.296800  1.0
  H  H220  1  0.167800  0.874200  0.703200  1.0
  H  H221  1  0.666667  0.699600  0.565600  1.0
  H  H222  1  0.333333  0.300400  0.434400  1.0
  H  H223  1  0.142200  0.686000  0.478400  1.0
  H  H224  1  0.857800  0.314000  0.521600  1.0
  H  H225  1  0.229800  0.573700  0.843300  1.0
  H  H226  1  0.770200  0.426300  0.156700  1.0
  H  H227  1  0.500400  0.791400  0.014800  1.0
  H  H228  1  0.499600  0.208600  0.985200  1.0
  H  H229  1  0.855300  0.777900  0.189400  1.0
  H  H230  1  0.144700  0.222100  0.810600  1.0
  H  H231  1  0.623800  0.186300  0.447600  1.0
  H  H232  1  0.376200  0.813700  0.552400  1.0
  H  H233  1  0.622400  0.191300  0.515400  1.0
  H  H234  1  0.377600  0.808700  0.484600  1.0
  H  H235  1  0.704800  0.207900  0.511600  1.0
  H  H236  1  0.295200  0.792100  0.488400  1.0
  C  C237  1  0.689100  0.716600  0.713600  1
  C  C238  1  0.310900  0.283400  0.286400  1
  C  C239  1  0.494200  0.650800  0.094700  1.0
  C  C240  1  0.505800  0.349200  0.905300  1.0
  C  C241  1  0.497000  0.660900  0.153500  1.0
  C  C242  1  0.503000  0.339100  0.846500  1.0
  C  C243  1  0.432700  0.662300  0.159000  1.0
  C  C244  1  0.567300  0.337700  0.841000  1.0
  C  C245  1  0.366600  0.652300  0.104300  1.0
  C  C246  1  0.633400  0.347700  0.895700  1.0
  C  C247  1  0.366300  0.641100  0.046130  1.0
  C  C248  1  0.633700  0.358900  0.953870  1.0
  C  C249  1  0.298600  0.624400  0.984550  1.0
  C  C250  1  0.701400  0.375600  0.015450  1.0
  C  C251  1  0.221800  0.616600  0.964500  1.0
  C  C252  1  0.778200  0.383400  0.035500  1.0
  C  C253  1  0.184600  0.593300  0.899500  1.0
  C  C254  1  0.815400  0.406700  0.100500  1.0
  C  C255  1  0.102200  0.574900  0.852200  1.0
  C  C256  1  0.897800  0.425100  0.147800  1.0
  C  C257  1  0.064000  0.527800  0.793000  1.0
  C  C258  1  0.936000  0.472200  0.207000  1.0
  C  C259  1  0.985600  0.510700  0.749200  1.0
  C  C260  1  0.014400  0.489300  0.250800  1.0
  C  C261  1  0.943200  0.539400  0.764000  1.0
  C  C262  1  0.056800  0.460600  0.236000  1.0
  C  C263  1  0.980400  0.584400  0.824200  1.0
  C  C264  1  0.019600  0.415600  0.175800  1.0
  C  C265  1  0.059100  0.602800  0.866900  1.0
  C  C266  1  0.940900  0.397200  0.133100  1.0
  C  C267  1  0.816300  0.459400  0.666300  1.0
  C  C268  1  0.183700  0.540600  0.333700  1.0
  C  C269  1  0.803000  0.389600  0.670900  1.0
  C  C270  1  0.197000  0.610400  0.329100  1.0
  C  C271  1  0.757700  0.333700  0.616100  1.0
  C  C272  1  0.242300  0.666300  0.383900  1.0
  C  C273  1  0.725700  0.347700  0.556600  1.0
  C  C274  1  0.274300  0.652300  0.443400  1.0
  C  C275  1  0.739000  0.417500  0.552030  1.0
  C  C276  1  0.261000  0.582500  0.447970  1.0
  C  C277  1  0.784300  0.473400  0.606900  1.0
  C  C278  1  0.215700  0.526600  0.393100  1.0
  C  C279  1  0.833900  0.572200  0.723100  1.0
  C  C280  1  0.166100  0.427800  0.276900  1.0
  C  C281  1  0.879400  0.641400  0.717500  1.0
  C  C282  1  0.120600  0.358600  0.282500  1.0
  C  C283  1  0.853300  0.692500  0.716300  1.0
  C  C284  1  0.146700  0.307500  0.283700  1.0
  C  C285  1  0.781600  0.674400  0.720700  1.0
  C  C286  1  0.218400  0.325600  0.279300  1.0
  C  C287  1  0.736100  0.605200  0.726300  1.0
  C  C288  1  0.263900  0.394800  0.273700  1.0
  C  C289  1  0.762200  0.554100  0.727400  1.0
  C  C290  1  0.237800  0.445900  0.272600  1.0
  C  C291  1  0.371100  0.523300  0.833920  1.0
  C  C292  1  0.628900  0.476700  0.166080  1.0
  C  C293  1  0.370900  0.513300  0.775300  1.0
  C  C294  1  0.629100  0.486700  0.224700  1.0
  C  C295  1  0.391900  0.571300  0.748400  1.0
  C  C296  1  0.608100  0.428700  0.251600  1.0
  C  C297  1  0.413000  0.637900  0.779900  1.0
  C  C298  1  0.587000  0.362100  0.220100  1.0
  C  C299  1  0.415600  0.646600  0.839600  1.0
  C  C300  1  0.584400  0.353400  0.160400  1.0
  C  C301  1  0.447600  0.714200  0.882300  1.0
  C  C302  1  0.552400  0.285800  0.117700  1.0
  C  C303  1  0.484000  0.786900  0.880600  1.0
  C  C304  1  0.516000  0.213100  0.119400  1.0
  C  C305  1  0.511900  0.826500  0.939800  1.0
  C  C306  1  0.488100  0.173500  0.060200  1.0
  C  C307  1  0.557600  0.905900  0.964200  1.0
  C  C308  1  0.442400  0.094100  0.035800  1.0
  C  C309  1  0.562900  0.941900  0.018000  1.0
  C  C310  1  0.437100  0.058100  0.982000  1.0
  C  C311  1  0.605100  0.016600  0.037600  1.0
  C  C312  1  0.394900  0.983400  0.962400  1.0
  C  C313  1  0.641200  0.057800  0.003000  1.0
  C  C314  1  0.358800  0.942200  0.997000  1.0
  C  C315  1  0.638000  0.022800  0.950100  1.0
  C  C316  1  0.362000  0.977200  0.049900  1.0
  C  C317  1  0.596700  0.948100  0.931900  1.0
  C  C318  1  0.403300  0.051900  0.068100  1.0
  C  C319  1  0.700100  0.173700  0.975200  1.0
  C  C320  1  0.299900  0.826300  0.024800  1.0
  C  C321  1  0.638900  0.170800  0.919900  1.0
  C  C322  1  0.361100  0.829200  0.080100  1.0
  C  C323  1  0.656100  0.205000  0.875100  1.0
  C  C324  1  0.343900  0.795000  0.124900  1.0
  C  C325  1  0.735200  0.244100  0.884800  1.0
  C  C326  1  0.264800  0.755900  0.115200  1.0
  C  C327  1  0.796700  0.249300  0.939900  1.0
  C  C328  1  0.203300  0.750700  0.060100  1.0
  C  C329  1  0.779900  0.213600  0.986400  1.0
  C  C330  1  0.220100  0.786400  0.013600  1.0
  C  C331  1  0.723600  0.172980  0.085870  1.0
  C  C332  1  0.276400  0.827020  0.914130  1.0
  C  C333  1  0.702200  0.220700  0.105760  1.0
  C  C334  1  0.297800  0.779300  0.894240  1.0
  C  C335  1  0.748100  0.263840  0.167680  1.0
  C  C336  1  0.251900  0.736160  0.832320  1.0
  C  C337  1  0.815400  0.259250  0.209700  1.0
  C  C338  1  0.184600  0.740750  0.790300  1.0
  C  C339  1  0.836800  0.211500  0.189810  1.0
  C  C340  1  0.163200  0.788500  0.810190  1.0
  C  C341  1  0.790900  0.168400  0.127890  1.0
  C  C342  1  0.209100  0.831600  0.872110  1.0
  C  C343  1  0.934500  0.312900  0.304700  1.0
  C  C344  1  0.065500  0.687100  0.695300  1.0
  C  C345  1  0.798900  0.774700  0.419500  1.0
  C  C346  1  0.201100  0.225300  0.580500  1.0
  C  C347  1  0.848900  0.819400  0.478400  1.0
  C  C348  1  0.151100  0.180600  0.521600  1.0
  C  C349  1  0.923700  0.873700  0.488500  1.0
  C  C350  1  0.076300  0.126300  0.511500  1.0
  C  C351  1  0.945200  0.880700  0.439700  1.0
  C  C352  1  0.054800  0.119300  0.560300  1.0
  C  C353  1  0.890200  0.832000  0.380700  1.0
  C  C354  1  0.109800  0.168000  0.619300  1.0
  C  C355  1  0.909000  0.834800  0.326300  1.0
  C  C356  1  0.091000  0.165200  0.673700  1.0
  C  C357  1  0.979500  0.876400  0.319600  1.0
  C  C358  1  0.020500  0.123600  0.680400  1.0
  C  C359  1  0.961400  0.854200  0.257700  1.0
  C  C360  1  0.038600  0.145800  0.742300  1.0
  C  C361  1  0.011300  0.876300  0.224100  1.0
  C  C362  1  0.988700  0.123700  0.775900  1.0
  C  C363  1  0.096100  0.900100  0.260100  1.0
  C  C364  1  0.903900  0.099900  0.739900  1.0
  C  C365  1  0.146400  0.921800  0.229900  1.0
  C  C366  1  0.853600  0.078200  0.770100  1.0
  C  C367  1  0.114000  0.918900  0.163800  1.0
  C  C368  1  0.886000  0.081100  0.836200  1.0
  C  C369  1  0.028700  0.896700  0.128400  1.0
  C  C370  1  0.971300  0.103300  0.871600  1.0
  C  C371  1  0.979700  0.874300  0.158100  1.0
  C  C372  1  0.020300  0.125700  0.841900  1.0
  C  C373  1  0.137600  0.916800  0.067400  1.0
  C  C374  1  0.862400  0.083200  0.932600  1.0
  C  C375  1  0.082400  0.844400  0.036500  1.0
  C  C376  1  0.917600  0.155600  0.963500  1.0
  C  C377  1  0.053100  0.819700  0.972400  1.0
  C  C378  1  0.946900  0.180300  0.027600  1.0
  C  C379  1  0.083100  0.871200  0.940400  1.0
  C  C380  1  0.916900  0.128800  0.059600  1.0
  C  C381  1  0.136300  0.942100  0.968900  1.0
  C  C382  1  0.863700  0.057900  0.031100  1.0
  C  C383  1  0.162700  0.963800  0.033400  1.0
  C  C384  1  0.837300  0.036200  0.966600  1.0
  C  C385  1  0.254300  0.977500  0.173500  1.0
  C  C386  1  0.745700  0.022500  0.826500  1.0
  C  C387  1  0.291700  0.049100  0.207300  1.0
  C  C388  1  0.708300  0.950900  0.792700  1.0
  C  C389  1  0.378100  0.084800  0.245000  1.0
  C  C390  1  0.621900  0.915200  0.755000  1.0
  C  C391  1  0.422300  0.049100  0.246100  1.0
  C  C392  1  0.577700  0.950900  0.753900  1.0
  C  C393  1  0.380000  0.976600  0.210500  1.0
  C  C394  1  0.620000  0.023400  0.789500  1.0
  C  C395  1  0.297700  0.944800  0.173800  1.0
  C  C396  1  0.702300  0.055200  0.826200  1.0
  C  C397  1  0.001300  0.779900  0.843000  1.0
  C  C398  1  0.998700  0.220100  0.157000  1.0
  C  C399  1  0.579200  0.628100  0.001690  1.0
  C  C400  1  0.420800  0.371900  0.998310  1.0
  C  C401  1  0.692400  0.659530  0.122370  1.0
  C  C402  1  0.307600  0.340470  0.877630  1.0
  C  C403  1  0.352700  0.457100  0.961880  1.0
  C  C404  1  0.647300  0.542900  0.038120  1.0
  C  C405  1  0.682400  0.831200  0.248400  1.0
  C  C406  1  0.317600  0.168800  0.751600  1.0
  C  C407  1  0.576400  0.866700  0.262500  1.0
  C  C408  1  0.423600  0.133300  0.737500  1.0
  C  C409  1  0.585400  0.854500  0.154000  1.0
  C  C410  1  0.414600  0.145500  0.846000  1.0
  C  C411  1  0.607800  0.625900  0.320100  1.0
  C  C412  1  0.392200  0.374100  0.679900  1.0
  C  C413  1  0.460000  0.595400  0.312000  1.0
  C  C414  1  0.540000  0.404600  0.688000  1.0
  C  C415  1  0.514100  0.499000  0.341800  1.0
  C  C416  1  0.485900  0.501000  0.658200  1.0
  C  C417  1  0.829700  0.617600  0.327700  1.0
  C  C418  1  0.170300  0.382400  0.672300  1.0
  C  C419  1  0.817800  0.513000  0.393800  1.0
  C  C420  1  0.182200  0.487000  0.606200  1.0
  C  C421  1  0.832100  0.502200  0.289500  1.0
  C  C422  1  0.167900  0.497800  0.710500  1.0
  C  C423  1  0.705600  0.794800  0.045300  1.0
  C  C424  1  0.294400  0.205200  0.954700  1.0
  C  C425  1  0.748500  0.858400  0.030000  1.0
  C  C426  1  0.251500  0.141600  0.970000  1.0
  C  C427  1  0.798100  0.844900  0.012200  1.0
  C  C428  1  0.201900  0.155100  0.987800  1.0
  C  C429  1  0.839000  0.635800  0.121700  1.0
  C  C430  1  0.161000  0.364200  0.878300  1.0
  C  C431  1  0.915900  0.660100  0.127000  1.0
  C  C432  1  0.084100  0.339900  0.873000  1.0
  C  C433  1  0.921000  0.700000  0.082600  1.0
  C  C434  1  0.079000  0.300000  0.917400  1.0
  C  C435  1  0.624900  0.573000  0.899200  1.0
  C  C436  1  0.375100  0.427000  0.100800  1.0
  C  C437  1  0.652300  0.584600  0.852900  1.0
  C  C438  1  0.347700  0.415400  0.147100  1.0
  C  C439  1  0.726900  0.644200  0.880500  1.0
  C  C440  1  0.273100  0.355800  0.119500  1.0
  C  C441  1  0.776500  0.931900  0.179400  1.0
  C  C442  1  0.223500  0.068100  0.820600  1.0
  C  C443  1  0.843500  0.986300  0.178600  1.0
  C  C444  1  0.156500  0.013700  0.821400  1.0
  C  C445  1  0.857000  0.048100  0.214700  1.0
  C  C446  1  0.143000  0.951900  0.785300  1.0
  C  C447  1  0.765200  0.946000  0.381300  1.0
  C  C448  1  0.234800  0.054000  0.618700  1.0
  C  C449  1  0.831100  0.004700  0.430300  1.0
  C  C450  1  0.168900  0.995300  0.569700  1.0
  C  C451  1  0.846400  0.061200  0.400900  1.0
  C  C452  1  0.153600  0.938800  0.599100  1.0
  C  C453  1  0.573300  0.997500  0.194700  1.0
  C  C454  1  0.426700  0.002500  0.805300  1.0
  C  C455  1  0.592700  0.070200  0.198800  1.0
  C  C456  1  0.407300  0.929800  0.801200  1.0
  C  C457  1  0.674000  0.108200  0.232700  1.0
  C  C458  1  0.326000  0.891800  0.767300  1.0
  C  C459  1  0.599900  0.760200  0.384900  1.0
  C  C460  1  0.400100  0.239800  0.615100  1.0
  C  C461  1  0.636200  0.822100  0.434300  1.0
  C  C462  1  0.363800  0.177900  0.565700  1.0
  C  C463  1  0.655800  0.799900  0.489400  1.0
  C  C464  1  0.344200  0.200100  0.510600  1.0
  C  C465  1  0.433800  0.531700  0.429400  1.0
  C  C466  1  0.566200  0.468300  0.570600  1.0
  C  C467  1  0.430500  0.538900  0.487000  1.0
  C  C468  1  0.569500  0.461100  0.513000  1.0
  C  C469  1  0.506100  0.591000  0.528500  1.0
  C  C470  1  0.493900  0.409000  0.471500  1.0
  C  C471  1  0.703100  0.579000  0.443800  1.0
  C  C472  1  0.296900  0.421000  0.556200  1.0
  C  C473  1  0.763000  0.594600  0.503900  1.0
  C  C474  1  0.237000  0.405400  0.496100  1.0
  C  C475  1  0.751600  0.635500  0.541000  1.0
  C  C476  1  0.248400  0.364500  0.459000  1.0
  C  C477  1  0.932400  0.682300  0.480400  1.0
  C  C478  1  0.067600  0.317700  0.519600  1.0
  C  C479  1  0.998100  0.731600  0.534900  1.0
  C  C480  1  0.001900  0.268400  0.465100  1.0
  C  C481  1  0.064700  0.730500  0.533500  1.0
  C  C482  1  0.935300  0.269500  0.466500  1.0
  C  C483  1  0.953700  0.465800  0.406500  1.0
  C  C484  1  0.046300  0.534200  0.593500  1.0
  C  C485  1  0.026500  0.466100  0.443300  1.0
  C  C486  1  0.973500  0.533900  0.556700  1.0
  C  C487  1  0.083300  0.537000  0.464200  1.0
  C  C488  1  0.916700  0.463000  0.535800  1.0
  C  C489  1  0.971700  0.666667  0.289500  1.0
  C  C490  1  0.028300  0.333333  0.710500  1.0
  C  C491  1  0.047500  0.716800  0.297700  1.0
  C  C492  1  0.952500  0.283200  0.702300  1.0
  C  C493  1  0.099200  0.722000  0.356900  1.0
  C  C494  1  0.900800  0.278000  0.643100  1.0
  C  C495  1  0.655300  0.212300  0.492700  1.0
  C  C496  1  0.344700  0.787700  0.507300  1.0
  N  N497  1  0.429700  0.640330  0.041010  1.0
  N  N498  1  0.570300  0.359670  0.958990  1.0
  N  N499  1  0.308850  0.607660  0.934910  1.0
  N  N500  1  0.691150  0.392340  0.065090  1.0
  N  N501  1  0.239000  0.587970  0.882680  1.0
  N  N502  1  0.761000  0.412030  0.117320  1.0
  N  N503  1  0.863800  0.522100  0.721100  1.0
  N  N504  1  0.136200  0.477900  0.278900  1.0
  N  N505  1  0.393510  0.589010  0.866150  1.0
  N  N506  1  0.606490  0.410990  0.133850  1.0
  N  N507  1  0.452000  0.710170  0.940440  1.0
  N  N508  1  0.548000  0.289830  0.059560  1.0
  N  N509  1  0.490600  0.779190  0.974900  1.0
  N  N510  1  0.509400  0.220810  0.025100  1.0
  N  N511  1  0.679500  0.135000  0.020300  1.0
  N  N512  1  0.320500  0.865000  0.979700  1.0
  N  N513  1  0.817600  0.779440  0.370620  1.0
  N  N514  1  0.182400  0.220560  0.629380  1.0
  N  N515  1  0.851100  0.788180  0.271540  1.0
  N  N516  1  0.148900  0.211820  0.728460  1.0
  N  N517  1  0.882400  0.801100  0.229890  1.0
  N  N518  1  0.117600  0.198900  0.770110  1.0
  N  N519  1  0.166200  0.941600  0.134100  1.0
  N  N520  1  0.833800  0.058400  0.865900  1.0
  N  N521  1  0.516400  0.623590  0.980930  1.0
  N  N522  1  0.483600  0.376410  0.019070  1.0
  N  N523  1  0.697100  0.668540  0.172900  1.0
  N  N524  1  0.302900  0.331460  0.827100  1.0
  N  N525  1  0.371700  0.516890  0.959460  1.0
  N  N526  1  0.628300  0.483110  0.040540  1.0
  N  N527  1  0.696600  0.783990  0.254120  1.0
  N  N528  1  0.303400  0.216010  0.745880  1.0
  N  N529  1  0.522800  0.839700  0.275500  1.0
  N  N530  1  0.477200  0.160300  0.724500  1.0
  N  N531  1  0.539900  0.819100  0.102990  1.0
  N  N532  1  0.460100  0.180900  0.897010  1.0
  N  N533  1  0.643300  0.645510  0.290960  1.0
  N  N534  1  0.356700  0.354490  0.709040  1.0
  N  N535  1  0.402800  0.593100  0.275200  1.0
  N  N536  1  0.597200  0.406900  0.724800  1.0
  N  N537  1  0.488600  0.438400  0.322600  1.0
  N  N538  1  0.511400  0.561600  0.677400  1.0
  N  N539  1  0.792000  0.644960  0.302410  1.0
  N  N540  1  0.208000  0.355040  0.697590  1.0
  N  N541  1  0.769900  0.474300  0.408960  1.0
  N  N542  1  0.230100  0.525700  0.591040  1.0
  N  N543  1  0.791900  0.458800  0.242550  1.0
  N  N544  1  0.208100  0.541200  0.757450  1.0
  N  N545  1  0.727700  0.746450  0.036700  1.0
  N  N546  1  0.272300  0.253550  0.963300  1.0
  N  N547  1  0.786300  0.777780  0.016220  1.0
  N  N548  1  0.213700  0.222220  0.983780  1.0
  N  N549  1  0.799300  0.659420  0.076990  1.0
  N  N550  1  0.200700  0.340580  0.923010  1.0
  N  N551  1  0.849700  0.699480  0.052140  1.0
  N  N552  1  0.150300  0.300520  0.947860  1.0
  N  N553  1  0.680200  0.622970  0.953020  1.0
  N  N554  1  0.319800  0.377030  0.046980  1.0
  N  N555  1  0.744200  0.667100  0.941760  1.0
  N  N556  1  0.255800  0.332900  0.058240  1.0
  N  N557  1  0.751300  0.957600  0.214500  1.0
  N  N558  1  0.248700  0.042400  0.785500  1.0
  N  N559  1  0.802000  0.030100  0.237100  1.0
  N  N560  1  0.198000  0.969900  0.762900  1.0
  N  N561  1  0.743900  0.965170  0.327220  1.0
  N  N562  1  0.256100  0.034830  0.672780  1.0
  N  N563  1  0.795600  0.037600  0.339600  1.0
  N  N564  1  0.204400  0.962400  0.660400  1.0
  N  N565  1  0.641500  0.993700  0.225330  1.0
  N  N566  1  0.358500  0.006300  0.774670  1.0
  N  N567  1  0.704500  0.062400  0.248700  1.0
  N  N568  1  0.295500  0.937600  0.751300  1.0
  N  N569  1  0.600900  0.704300  0.412300  1.0
  N  N570  1  0.399100  0.295700  0.587700  1.0
  N  N571  1  0.635400  0.729300  0.476600  1.0
  N  N572  1  0.364600  0.270700  0.523400  1.0
  N  N573  1  0.507200  0.578300  0.436000  1.0
  N  N574  1  0.492800  0.421700  0.564000  1.0
  N  N575  1  0.552400  0.616400  0.497900  1.0
  N  N576  1  0.447600  0.383600  0.502100  1.0
  N  N577  1  0.656300  0.606200  0.444450  1.0
  N  N578  1  0.343700  0.393800  0.555550  1.0
  N  N579  1  0.685700  0.641900  0.504530  1.0
  N  N580  1  0.314300  0.358100  0.495470  1.0
  N  N581  1  0.956000  0.651420  0.447890  1.0
  N  N582  1  0.044000  0.348580  0.552110  1.0
  N  N583  1  0.038700  0.682100  0.480820  1.0
  N  N584  1  0.961300  0.317900  0.519180  1.0
  N  N585  1  0.967000  0.532500  0.405740  1.0
  N  N586  1  0.033000  0.467500  0.594260  1.0
  N  N587  1  0.048000  0.577500  0.441890  1.0
  N  N588  1  0.952000  0.422500  0.558110  1.0
  N  N589  1  0.978000  0.640700  0.341800  1.0
  N  N590  1  0.022000  0.359300  0.658200  1.0
  N  N591  1  0.056800  0.675000  0.383600  1.0
  N  N592  1  0.943200  0.325000  0.616400  1.0
  O  O593  1  0.764300  0.728500  0.717600  1
  O  O594  1  0.235700  0.271500  0.282400  1
  O  O595  1  0.854300  0.301900  0.269400  1.0
  O  O596  1  0.145700  0.698100  0.730600  1.0
  O  O597  1  0.060400  0.854400  0.877500  1.0
  O  O598  1  0.939600  0.145600  0.122500  1.0
  O  O599  1  0.677900  0.291300  0.498000  1.0
  O  O600  1  0.322100  0.708700  0.502000  1.0
