# generated using pymatgen
data_Fe4Co2B4H100C136N53O4
_symmetry_space_group_name_H-M   'P 1'
_cell_length_a   17.58000000
_cell_length_b   20.77500000
_cell_length_c   22.19700000
_cell_angle_alpha   69.30600000
_cell_angle_beta   79.90900000
_cell_angle_gamma   72.10100000
_symmetry_Int_Tables_number   1
_chemical_formula_structural   Fe4Co2B4H100C136N53O4
_chemical_formula_sum   'Fe8 Co4 B8 H200 C272 N106 O8'
_cell_volume   7196.55226133
_cell_formula_units_Z   2
loop_
 _symmetry_equiv_pos_site_id
 _symmetry_equiv_pos_as_xyz
  1  'x, y, z'
loop_
 _atom_site_type_symbol
 _atom_site_label
 _atom_site_symmetry_multiplicity
 _atom_site_fract_x
 _atom_site_fract_y
 _atom_site_fract_z
 _atom_site_occupancy
  Fe  Fe1  1  0.180430  0.050960  0.447270  1.0
  Fe  Fe2  1  0.819570  0.949040  0.552730  1.0
  Fe  Fe3  1  0.996800  0.393520  0.182940  1.0
  Fe  Fe4  1  0.003200  0.606480  0.817060  1.0
  Fe  Fe5  1  0.888400  0.110630  0.125550  1.0
  Fe  Fe6  1  0.111600  0.889370  0.874450  1.0
  Fe  Fe7  1  0.298290  0.894570  0.172630  1.0
  Fe  Fe8  1  0.701710  0.105430  0.827370  1.0
  Co  Co9  1  0.095190  0.834080  0.490110  1.0
  Co  Co10  1  0.904810  0.165920  0.509890  1.0
  Co  Co11  1  0.126790  0.130350  0.209590  1.0
  Co  Co12  1  0.873210  0.869650  0.790410  1.0
  B  B13  1  0.335200  0.064700  0.486800  1.0
  B  B14  1  0.664800  0.935300  0.513200  1.0
  B  B15  1  0.098500  0.501000  0.121400  1.0
  B  B16  1  0.901500  0.499000  0.878600  1.0
  B  B17  1  0.862700  0.173600  0.981200  1.0
  B  B18  1  0.137300  0.826400  0.018800  1.0
  B  B19  1  0.455600  0.874500  0.088500  1.0
  B  B20  1  0.544400  0.125500  0.911500  1.0
  H  H21  1  0.108000  0.949400  0.359200  1.0
  H  H22  1  0.892000  0.050600  0.640800  1.0
  H  H23  1  0.076400  0.969700  0.255900  1.0
  H  H24  1  0.923600  0.030300  0.744100  1.0
  H  H25  1  0.033600  0.883800  0.233000  1.0
  H  H26  1  0.966400  0.116200  0.767000  1.0
  H  H27  1  0.023600  0.781800  0.315800  1.0
  H  H28  1  0.976400  0.218200  0.684200  1.0
  H  H29  1  0.996700  0.674500  0.425200  1.0
  H  H30  1  0.003300  0.325500  0.574800  1.0
  H  H31  1  0.917700  0.599600  0.490500  1.0
  H  H32  1  0.082300  0.400400  0.509500  1.0
  H  H33  1  0.865000  0.503000  0.552800  1.0
  H  H34  1  0.135000  0.497000  0.447200  1.0
  H  H35  1  0.977700  0.478900  0.705000  1.0
  H  H36  1  0.022300  0.521100  0.295000  1.0
  H  H37  1  0.030400  0.574100  0.644300  1.0
  H  H38  1  0.969600  0.425900  0.355700  1.0
  H  H39  1  0.767800  0.531000  0.676700  1.0
  H  H40  1  0.232200  0.469000  0.323300  1.0
  H  H41  1  0.632500  0.546900  0.677500  1.0
  H  H42  1  0.367500  0.453100  0.322500  1.0
  H  H43  1  0.583700  0.452900  0.680000  1.0
  H  H44  1  0.416300  0.547100  0.320000  1.0
  H  H45  1  0.674100  0.345900  0.678300  1.0
  H  H46  1  0.325900  0.654100  0.321700  1.0
  H  H47  1  0.809600  0.332100  0.668300  1.0
  H  H48  1  0.190400  0.667900  0.331700  1.0
  H  H49  1  0.851200  0.334200  0.784400  1.0
  H  H50  1  0.148800  0.665800  0.215600  1.0
  H  H51  1  0.941200  0.224600  0.843900  1.0
  H  H52  1  0.058800  0.775400  0.156100  1.0
  H  H53  1  0.075300  0.195400  0.814100  1.0
  H  H54  1  0.924700  0.804600  0.185900  1.0
  H  H55  1  0.126700  0.267400  0.718600  1.0
  H  H56  1  0.873300  0.732600  0.281400  1.0
  H  H57  1  0.038100  0.368200  0.655900  1.0
  H  H58  1  0.961900  0.631800  0.344100  1.0
  H  H59  1  0.019100  0.863700  0.616200  1.0
  H  H60  1  0.980900  0.136300  0.383800  1.0
  H  H61  1  0.058400  0.832700  0.719000  1.0
  H  H62  1  0.941600  0.167300  0.281000  1.0
  H  H63  1  0.178600  0.746400  0.748200  1.0
  H  H64  1  0.821400  0.253600  0.251800  1.0
  H  H65  1  0.261100  0.700600  0.669400  1.0
  H  H66  1  0.738900  0.299400  0.330600  1.0
  H  H67  1  0.343600  0.659400  0.565500  1.0
  H  H68  1  0.656400  0.340600  0.434500  1.0
  H  H69  1  0.405300  0.573800  0.484600  1.0
  H  H70  1  0.594700  0.426200  0.515400  1.0
  H  H71  1  0.530800  0.527500  0.436400  1.0
  H  H72  1  0.469200  0.472500  0.563600  1.0
  H  H73  1  0.521300  0.721600  0.309800  1.0
  H  H74  1  0.478700  0.278400  0.690200  1.0
  H  H75  1  0.396000  0.767300  0.358600  1.0
  H  H76  1  0.604000  0.232700  0.641400  1.0
  H  H77  1  0.631300  0.580500  0.465100  1.0
  H  H78  1  0.368700  0.419500  0.534900  1.0
  H  H79  1  0.729600  0.497900  0.533600  1.0
  H  H80  1  0.270400  0.502100  0.466400  1.0
  H  H81  1  0.823400  0.406800  0.499900  1.0
  H  H82  1  0.176600  0.593200  0.500100  1.0
  H  H83  1  0.829700  0.410500  0.393600  1.0
  H  H84  1  0.170300  0.589500  0.606400  1.0
  H  H85  1  0.737800  0.492900  0.324200  1.0
  H  H86  1  0.262200  0.507100  0.675800  1.0
  H  H87  1  0.715500  0.671600  0.319200  1.0
  H  H88  1  0.284500  0.328400  0.680800  1.0
  H  H89  1  0.755400  0.745300  0.219200  1.0
  H  H90  1  0.244600  0.254700  0.780800  1.0
  H  H91  1  0.706600  0.752700  0.124800  1.0
  H  H92  1  0.293400  0.247300  0.875200  1.0
  H  H93  1  0.617900  0.686300  0.130300  1.0
  H  H94  1  0.382100  0.313700  0.869700  1.0
  H  H95  1  0.578000  0.612700  0.230300  1.0
  H  H96  1  0.422000  0.387300  0.769700  1.0
  H  H97  1  0.072700  0.155000  0.068900  1.0
  H  H98  1  0.927300  0.845000  0.931100  1.0
  H  H99  1  0.095100  0.213400  0.961600  1.0
  H  H100  1  0.904900  0.786600  0.038400  1.0
  H  H101  1  0.193300  0.277200  0.931000  1.0
  H  H102  1  0.806700  0.722800  0.069000  1.0
  H  H103  1  0.268200  0.272700  0.011800  1.0
  H  H104  1  0.731800  0.727300  0.988200  1.0
  H  H105  1  0.329900  0.274300  0.108200  1.0
  H  H106  1  0.670100  0.725700  0.891800  1.0
  H  H107  1  0.390700  0.326200  0.165200  1.0
  H  H108  1  0.609300  0.673800  0.834800  1.0
  H  H109  1  0.465800  0.356400  0.219300  1.0
  H  H110  1  0.534200  0.643600  0.780700  1.0
  H  H111  1  0.449800  0.188700  0.378100  1.0
  H  H112  1  0.550200  0.811300  0.621900  1.0
  H  H113  1  0.364600  0.160500  0.325500  1.0
  H  H114  1  0.635400  0.839500  0.674500  1.0
  H  H115  1  0.425600  0.307700  0.436300  1.0
  H  H116  1  0.574400  0.692300  0.563700  1.0
  H  H117  1  0.445900  0.246500  0.547300  1.0
  H  H118  1  0.554100  0.753500  0.452700  1.0
  H  H119  1  0.560800  0.159600  0.571700  1.0
  H  H120  1  0.439200  0.840400  0.428300  1.0
  H  H121  1  0.660100  0.123500  0.496300  1.0
  H  H122  1  0.339900  0.876500  0.503700  1.0
  H  H123  1  0.645300  0.190800  0.381100  1.0
  H  H124  1  0.354700  0.809200  0.618900  1.0
  H  H125  1  0.525000  0.403700  0.358000  1.0
  H  H126  1  0.475000  0.596300  0.642000  1.0
  H  H127  1  0.601000  0.486400  0.303300  1.0
  H  H128  1  0.399000  0.513600  0.696700  1.0
  H  H129  1  0.686800  0.467900  0.215500  1.0
  H  H130  1  0.313200  0.532100  0.784500  1.0
  H  H131  1  0.698300  0.373900  0.179000  1.0
  H  H132  1  0.301700  0.626100  0.821000  1.0
  H  H133  1  0.623200  0.293400  0.233400  1.0
  H  H134  1  0.376800  0.706600  0.766600  1.0
  H  H135  1  0.151700  0.956300  0.599300  1.0
  H  H136  1  0.848300  0.043700  0.400700  1.0
  H  H137  1  0.246200  0.929300  0.682400  1.0
  H  H138  1  0.753800  0.070700  0.317600  1.0
  H  H139  1  0.354800  0.987800  0.625200  1.0
  H  H140  1  0.645200  0.012200  0.374800  1.0
  H  H141  1  0.112700  0.225500  0.405200  1.0
  H  H142  1  0.887300  0.774500  0.594800  1.0
  H  H143  1  0.191400  0.300200  0.421800  1.0
  H  H144  1  0.808600  0.699800  0.578200  1.0
  H  H145  1  0.315700  0.217200  0.469900  1.0
  H  H146  1  0.684300  0.782800  0.530100  1.0
  H  H147  1  0.296100  0.990000  0.333900  1.0
  H  H148  1  0.703900  0.010000  0.666100  1.0
  H  H149  1  0.441800  0.982100  0.313100  1.0
  H  H150  1  0.558200  0.017900  0.686900  1.0
  H  H151  1  0.474000  0.015300  0.401800  1.0
  H  H152  1  0.526000  0.984700  0.598200  1.0
  H  H153  1  0.852600  0.521600  0.216000  1.0
  H  H154  1  0.147400  0.478400  0.784000  1.0
  H  H155  1  0.868300  0.645300  0.191600  1.0
  H  H156  1  0.131700  0.354700  0.808400  1.0
  H  H157  1  0.005000  0.642000  0.132800  1.0
  H  H158  1  0.995000  0.358000  0.867200  1.0
  H  H159  1  0.025500  0.358300  0.048200  1.0
  H  H160  1  0.974500  0.641700  0.951800  1.0
  H  H161  1  0.101600  0.421100  0.950800  1.0
  H  H162  1  0.898400  0.578900  0.049200  1.0
  H  H163  1  0.150300  0.503800  0.986100  1.0
  H  H164  1  0.849700  0.496200  0.013900  1.0
  H  H165  1  0.130800  0.304800  0.292500  1.0
  H  H166  1  0.869200  0.695200  0.707500  1.0
  H  H167  1  0.248700  0.345100  0.290000  1.0
  H  H168  1  0.751300  0.654900  0.710000  1.0
  H  H169  1  0.237600  0.458600  0.196300  1.0
  H  H170  1  0.762400  0.541400  0.803700  1.0
  H  H171  1  0.067400  0.011800  0.093800  1.0
  H  H172  1  0.932600  0.988200  0.906200  1.0
  H  H173  1  0.120300  0.017900  0.979000  1.0
  H  H174  1  0.879700  0.982100  0.021000  1.0
  H  H175  1  0.012700  0.109100  0.908500  1.0
  H  H176  1  0.987300  0.890900  0.091500  1.0
  H  H177  1  0.723600  0.061300  0.145900  1.0
  H  H178  1  0.276400  0.938700  0.854100  1.0
  H  H179  1  0.640200  0.090700  0.055800  1.0
  H  H180  1  0.359800  0.909300  0.944200  1.0
  H  H181  1  0.719700  0.149700  0.955100  1.0
  H  H182  1  0.280300  0.850300  0.044900  1.0
  H  H183  1  0.887000  0.272200  0.125500  1.0
  H  H184  1  0.113000  0.727800  0.874500  1.0
  H  H185  1  0.866500  0.376300  0.022600  1.0
  H  H186  1  0.133500  0.623700  0.977400  1.0
  H  H187  1  0.856300  0.328300  0.937500  1.0
  H  H188  1  0.143700  0.671700  0.062500  1.0
  H  H189  1  0.290100  0.734400  0.176700  1.0
  H  H190  1  0.709900  0.265600  0.823300  1.0
  H  H191  1  0.394300  0.667300  0.118500  1.0
  H  H192  1  0.605700  0.332700  0.881500  1.0
  H  H193  1  0.487900  0.741300  0.057400  1.0
  H  H194  1  0.512100  0.258700  0.942600  1.0
  H  H195  1  0.228800  0.039900  0.057200  1.0
  H  H196  1  0.771200  0.960100  0.942800  1.0
  H  H197  1  0.312200  0.088000  0.958300  1.0
  H  H198  1  0.687800  0.912000  0.041700  1.0
  H  H199  1  0.446800  0.994100  0.966800  1.0
  H  H200  1  0.553200  0.005900  0.033200  1.0
  H  H201  1  0.394900  0.895500  0.285100  1.0
  H  H202  1  0.605100  0.104500  0.714900  1.0
  H  H203  1  0.543400  0.879900  0.271700  1.0
  H  H204  1  0.456600  0.120100  0.728300  1.0
  H  H205  1  0.588600  0.864400  0.163900  1.0
  H  H206  1  0.411400  0.135600  0.836100  1.0
  H  H207  1  0.384800  0.069400  0.499200  1.0
  H  H208  1  0.615200  0.930600  0.500800  1.0
  H  H209  1  0.132000  0.535400  0.101100  1.0
  H  H210  1  0.868000  0.464600  0.898900  1.0
  H  H211  1  0.854800  0.194300  0.933900  1.0
  H  H212  1  0.145200  0.805700  0.066100  1.0
  H  H213  1  0.507300  0.867800  0.061300  1.0
  H  H214  1  0.492700  0.132200  0.938700  1.0
  H  H215  1  0.039800  0.690300  0.587900  1.0
  H  H216  1  0.960200  0.309700  0.412100  1.0
  H  H217  1  0.247700  0.769600  0.399500  1.0
  H  H218  1  0.752300  0.230400  0.600500  1.0
  H  H219  1  0.263500  0.158100  0.279500  1.0
  H  H220  1  0.736500  0.841900  0.720500  1.0
  C  C221  1  0.577600  0.156000  0.205800  1
  C  C222  1  0.422400  0.844000  0.794200  1
  C  C223  1  0.576000  0.082200  0.233200  1
  C  C224  1  0.424000  0.917800  0.766800  1
  C  C225  1  0.473200  0.513000  0.144100  1
  C  C226  1  0.526800  0.487000  0.855900  1
  C  C227  1  0.390600  0.528300  0.127600  1
  C  C228  1  0.609400  0.471700  0.872400  1
  C  C229  1  0.663900  0.282900  0.059900  1
  C  C230  1  0.336100  0.717100  0.940100  1
  C  C231  1  0.593200  0.337500  0.065800  1
  C  C232  1  0.406800  0.662500  0.934200  1
  C  C233  1  0.673600  0.506500  0.014000  1
  C  C234  1  0.326400  0.493500  0.986000  1
  C  C235  1  0.647500  0.577000  0.020000  1
  C  C236  1  0.352500  0.423000  0.980000  1
  C  C237  1  0.592800  0.935700  0.860000  1
  C  C238  1  0.407200  0.064300  0.140000  1
  C  C239  1  0.553600  0.884600  0.896000  1
  C  C240  1  0.446400  0.115400  0.104000  1
  C  C241  1  0.088900  0.915500  0.350900  1.0
  C  C242  1  0.911100  0.084500  0.649100  1.0
  C  C243  1  0.071200  0.927000  0.289300  1.0
  C  C244  1  0.928800  0.073000  0.710700  1.0
  C  C245  1  0.045800  0.876500  0.275300  1.0
  C  C246  1  0.954200  0.123500  0.724700  1.0
  C  C247  1  0.039400  0.817500  0.324200  1.0
  C  C248  1  0.960600  0.182500  0.675800  1.0
  C  C249  1  0.054900  0.806700  0.386300  1.0
  C  C250  1  0.945100  0.193300  0.613700  1.0
  C  C251  1  0.040500  0.748900  0.443500  1.0
  C  C252  1  0.959500  0.251100  0.556500  1.0
  C  C253  1  0.011500  0.690400  0.455600  1.0
  C  C254  1  0.988500  0.309600  0.544400  1.0
  C  C255  1  0.009100  0.660400  0.521400  1.0
  C  C256  1  0.990900  0.339600  0.478600  1.0
  C  C257  1  0.978700  0.597000  0.562300  1.0
  C  C258  1  0.021300  0.403000  0.437700  1.0
  C  C259  1  0.929900  0.575400  0.534200  1.0
  C  C260  1  0.070100  0.424600  0.465800  1.0
  C  C261  1  0.899200  0.517200  0.571500  1.0
  C  C262  1  0.100800  0.482800  0.428500  1.0
  C  C263  1  0.917200  0.480700  0.633700  1.0
  C  C264  1  0.082800  0.519300  0.366300  1.0
  C  C265  1  0.965700  0.503000  0.661200  1.0
  C  C266  1  0.034300  0.497000  0.338800  1.0
  C  C267  1  0.996400  0.560100  0.625200  1.0
  C  C268  1  0.003600  0.439900  0.374800  1.0
  C  C269  1  0.804600  0.430900  0.673000  1.0
  C  C270  1  0.195400  0.569100  0.327000  1.0
  C  C271  1  0.749300  0.493000  0.675800  1.0
  C  C272  1  0.250700  0.507000  0.324200  1.0
  C  C273  1  0.668700  0.502400  0.677200  1.0
  C  C274  1  0.331300  0.497600  0.322800  1.0
  C  C275  1  0.639700  0.447200  0.678200  1.0
  C  C276  1  0.360300  0.552800  0.321800  1.0
  C  C277  1  0.693500  0.384600  0.676400  1.0
  C  C278  1  0.306500  0.615400  0.323600  1.0
  C  C279  1  0.773800  0.375600  0.672000  1.0
  C  C280  1  0.226200  0.624400  0.328000  1.0
  C  C281  1  0.936800  0.359500  0.713000  1.0
  C  C282  1  0.063200  0.640500  0.287000  1.0
  C  C283  1  0.905900  0.320200  0.769500  1.0
  C  C284  1  0.094100  0.679800  0.230500  1.0
  C  C285  1  0.961500  0.255400  0.805900  1.0
  C  C286  1  0.038500  0.744600  0.194100  1.0
  C  C287  1  0.040800  0.237200  0.787900  1.0
  C  C288  1  0.959200  0.762800  0.212100  1.0
  C  C289  1  0.071200  0.279100  0.731900  1.0
  C  C290  1  0.928800  0.720900  0.268100  1.0
  C  C291  1  0.017800  0.339300  0.695200  1.0
  C  C292  1  0.982200  0.660700  0.304800  1.0
  C  C293  1  0.069700  0.830700  0.626900  1.0
  C  C294  1  0.930300  0.169300  0.373100  1.0
  C  C295  1  0.091900  0.811700  0.688700  1.0
  C  C296  1  0.908100  0.188300  0.311300  1.0
  C  C297  1  0.162700  0.762100  0.705400  1.0
  C  C298  1  0.837300  0.237900  0.294600  1.0
  C  C299  1  0.211200  0.734800  0.658800  1.0
  C  C300  1  0.788800  0.265200  0.341200  1.0
  C  C301  1  0.186700  0.757700  0.596500  1.0
  C  C302  1  0.813300  0.242300  0.403500  1.0
  C  C303  1  0.233300  0.738700  0.544000  1.0
  C  C304  1  0.766700  0.261300  0.456000  1.0
  C  C305  1  0.308300  0.692500  0.533700  1.0
  C  C306  1  0.691700  0.307500  0.466300  1.0
  C  C307  1  0.319600  0.705600  0.467900  1.0
  C  C308  1  0.680400  0.294400  0.532100  1.0
  C  C309  1  0.390700  0.676200  0.430100  1.0
  C  C310  1  0.609300  0.323800  0.569900  1.0
  C  C311  1  0.429500  0.605300  0.449900  1.0
  C  C312  1  0.570500  0.394700  0.550100  1.0
  C  C313  1  0.504200  0.576900  0.420700  1.0
  C  C314  1  0.495800  0.423100  0.579300  1.0
  C  C315  1  0.538200  0.622500  0.368500  1.0
  C  C316  1  0.461800  0.377500  0.631500  1.0
  C  C317  1  0.498900  0.690700  0.346400  1.0
  C  C318  1  0.501100  0.309300  0.653600  1.0
  C  C319  1  0.423800  0.718500  0.376300  1.0
  C  C320  1  0.576200  0.281500  0.623700  1.0
  C  C321  1  0.675100  0.545100  0.387000  1.0
  C  C322  1  0.324900  0.454900  0.613000  1.0
  C  C323  1  0.672200  0.546000  0.450400  1.0
  C  C324  1  0.327800  0.454000  0.549600  1.0
  C  C325  1  0.729600  0.495900  0.491500  1.0
  C  C326  1  0.270400  0.504100  0.508500  1.0
  C  C327  1  0.786600  0.443300  0.471100  1.0
  C  C328  1  0.213400  0.556700  0.528900  1.0
  C  C329  1  0.788800  0.444900  0.408400  1.0
  C  C330  1  0.211200  0.555100  0.591600  1.0
  C  C331  1  0.734800  0.493800  0.367000  1.0
  C  C332  1  0.265200  0.506200  0.633000  1.0
  C  C333  1  0.643000  0.635200  0.284200  1.0
  C  C334  1  0.357000  0.364800  0.715800  1.0
  C  C335  1  0.695700  0.674600  0.280900  1.0
  C  C336  1  0.304300  0.325400  0.719100  1.0
  C  C337  1  0.719400  0.718400  0.221500  1.0
  C  C338  1  0.280600  0.281600  0.778500  1.0
  C  C339  1  0.690400  0.722700  0.165400  1.0
  C  C340  1  0.309600  0.277300  0.834600  1.0
  C  C341  1  0.637700  0.683300  0.168700  1.0
  C  C342  1  0.362300  0.316700  0.831300  1.0
  C  C343  1  0.614000  0.639600  0.228100  1.0
  C  C344  1  0.386000  0.360400  0.771900  1.0
  C  C345  1  0.112800  0.180100  0.056800  1.0
  C  C346  1  0.887200  0.819900  0.943200  1.0
  C  C347  1  0.125100  0.214600  0.992700  1.0
  C  C348  1  0.874900  0.785400  0.007300  1.0
  C  C349  1  0.183100  0.251200  0.975000  1.0
  C  C350  1  0.816900  0.748800  0.025000  1.0
  C  C351  1  0.226500  0.249600  0.022400  1.0
  C  C352  1  0.773500  0.750400  0.977600  1.0
  C  C353  1  0.206300  0.212700  0.086300  1.0
  C  C354  1  0.793700  0.787300  0.913700  1.0
  C  C355  1  0.248000  0.211700  0.139200  1.0
  C  C356  1  0.752000  0.788300  0.860800  1.0
  C  C357  1  0.304700  0.243900  0.143200  1.0
  C  C358  1  0.695300  0.756100  0.856800  1.0
  C  C359  1  0.317600  0.223200  0.208200  1.0
  C  C360  1  0.682400  0.776800  0.791800  1.0
  C  C361  1  0.368000  0.239400  0.239900  1.0
  C  C362  1  0.632000  0.760600  0.760100  1.0
  C  C363  1  0.400900  0.298400  0.208700  1.0
  C  C364  1  0.599100  0.701600  0.791300  1.0
  C  C365  1  0.446500  0.315200  0.240600  1.0
  C  C366  1  0.553500  0.684800  0.759400  1.0
  C  C367  1  0.466300  0.275800  0.301900  1.0
  C  C368  1  0.533700  0.724200  0.698100  1.0
  C  C369  1  0.436600  0.216700  0.335200  1.0
  C  C370  1  0.563400  0.783300  0.664800  1.0
  C  C371  1  0.386400  0.199900  0.303200  1.0
  C  C372  1  0.613600  0.800100  0.696800  1.0
  C  C373  1  0.531200  0.254900  0.401400  1.0
  C  C374  1  0.468800  0.745100  0.598600  1.0
  C  C375  1  0.473600  0.271200  0.448600  1.0
  C  C376  1  0.526400  0.728800  0.551400  1.0
  C  C377  1  0.484500  0.235200  0.514300  1.0
  C  C378  1  0.515500  0.764800  0.485700  1.0
  C  C379  1  0.552000  0.184200  0.527300  1.0
  C  C380  1  0.448000  0.815800  0.472700  1.0
  C  C381  1  0.614500  0.162200  0.482100  1.0
  C  C382  1  0.385500  0.837800  0.517900  1.0
  C  C383  1  0.605700  0.200600  0.414100  1.0
  C  C384  1  0.394300  0.799400  0.585900  1.0
  C  C385  1  0.564300  0.342200  0.300000  1.0
  C  C386  1  0.435700  0.657800  0.700000  1.0
  C  C387  1  0.559700  0.398100  0.321100  1.0
  C  C388  1  0.440300  0.601900  0.678900  1.0
  C  C389  1  0.604900  0.447000  0.289500  1.0
  C  C390  1  0.395100  0.553000  0.710500  1.0
  C  C391  1  0.655300  0.435400  0.237500  1.0
  C  C392  1  0.344700  0.564600  0.762500  1.0
  C  C393  1  0.662800  0.379700  0.215400  1.0
  C  C394  1  0.337200  0.620300  0.784600  1.0
  C  C395  1  0.618000  0.333000  0.247300  1.0
  C  C396  1  0.382000  0.667000  0.752700  1.0
  C  C397  1  0.155000  0.964400  0.461200  1.0
  C  C398  1  0.845000  0.035600  0.538800  1.0
  C  C399  1  0.145400  0.084800  0.362100  1.0
  C  C400  1  0.854600  0.915200  0.637900  1.0
  C  C401  1  0.923100  0.912100  0.519800  1.0
  C  C402  1  0.076900  0.087900  0.480200  1.0
  C  C403  1  0.028800  0.293700  0.192400  1.0
  C  C404  1  0.971200  0.706300  0.807600  1.0
  C  C405  1  0.897400  0.402500  0.154000  1.0
  C  C406  1  0.102600  0.597500  0.846000  1.0
  C  C407  1  0.955000  0.362000  0.270100  1.0
  C  C408  1  0.045000  0.638000  0.729900  1.0
  C  C409  1  0.974800  0.104400  0.174000  1.0
  C  C410  1  0.025200  0.895600  0.826000  1.0
  C  C411  1  0.807600  0.149900  0.185200  1.0
  C  C412  1  0.192400  0.850100  0.814800  1.0
  C  C413  1  0.892200  0.011600  0.178000  1.0
  C  C414  1  0.107800  0.988400  0.822000  1.0
  C  C415  1  0.241100  0.977900  0.197900  1.0
  C  C416  1  0.758900  0.022100  0.802100  1.0
  C  C417  1  0.269600  0.840100  0.256700  1.0
  C  C418  1  0.730400  0.159900  0.743300  1.0
  C  C419  1  0.201500  0.892700  0.150000  1.0
  C  C420  1  0.798500  0.107300  0.850000  1.0
  C  C421  1  0.199100  0.971800  0.591500  1.0
  C  C422  1  0.800900  0.028200  0.408500  1.0
  C  C423  1  0.251000  0.956200  0.637900  1.0
  C  C424  1  0.749000  0.043800  0.362100  1.0
  C  C425  1  0.310200  0.987700  0.606500  1.0
  C  C426  1  0.689800  0.012300  0.393500  1.0
  C  C427  1  0.164300  0.208400  0.421500  1.0
  C  C428  1  0.835700  0.791600  0.578500  1.0
  C  C429  1  0.207200  0.249800  0.431200  1.0
  C  C430  1  0.792800  0.750200  0.568800  1.0
  C  C431  1  0.275500  0.204600  0.456500  1.0
  C  C432  1  0.724500  0.795400  0.543500  1.0
  C  C433  1  0.325900  0.000300  0.359500  1.0
  C  C434  1  0.674100  0.999700  0.640500  1.0
  C  C435  1  0.406400  0.995300  0.346900  1.0
  C  C436  1  0.593600  0.004700  0.653100  1.0
  C  C437  1  0.422500  0.014200  0.395200  1.0
  C  C438  1  0.577500  0.985800  0.604800  1.0
  C  C439  1  0.898900  0.536900  0.195000  1.0
  C  C440  1  0.101100  0.463100  0.805000  1.0
  C  C441  1  0.906000  0.606000  0.181400  1.0
  C  C442  1  0.094000  0.394000  0.818600  1.0
  C  C443  1  0.981300  0.603200  0.149400  1.0
  C  C444  1  0.018700  0.396800  0.850600  1.0
  C  C445  1  0.049400  0.394400  0.045900  1.0
  C  C446  1  0.950600  0.605600  0.954100  1.0
  C  C447  1  0.092000  0.427800  0.991900  1.0
  C  C448  1  0.908000  0.572200  0.008100  1.0
  C  C449  1  0.117700  0.473500  0.011500  1.0
  C  C450  1  0.882300  0.526500  0.988500  1.0
  C  C451  1  0.143200  0.345800  0.260900  1.0
  C  C452  1  0.856800  0.654200  0.739100  1.0
  C  C453  1  0.207800  0.367500  0.260700  1.0
  C  C454  1  0.792200  0.632500  0.739300  1.0
  C  C455  1  0.202000  0.429000  0.208900  1.0
  C  C456  1  0.798000  0.571000  0.791100  1.0
  C  C457  1  0.039000  0.040600  0.056500  1.0
  C  C458  1  0.961000  0.959400  0.943500  1.0
  C  C459  1  0.069800  0.044000  0.992700  1.0
  C  C460  1  0.930200  0.956000  0.007300  1.0
  C  C461  1  0.009600  0.094100  0.954400  1.0
  C  C462  1  0.990400  0.905900  0.045600  1.0
  C  C463  1  0.736100  0.086700  0.102100  1.0
  C  C464  1  0.263900  0.913300  0.897900  1.0
  C  C465  1  0.689900  0.101000  0.053200  1.0
  C  C466  1  0.310100  0.899000  0.946800  1.0
  C  C467  1  0.733300  0.134600  0.998400  1.0
  C  C468  1  0.266700  0.865400  0.001600  1.0
  C  C469  1  0.880400  0.270700  0.084500  1.0
  C  C470  1  0.119600  0.729300  0.915500  1.0
  C  C471  1  0.869300  0.328300  0.027900  1.0
  C  C472  1  0.130700  0.671700  0.972100  1.0
  C  C473  1  0.863200  0.301400  0.981700  1.0
  C  C474  1  0.136800  0.698600  0.018300  1.0
  C  C475  1  0.335200  0.749400  0.152200  1.0
  C  C476  1  0.664800  0.250600  0.847800  1.0
  C  C477  1  0.391100  0.713400  0.119400  1.0
  C  C478  1  0.608900  0.286600  0.880600  1.0
  C  C479  1  0.444000  0.753000  0.086900  1.0
  C  C480  1  0.556000  0.247000  0.913100  1.0
  C  C481  1  0.283000  0.016900  0.047700  1.0
  C  C482  1  0.717000  0.983100  0.952300  1.0
  C  C483  1  0.327900  0.044300  0.992200  1.0
  C  C484  1  0.672100  0.955700  0.007800  1.0
  C  C485  1  0.401800  0.993200  0.997500  1.0
  C  C486  1  0.598200  0.006800  0.002500  1.0
  C  C487  1  0.428600  0.890100  0.247800  1.0
  C  C488  1  0.571400  0.109900  0.752200  1.0
  C  C489  1  0.510900  0.880700  0.241300  1.0
  C  C490  1  0.489100  0.119300  0.758700  1.0
  C  C491  1  0.534800  0.872900  0.182200  1.0
  C  C492  1  0.465200  0.127100  0.817800  1.0
  N  N493  1  0.585500  0.020900  0.252800  1
  N  N494  1  0.414500  0.979100  0.747200  1
  N  N495  1  0.323000  0.549600  0.121000  1
  N  N496  1  0.677000  0.450400  0.879000  1
  N  N497  1  0.535400  0.380100  0.064500  1
  N  N498  1  0.464600  0.619900  0.935500  1
  N  N499  1  0.631700  0.636500  0.022500  1
  N  N500  1  0.368300  0.363500  0.977500  1
  N  N501  1  0.515500  0.841900  0.927400  1
  N  N502  1  0.484500  0.158100  0.072600  1
  N  N503  1  0.150300  0.178100  0.103000  1.0
  N  N504  1  0.849700  0.821900  0.897000  1.0
  N  N505  1  0.422000  0.810200  0.104500  1.0
  N  N506  1  0.578000  0.189800  0.895500  1.0
  N  N507  1  0.352200  0.811300  0.145300  1.0
  N  N508  1  0.647800  0.188700  0.854700  1.0
  N  N509  1  0.079500  0.857600  0.398900  1.0
  N  N510  1  0.920500  0.142400  0.601100  1.0
  N  N511  1  0.055800  0.752600  0.498300  1.0
  N  N512  1  0.944200  0.247400  0.501700  1.0
  N  N513  1  0.036000  0.699000  0.546600  1.0
  N  N514  1  0.964000  0.301000  0.453400  1.0
  N  N515  1  0.887900  0.421500  0.670400  1.0
  N  N516  1  0.112100  0.578500  0.329600  1.0
  N  N517  1  0.115700  0.805200  0.581400  1.0
  N  N518  1  0.884300  0.194800  0.418600  1.0
  N  N519  1  0.200300  0.775100  0.487400  1.0
  N  N520  1  0.799700  0.224900  0.512600  1.0
  N  N521  1  0.254700  0.753700  0.441000  1.0
  N  N522  1  0.745300  0.246300  0.559000  1.0
  N  N523  1  0.616100  0.593800  0.344600  1.0
  N  N524  1  0.383900  0.406200  0.655400  1.0
  N  N525  1  0.226100  0.170800  0.197600  1.0
  N  N526  1  0.773900  0.829200  0.802400  1.0
  N  N527  1  0.267600  0.179100  0.237500  1.0
  N  N528  1  0.732400  0.820900  0.762500  1.0
  N  N529  1  0.515700  0.293800  0.334900  1.0
  N  N530  1  0.484300  0.706200  0.665100  1.0
  N  N531  1  0.135600  0.913800  0.472700  1.0
  N  N532  1  0.864400  0.086200  0.527300  1.0
  N  N533  1  0.126700  0.100000  0.309500  1.0
  N  N534  1  0.873300  0.900000  0.690500  1.0
  N  N535  1  0.990000  0.886500  0.504100  1.0
  N  N536  1  0.010000  0.113500  0.495900  1.0
  N  N537  1  0.053100  0.233300  0.201900  1.0
  N  N538  1  0.946900  0.766700  0.798100  1.0
  N  N539  1  0.835900  0.411200  0.136400  1.0
  N  N540  1  0.164100  0.588800  0.863600  1.0
  N  N541  1  0.934400  0.339400  0.324900  1.0
  N  N542  1  0.065600  0.660600  0.675100  1.0
  N  N543  1  0.028400  0.104100  0.195600  1.0
  N  N544  1  0.971600  0.895900  0.804400  1.0
  N  N545  1  0.756200  0.173600  0.216600  1.0
  N  N546  1  0.243800  0.826400  0.783400  1.0
  N  N547  1  0.886500  0.955000  0.206900  1.0
  N  N548  1  0.113500  0.045000  0.793100  1.0
  N  N549  1  0.203800  0.031500  0.206900  1.0
  N  N550  1  0.796200  0.968500  0.793100  1.0
  N  N551  1  0.250500  0.805700  0.307600  1.0
  N  N552  1  0.749500  0.194300  0.692400  1.0
  N  N553  1  0.139700  0.891200  0.137500  1.0
  N  N554  1  0.860300  0.108800  0.862500  1.0
  N  N555  1  0.224100  0.010400  0.535500  1.0
  N  N556  1  0.775900  0.989600  0.464500  1.0
  N  N557  1  0.294300  0.019000  0.543200  1.0
  N  N558  1  0.705700  0.981000  0.456800  1.0
  N  N559  1  0.207800  0.141000  0.438800  1.0
  N  N560  1  0.792200  0.859000  0.561200  1.0
  N  N561  1  0.277000  0.137700  0.459600  1.0
  N  N562  1  0.723000  0.862300  0.540400  1.0
  N  N563  1  0.293500  0.020700  0.410600  1.0
  N  N564  1  0.706500  0.979300  0.589400  1.0
  N  N565  1  0.354800  0.031100  0.432500  1.0
  N  N566  1  0.645200  0.968900  0.567500  1.0
  N  N567  1  0.964800  0.495600  0.175000  1.0
  N  N568  1  0.035200  0.504400  0.825000  1.0
  N  N569  1  0.015400  0.538000  0.145300  1.0
  N  N570  1  0.984600  0.462000  0.854700  1.0
  N  N571  1  0.046000  0.418400  0.093400  1.0
  N  N572  1  0.954000  0.581600  0.906600  1.0
  N  N573  1  0.088000  0.467400  0.073400  1.0
  N  N574  1  0.912000  0.532600  0.926600  1.0
  N  N575  1  0.098200  0.388100  0.211700  1.0
  N  N576  1  0.901800  0.611900  0.788300  1.0
  N  N577  1  0.137800  0.439400  0.179900  1.0
  N  N578  1  0.862200  0.560600  0.820100  1.0
  N  N579  1  0.964600  0.083200  0.057900  1.0
  N  N580  1  0.035400  0.916800  0.942100  1.0
  N  N581  1  0.946000  0.118100  0.992500  1.0
  N  N582  1  0.054000  0.881900  0.007500  1.0
  N  N583  1  0.800200  0.111700  0.082400  1.0
  N  N584  1  0.199800  0.888300  0.917600  1.0
  N  N585  1  0.795000  0.141400  0.016900  1.0
  N  N586  1  0.205000  0.858600  0.983100  1.0
  N  N587  1  0.880400  0.212000  0.071000  1.0
  N  N588  1  0.119600  0.788000  0.929000  1.0
  N  N589  1  0.868100  0.232700  0.007600  1.0
  N  N590  1  0.131900  0.767300  0.992400  1.0
  N  N591  1  0.321800  0.956900  0.085100  1.0
  N  N592  1  0.678200  0.043100  0.914900  1.0
  N  N593  1  0.396900  0.942500  0.054700  1.0
  N  N594  1  0.603100  0.057500  0.945300  1.0
  N  N595  1  0.403800  0.890500  0.195200  1.0
  N  N596  1  0.596200  0.109500  0.804800  1.0
  N  N597  1  0.469800  0.879300  0.153400  1.0
  N  N598  1  0.530200  0.120700  0.846600  1.0
  O  O599  1  0.830000  0.841200  0.388800  1
  O  O600  1  0.170000  0.158800  0.611200  1
  O  O601  1  0.258000  0.107000  0.766400  1
  O  O602  1  0.742000  0.893000  0.233600  1
  O  O603  1  0.807100  0.748600  0.399300  1
  O  O604  1  0.192900  0.251400  0.600700  1
  O  O605  1  0.248000  0.130000  0.832600  1
  O  O606  1  0.752000  0.870000  0.167400  1
