# generated using pymatgen
data_Fe4Co2B4H127C140(N13O5)4
_symmetry_space_group_name_H-M   'P 1'
_cell_length_a   20.87400000
_cell_length_b   20.96600000
_cell_length_c   23.12500000
_cell_angle_alpha   113.62600000
_cell_angle_beta   90.60500000
_cell_angle_gamma   114.67100000
_symmetry_Int_Tables_number   1
_chemical_formula_structural   Fe4Co2B4H127C140(N13O5)4
_chemical_formula_sum   'Fe8 Co4 B8 H254 C280 N104 O40'
_cell_volume   8231.38145147
_cell_formula_units_Z   2
loop_
 _symmetry_equiv_pos_site_id
 _symmetry_equiv_pos_as_xyz
  1  'x, y, z'
loop_
 _atom_site_type_symbol
 _atom_site_label
 _atom_site_symmetry_multiplicity
 _atom_site_fract_x
 _atom_site_fract_y
 _atom_site_fract_z
 _atom_site_occupancy
  Fe  Fe1  1  0.361860  0.820770  0.465290  1.0
  Fe  Fe2  1  0.638140  0.179230  0.534710  1.0
  Fe  Fe3  1  0.421390  0.613000  0.125190  1.0
  Fe  Fe4  1  0.578610  0.387000  0.874810  1.0
  Fe  Fe5  1  0.396740  0.952550  0.129030  1.0
  Fe  Fe6  1  0.603260  0.047450  0.870970  1.0
  Fe  Fe7  1  0.077970  0.835410  0.273700  1.0
  Fe  Fe8  1  0.922030  0.164590  0.726300  1.0
  Co  Co9  1  0.615490  0.914140  0.450820  1.0
  Co  Co10  1  0.384510  0.085860  0.549180  1.0
  Co  Co11  1  0.287150  0.769690  0.231210  1.0
  Co  Co12  1  0.712850  0.230310  0.768790  1.0
  B  B13  1  0.920200  0.705400  0.230700  1.0
  B  B14  1  0.079800  0.294600  0.769300  1.0
  B  B15  1  0.314000  0.873400  0.987100  1.0
  B  B16  1  0.686000  0.126600  0.012900  1.0
  B  B17  1  0.280400  0.700300  0.518000  1.0
  B  B18  1  0.719600  0.299700  0.482000  1.0
  B  B19  1  0.337000  0.433800  0.049300  1.0
  B  B20  1  0.663000  0.566200  0.950700  1.0
  H  H21  1  0.923100  0.715800  0.699000  1
  H  H22  1  0.076900  0.284200  0.301000  1
  H  H23  1  0.903800  0.761200  0.765000  1
  H  H24  1  0.096200  0.238800  0.235000  1
  H  H25  1  0.884500  0.768500  0.701500  1
  H  H26  1  0.115500  0.231500  0.298500  1
  H  H27  1  0.512800  0.237100  0.388700  1
  H  H28  1  0.487200  0.762900  0.611300  1
  H  H29  1  0.471400  0.287500  0.420900  1
  H  H30  1  0.528600  0.712500  0.579100  1
  H  H31  1  0.528200  0.284700  0.465700  1
  H  H32  1  0.471800  0.715300  0.534300  1
  H  H33  1  0.459200  0.511600  0.408400  1
  H  H34  1  0.540800  0.488400  0.591600  1
  H  H35  1  0.395900  0.515700  0.445700  1
  H  H36  1  0.604100  0.484300  0.554300  1
  H  H37  1  0.377500  0.446100  0.374900  1
  H  H38  1  0.622500  0.553900  0.625100  1
  H  H39  1  0.087200  0.584700  0.763800  1
  H  H40  1  0.912800  0.415300  0.236200  1
  H  H41  1  0.164800  0.659600  0.796700  1
  H  H42  1  0.835200  0.340400  0.203300  1
  H  H43  1  0.103600  0.645800  0.837900  1
  H  H44  1  0.896400  0.354200  0.162100  1
  H  H45  1  0.884600  0.781200  0.744600  1
  H  H46  1  0.115400  0.218800  0.255400  1
  H  H47  1  0.903800  0.735800  0.678700  1
  H  H48  1  0.096200  0.264200  0.321300  1
  H  H49  1  0.923100  0.728500  0.742200  1
  H  H50  1  0.076900  0.271500  0.257800  1
  H  H51  1  0.480000  0.862100  0.356600  1.0
  H  H52  1  0.520000  0.137900  0.643400  1.0
  H  H53  1  0.455200  0.859200  0.258700  1.0
  H  H54  1  0.544800  0.140800  0.741300  1.0
  H  H55  1  0.547200  0.887200  0.202200  1.0
  H  H56  1  0.452800  0.112800  0.797800  1.0
  H  H57  1  0.663500  0.918500  0.249200  1.0
  H  H58  1  0.336500  0.081500  0.750800  1.0
  H  H59  1  0.792400  0.984100  0.324900  1.0
  H  H60  1  0.207600  0.015900  0.675100  1.0
  H  H61  1  0.911000  0.075300  0.361900  1.0
  H  H62  1  0.089000  0.924700  0.638100  1.0
  H  H63  1  0.035400  0.145200  0.381900  1.0
  H  H64  1  0.964600  0.854800  0.618100  1.0
  H  H65  1  0.044600  0.128100  0.551100  1.0
  H  H66  1  0.955400  0.871900  0.448900  1.0
  H  H67  1  0.919900  0.054500  0.525200  1.0
  H  H68  1  0.080100  0.945500  0.474800  1.0
  H  H69  1  0.141200  0.088800  0.376700  1.0
  H  H70  1  0.858800  0.911200  0.623300  1.0
  H  H71  1  0.206600  0.111600  0.300600  1.0
  H  H72  1  0.793400  0.888400  0.699400  1.0
  H  H73  1  0.273000  0.339100  0.404200  1.0
  H  H74  1  0.727000  0.660900  0.595800  1.0
  H  H75  1  0.210100  0.314800  0.482300  1.0
  H  H76  1  0.789900  0.685200  0.517700  1.0
  H  H77  1  0.328200  0.223500  0.237500  1.0
  H  H78  1  0.671800  0.776500  0.762500  1.0
  H  H79  1  0.296500  0.164100  0.268800  1.0
  H  H80  1  0.703500  0.835900  0.731200  1.0
  H  H81  1  0.368700  0.244900  0.306800  1.0
  H  H82  1  0.631300  0.755100  0.693200  1.0
  H  H83  1  0.200400  0.134900  0.526400  1.0
  H  H84  1  0.799600  0.865100  0.473600  1.0
  H  H85  1  0.268100  0.188800  0.627700  1.0
  H  H86  1  0.731900  0.811200  0.372300  1.0
  H  H87  1  0.229400  0.373900  0.687700  1.0
  H  H88  1  0.770600  0.626100  0.312300  1.0
  H  H89  1  0.149400  0.313300  0.585400  1.0
  H  H90  1  0.850600  0.686700  0.414600  1.0
  H  H91  1  0.354400  0.428500  0.753400  1.0
  H  H92  1  0.645600  0.571500  0.246600  1.0
  H  H93  1  0.344800  0.404000  0.811200  1.0
  H  H94  1  0.655200  0.596000  0.188800  1.0
  H  H95  1  0.277800  0.400100  0.773200  1.0
  H  H96  1  0.722200  0.599900  0.226800  1.0
  H  H97  1  0.662800  0.039400  0.592100  1.0
  H  H98  1  0.337200  0.960600  0.407900  1.0
  H  H99  1  0.684700  0.040600  0.689900  1.0
  H  H100  1  0.315300  0.959400  0.310100  1.0
  H  H101  1  0.688300  0.934900  0.695100  1.0
  H  H102  1  0.311700  0.065100  0.304900  1.0
  H  H103  1  0.664000  0.823500  0.598900  1.0
  H  H104  1  0.336000  0.176500  0.401100  1.0
  H  H105  1  0.611900  0.697600  0.483300  1.0
  H  H106  1  0.388100  0.302400  0.516700  1.0
  H  H107  1  0.609600  0.577900  0.395400  1.0
  H  H108  1  0.390400  0.422100  0.604600  1.0
  H  H109  1  0.569600  0.448300  0.325100  1.0
  H  H110  1  0.430400  0.551700  0.674900  1.0
  H  H111  1  0.440200  0.464500  0.206900  1.0
  H  H112  1  0.559800  0.535500  0.793100  1.0
  H  H113  1  0.477500  0.595400  0.281000  1.0
  H  H114  1  0.522500  0.404600  0.719000  1.0
  H  H115  1  0.476100  0.248400  0.231400  1.0
  H  H116  1  0.523900  0.751600  0.768600  1.0
  H  H117  1  0.562200  0.204600  0.226500  1.0
  H  H118  1  0.437800  0.795400  0.773500  1.0
  H  H119  1  0.694100  0.380500  0.185100  1.0
  H  H120  1  0.305900  0.619500  0.814900  1.0
  H  H121  1  0.606100  0.421100  0.191600  1.0
  H  H122  1  0.393900  0.578900  0.808400  1.0
  H  H123  1  0.670300  0.198300  0.241200  1.0
  H  H124  1  0.329700  0.801700  0.758800  1.0
  H  H125  1  0.718400  0.185800  0.188400  1.0
  H  H126  1  0.281600  0.814200  0.811600  1.0
  H  H127  1  0.634200  0.156500  0.166000  1.0
  H  H128  1  0.365800  0.843500  0.834000  1.0
  H  H129  1  0.341500  0.334600  0.208500  1.0
  H  H130  1  0.658500  0.665400  0.791500  1.0
  H  H131  1  0.248000  0.258200  0.116400  1.0
  H  H132  1  0.752000  0.741800  0.883600  1.0
  H  H133  1  0.387500  0.212200  0.006300  1.0
  H  H134  1  0.612500  0.787800  0.993700  1.0
  H  H135  1  0.481000  0.288600  0.098300  1.0
  H  H136  1  0.519000  0.711400  0.901700  1.0
  H  H137  1  0.156600  0.135800  0.957100  1.0
  H  H138  1  0.843400  0.864200  0.042900  1.0
  H  H139  1  0.187000  0.220200  0.017800  1.0
  H  H140  1  0.813000  0.779800  0.982200  1.0
  H  H141  1  0.171000  0.144700  0.028700  1.0
  H  H142  1  0.829000  0.855300  0.971300  1.0
  H  H143  1  0.258600  0.766000  0.088700  1.0
  H  H144  1  0.741400  0.234000  0.911300  1.0
  H  H145  1  0.185100  0.680500  0.986800  1.0
  H  H146  1  0.814900  0.319500  0.013200  1.0
  H  H147  1  0.098100  0.554800  0.968100  1.0
  H  H148  1  0.901900  0.445200  0.031900  1.0
  H  H149  1  0.086900  0.520100  0.052700  1.0
  H  H150  1  0.913100  0.479900  0.947300  1.0
  H  H151  1  0.082200  0.495600  0.154200  1.0
  H  H152  1  0.917800  0.504400  0.845800  1.0
  H  H153  1  0.051800  0.414400  0.210300  1.0
  H  H154  1  0.948200  0.585600  0.789700  1.0
  H  H155  1  0.007600  0.345900  0.270200  1.0
  H  H156  1  0.992400  0.654100  0.729800  1.0
  H  H157  1  0.124100  0.540900  0.434500  1.0
  H  H158  1  0.875900  0.459100  0.565500  1.0
  H  H159  1  0.170900  0.607600  0.374200  1.0
  H  H160  1  0.829100  0.392400  0.625800  1.0
  H  H161  1  0.978800  0.247000  0.376900  1.0
  H  H162  1  0.021200  0.753000  0.623100  1.0
  H  H163  1  0.855200  0.150900  0.341400  1.0
  H  H164  1  0.144800  0.849100  0.658600  1.0
  H  H165  1  0.797800  0.302800  0.321900  1.0
  H  H166  1  0.202200  0.697200  0.678100  1.0
  H  H167  1  0.916700  0.400200  0.359300  1.0
  H  H168  1  0.083300  0.599800  0.640700  1.0
  H  H169  1  0.742200  0.113000  0.361600  1.0
  H  H170  1  0.257800  0.887000  0.638400  1.0
  H  H171  1  0.735800  0.062200  0.286500  1.0
  H  H172  1  0.264200  0.937800  0.713500  1.0
  H  H173  1  0.668200  0.073600  0.311000  1.0
  H  H174  1  0.331800  0.926400  0.689000  1.0
  H  H175  1  0.984400  0.411700  0.500500  1.0
  H  H176  1  0.015600  0.588300  0.499500  1.0
  H  H177  1  0.043300  0.450600  0.603000  1.0
  H  H178  1  0.956700  0.549400  0.397000  1.0
  H  H179  1  0.226100  0.481100  0.544800  1.0
  H  H180  1  0.773900  0.518900  0.455200  1.0
  H  H181  1  0.168700  0.434200  0.438400  1.0
  H  H182  1  0.831300  0.565800  0.561600  1.0
  H  H183  1  0.253400  0.475600  0.645200  1.0
  H  H184  1  0.746600  0.524400  0.354800  1.0
  H  H185  1  0.256800  0.550300  0.705700  1.0
  H  H186  1  0.743200  0.449700  0.294300  1.0
  H  H187  1  0.261700  0.550700  0.636800  1.0
  H  H188  1  0.738300  0.449300  0.363200  1.0
  H  H189  1  0.474900  0.933800  0.607600  1.0
  H  H190  1  0.525100  0.066200  0.392400  1.0
  H  H191  1  0.462000  0.892500  0.695700  1.0
  H  H192  1  0.538000  0.107500  0.304300  1.0
  H  H193  1  0.353600  0.759900  0.652000  1.0
  H  H194  1  0.646400  0.240100  0.348000  1.0
  H  H195  1  0.213900  0.838100  0.448600  1.0
  H  H196  1  0.786100  0.161900  0.551400  1.0
  H  H197  1  0.105500  0.768900  0.485000  1.0
  H  H198  1  0.894500  0.231100  0.515000  1.0
  H  H199  1  0.134700  0.687600  0.525200  1.0
  H  H200  1  0.865300  0.312400  0.474800  1.0
  H  H201  1  0.397400  0.688100  0.357200  1.0
  H  H202  1  0.602600  0.311900  0.642800  1.0
  H  H203  1  0.353300  0.551700  0.349200  1.0
  H  H204  1  0.646700  0.448300  0.650800  1.0
  H  H205  1  0.286900  0.552300  0.439300  1.0
  H  H206  1  0.713100  0.447700  0.560700  1.0
  H  H207  1  0.341000  0.600800  0.244800  1.0
  H  H208  1  0.659000  0.399200  0.755200  1.0
  H  H209  1  0.245100  0.472800  0.234400  1.0
  H  H210  1  0.754900  0.527200  0.765600  1.0
  H  H211  1  0.240400  0.371500  0.126300  1.0
  H  H212  1  0.759600  0.628500  0.873700  1.0
  H  H213  1  0.328400  0.626000  0.018200  1.0
  H  H214  1  0.671600  0.374000  0.981800  1.0
  H  H215  1  0.240500  0.505900  0.919400  1.0
  H  H216  1  0.759500  0.494100  0.080600  1.0
  H  H217  1  0.242500  0.392900  0.930200  1.0
  H  H218  1  0.757500  0.607100  0.069800  1.0
  H  H219  1  0.571200  0.599800  0.111200  1.0
  H  H220  1  0.428800  0.400200  0.888800  1.0
  H  H221  1  0.571200  0.470100  0.060700  1.0
  H  H222  1  0.428800  0.529900  0.939300  1.0
  H  H223  1  0.442500  0.369800  0.019500  1.0
  H  H224  1  0.557500  0.630200  0.980500  1.0
  H  H225  1  0.242800  0.939100  0.175200  1.0
  H  H226  1  0.757200  0.060900  0.824800  1.0
  H  H227  1  0.130200  0.879500  0.093200  1.0
  H  H228  1  0.869800  0.120500  0.906800  1.0
  H  H229  1  0.162300  0.839000  0.985000  1.0
  H  H230  1  0.837700  0.161000  0.015000  1.0
  H  H231  1  0.502800  0.107000  0.109100  1.0
  H  H232  1  0.497200  0.893000  0.890900  1.0
  H  H233  1  0.489400  0.114200  0.005100  1.0
  H  H234  1  0.510600  0.885800  0.994900  1.0
  H  H235  1  0.383100  0.985100  0.931400  1.0
  H  H236  1  0.616900  0.014900  0.068600  1.0
  H  H237  1  0.442500  0.810000  0.088100  1.0
  H  H238  1  0.557500  0.190000  0.911900  1.0
  H  H239  1  0.406400  0.705200  0.973200  1.0
  H  H240  1  0.593600  0.294800  0.026800  1.0
  H  H241  1  0.333200  0.735300  0.912900  1.0
  H  H242  1  0.666800  0.264700  0.087100  1.0
  H  H243  1  0.114900  0.756100  0.355200  1.0
  H  H244  1  0.885100  0.243900  0.644800  1.0
  H  H245  1  0.022700  0.633100  0.355000  1.0
  H  H246  1  0.977300  0.366900  0.645000  1.0
  H  H247  1  0.904900  0.604000  0.293000  1.0
  H  H248  1  0.095100  0.396000  0.707000  1.0
  H  H249  1  0.017000  0.963000  0.342600  1.0
  H  H250  1  0.983000  0.037000  0.657400  1.0
  H  H251  1  0.883800  0.919700  0.328000  1.0
  H  H252  1  0.116200  0.080300  0.672000  1.0
  H  H253  1  0.824900  0.774700  0.266700  1.0
  H  H254  1  0.175100  0.225300  0.733300  1.0
  H  H255  1  0.093500  0.761000  0.121200  1.0
  H  H256  1  0.906500  0.239000  0.878800  1.0
  H  H257  1  0.992800  0.645100  0.035900  1.0
  H  H258  1  0.007200  0.354900  0.964100  1.0
  H  H259  1  0.893200  0.601600  0.089800  1.0
  H  H260  1  0.106800  0.398400  0.910200  1.0
  H  H261  1  0.795200  0.002200  0.500900  1.0
  H  H262  1  0.204800  0.997800  0.499100  1.0
  H  H263  1  0.563300  0.733100  0.336200  1.0
  H  H264  1  0.436700  0.266900  0.663800  1.0
  H  H265  1  0.225700  0.661100  0.311700  1.0
  H  H266  1  0.774300  0.338900  0.688300  1.0
  H  H267  1  0.869100  0.663500  0.217600  1.0
  H  H268  1  0.130900  0.336500  0.782400  1.0
  H  H269  1  0.287500  0.848100  0.941300  1.0
  H  H270  1  0.712500  0.151900  0.058700  1.0
  H  H271  1  0.254000  0.661300  0.534600  1.0
  H  H272  1  0.746000  0.338700  0.465400  1.0
  H  H273  1  0.309700  0.375500  0.024600  1.0
  H  H274  1  0.690300  0.624500  0.975400  1.0
  C  C275  1  0.888000  0.733300  0.717800  1
  C  C276  1  0.112000  0.266700  0.282200  1
  C  C277  1  0.816800  0.664700  0.700000  1
  C  C278  1  0.183200  0.335300  0.300000  1
  C  C279  1  0.517100  0.285100  0.424500  1
  C  C280  1  0.482900  0.714900  0.575500  1
  C  C281  1  0.576100  0.354800  0.422000  1
  C  C282  1  0.423900  0.645200  0.578000  1
  C  C283  1  0.412900  0.480500  0.416000  1
  C  C284  1  0.587100  0.519500  0.584000  1
  C  C285  1  0.422200  0.432400  0.444800  1
  C  C286  1  0.577800  0.567600  0.555200  1
  C  C287  1  0.124200  0.620000  0.803800  1
  C  C288  1  0.875800  0.380000  0.196200  1
  C  C289  1  0.150400  0.573600  0.823800  1
  C  C290  1  0.849600  0.426400  0.176200  1
  C  C291  1  0.518100  0.874900  0.334600  1.0
  C  C292  1  0.481900  0.125100  0.665400  1.0
  C  C293  1  0.502800  0.872400  0.276400  1.0
  C  C294  1  0.497200  0.127600  0.723600  1.0
  C  C295  1  0.556600  0.889100  0.243300  1.0
  C  C296  1  0.443400  0.110900  0.756700  1.0
  C  C297  1  0.625500  0.908800  0.271800  1.0
  C  C298  1  0.374500  0.091200  0.728200  1.0
  C  C299  1  0.638600  0.914300  0.332400  1.0
  C  C300  1  0.361400  0.085700  0.667600  1.0
  C  C301  1  0.709800  0.945800  0.371000  1.0
  C  C302  1  0.290200  0.054200  0.629000  1.0
  C  C303  1  0.778300  0.980400  0.362900  1.0
  C  C304  1  0.221700  0.019600  0.637100  1.0
  C  C305  1  0.823600  0.009200  0.421600  1.0
  C  C306  1  0.176400  0.990800  0.578400  1.0
  C  C307  1  0.902300  0.056000  0.440900  1.0
  C  C308  1  0.097700  0.944000  0.559100  1.0
  C  C309  1  0.938700  0.085000  0.400100  1.0
  C  C310  1  0.061300  0.915000  0.599900  1.0
  C  C311  1  0.013000  0.127300  0.411700  1.0
  C  C312  1  0.987000  0.872700  0.588300  1.0
  C  C313  1  0.054500  0.143400  0.468400  1.0
  C  C314  1  0.945500  0.856600  0.531600  1.0
  C  C315  1  0.018000  0.116400  0.511500  1.0
  C  C316  1  0.982000  0.883600  0.488500  1.0
  C  C317  1  0.943300  0.073000  0.496100  1.0
  C  C318  1  0.056700  0.927000  0.503900  1.0
  C  C319  1  0.166600  0.199800  0.435000  1.0
  C  C320  1  0.833400  0.800200  0.565000  1.0
  C  C321  1  0.168200  0.141200  0.382600  1.0
  C  C322  1  0.831800  0.858800  0.617400  1.0
  C  C323  1  0.207400  0.154300  0.337400  1.0
  C  C324  1  0.792600  0.845700  0.662600  1.0
  C  C325  1  0.246400  0.227500  0.346100  1.0
  C  C326  1  0.753600  0.772500  0.653900  1.0
  C  C327  1  0.246300  0.286700  0.398300  1.0
  C  C328  1  0.753700  0.713300  0.601700  1.0
  C  C329  1  0.207300  0.272100  0.444200  1.0
  C  C330  1  0.792700  0.727900  0.555800  1.0
  C  C331  1  0.321500  0.219500  0.278000  1.0
  C  C332  1  0.678500  0.780500  0.722000  1.0
  C  C333  1  0.170400  0.220800  0.546500  1.0
  C  C334  1  0.829600  0.779200  0.453500  1.0
  C  C335  1  0.205300  0.183200  0.558800  1.0
  C  C336  1  0.794700  0.816800  0.441200  1.0
  C  C337  1  0.246700  0.216700  0.618500  1.0
  C  C338  1  0.753300  0.783300  0.381500  1.0
  C  C339  1  0.259600  0.287300  0.665800  1.0
  C  C340  1  0.740400  0.712700  0.334200  1.0
  C  C341  1  0.223200  0.325100  0.654900  1.0
  C  C342  1  0.776800  0.674900  0.345100  1.0
  C  C343  1  0.176200  0.289500  0.593400  1.0
  C  C344  1  0.823800  0.710500  0.406600  1.0
  C  C345  1  0.321200  0.392800  0.769000  1.0
  C  C346  1  0.678800  0.607200  0.231000  1.0
  C  C347  1  0.662200  0.994400  0.593300  1.0
  C  C348  1  0.337800  0.005600  0.406700  1.0
  C  C349  1  0.676000  0.995500  0.651200  1.0
  C  C350  1  0.324000  0.004500  0.348800  1.0
  C  C351  1  0.677500  0.933500  0.654500  1.0
  C  C352  1  0.322500  0.066500  0.345500  1.0
  C  C353  1  0.663200  0.868300  0.598400  1.0
  C  C354  1  0.336800  0.131700  0.401600  1.0
  C  C355  1  0.647900  0.869900  0.541700  1.0
  C  C356  1  0.352100  0.130100  0.458300  1.0
  C  C357  1  0.623800  0.800400  0.479100  1.0
  C  C358  1  0.376200  0.199600  0.520900  1.0
  C  C359  1  0.606000  0.721700  0.457900  1.0
  C  C360  1  0.394000  0.278300  0.542100  1.0
  C  C361  1  0.577700  0.685600  0.391600  1.0
  C  C362  1  0.422300  0.314400  0.608400  1.0
  C  C363  1  0.550400  0.601500  0.344900  1.0
  C  C364  1  0.449600  0.398500  0.655100  1.0
  C  C365  1  0.575100  0.555300  0.356800  1.0
  C  C366  1  0.424900  0.444700  0.643200  1.0
  C  C367  1  0.551700  0.478400  0.315100  1.0
  C  C368  1  0.448300  0.521600  0.684900  1.0
  C  C369  1  0.501100  0.443200  0.257200  1.0
  C  C370  1  0.498900  0.556800  0.742800  1.0
  C  C371  1  0.474800  0.487500  0.245500  1.0
  C  C372  1  0.525200  0.512500  0.754500  1.0
  C  C373  1  0.497900  0.566200  0.289300  1.0
  C  C374  1  0.502100  0.433800  0.710700  1.0
  C  C375  1  0.532500  0.337800  0.212100  1.0
  C  C376  1  0.467500  0.662200  0.787900  1.0
  C  C377  1  0.521000  0.275500  0.222200  1.0
  C  C378  1  0.479000  0.724500  0.777800  1.0
  C  C379  1  0.572000  0.249200  0.219700  1.0
  C  C380  1  0.428000  0.750800  0.780300  1.0
  C  C381  1  0.636500  0.288600  0.207100  1.0
  C  C382  1  0.363500  0.711400  0.792900  1.0
  C  C383  1  0.649800  0.353700  0.195200  1.0
  C  C384  1  0.350200  0.646300  0.804800  1.0
  C  C385  1  0.597600  0.376900  0.198600  1.0
  C  C386  1  0.402400  0.623100  0.801400  1.0
  C  C387  1  0.677900  0.197200  0.199200  1.0
  C  C388  1  0.322100  0.802800  0.800800  1.0
  C  C389  1  0.420100  0.318800  0.162000  1.0
  C  C390  1  0.579900  0.681200  0.838000  1.0
  C  C391  1  0.350900  0.309700  0.167400  1.0
  C  C392  1  0.649100  0.690300  0.832600  1.0
  C  C393  1  0.295300  0.264300  0.112700  1.0
  C  C394  1  0.704700  0.735700  0.887300  1.0
  C  C395  1  0.309000  0.228000  0.052700  1.0
  C  C396  1  0.691000  0.772000  0.947300  1.0
  C  C397  1  0.378200  0.237000  0.047300  1.0
  C  C398  1  0.621800  0.763000  0.952700  1.0
  C  C399  1  0.433700  0.282400  0.102000  1.0
  C  C400  1  0.566300  0.717600  0.898000  1.0
  C  C401  1  0.188000  0.169800  0.000200  1.0
  C  C402  1  0.812000  0.830200  0.999800  1.0
  C  C403  1  0.223300  0.715100  0.081000  1.0
  C  C404  1  0.776700  0.284900  0.919000  1.0
  C  C405  1  0.179900  0.664800  0.020500  1.0
  C  C406  1  0.820100  0.335200  0.979500  1.0
  C  C407  1  0.128600  0.590900  0.009600  1.0
  C  C408  1  0.871400  0.409100  0.990400  1.0
  C  C409  1  0.122200  0.570300  0.058900  1.0
  C  C410  1  0.877800  0.429700  0.941100  1.0
  C  C411  1  0.168900  0.624800  0.118600  1.0
  C  C412  1  0.831100  0.375200  0.881400  1.0
  C  C413  1  0.165600  0.606400  0.174100  1.0
  C  C414  1  0.834400  0.393600  0.825900  1.0
  C  C415  1  0.121200  0.543100  0.184900  1.0
  C  C416  1  0.878800  0.456900  0.815100  1.0
  C  C417  1  0.144000  0.562100  0.248400  1.0
  C  C418  1  0.856000  0.437900  0.751600  1.0
  C  C419  1  0.117300  0.520100  0.286600  1.0
  C  C420  1  0.882700  0.479900  0.713400  1.0
  C  C421  1  0.067600  0.440500  0.256000  1.0
  C  C422  1  0.932400  0.559500  0.744000  1.0
  C  C423  1  0.041400  0.400000  0.291700  1.0
  C  C424  1  0.958600  0.600000  0.708300  1.0
  C  C425  1  0.063100  0.436300  0.358600  1.0
  C  C426  1  0.936900  0.563700  0.641400  1.0
  C  C427  1  0.110000  0.514100  0.388700  1.0
  C  C428  1  0.890000  0.485900  0.611300  1.0
  C  C429  1  0.136800  0.553700  0.352300  1.0
  C  C430  1  0.863200  0.446300  0.647700  1.0
  C  C431  1  0.959000  0.330800  0.369600  1.0
  C  C432  1  0.041000  0.669200  0.630400  1.0
  C  C433  1  0.942300  0.258600  0.365900  1.0
  C  C434  1  0.057700  0.741400  0.634100  1.0
  C  C435  1  0.868600  0.201800  0.345100  1.0
  C  C436  1  0.131400  0.798200  0.654900  1.0
  C  C437  1  0.816900  0.220100  0.330200  1.0
  C  C438  1  0.183100  0.779900  0.669800  1.0
  C  C439  1  0.834600  0.292200  0.334000  1.0
  C  C440  1  0.165400  0.707800  0.666000  1.0
  C  C441  1  0.904600  0.349200  0.354800  1.0
  C  C442  1  0.095400  0.650800  0.645200  1.0
  C  C443  1  0.720900  0.098700  0.317500  1.0
  C  C444  1  0.279100  0.901300  0.682500  1.0
  C  C445  1  0.067800  0.416500  0.457200  1.0
  C  C446  1  0.932200  0.583500  0.542800  1.0
  C  C447  1  0.033800  0.423700  0.507700  1.0
  C  C448  1  0.966200  0.576300  0.492300  1.0
  C  C449  1  0.069300  0.447700  0.569300  1.0
  C  C450  1  0.930700  0.552300  0.430700  1.0
  C  C451  1  0.139700  0.467200  0.582500  1.0
  C  C452  1  0.860300  0.532800  0.417500  1.0
  C  C453  1  0.175700  0.464500  0.535200  1.0
  C  C454  1  0.824300  0.535500  0.464800  1.0
  C  C455  1  0.142000  0.437900  0.471600  1.0
  C  C456  1  0.858000  0.562100  0.528400  1.0
  C  C457  1  0.239800  0.518100  0.658800  1.0
  C  C458  1  0.760200  0.481900  0.341200  1.0
  C  C459  1  0.460200  0.855900  0.463900  1.0
  C  C460  1  0.539800  0.144100  0.536100  1.0
  C  C461  1  0.340200  0.809400  0.379800  1.0
  C  C462  1  0.659800  0.190600  0.620200  1.0
  C  C463  1  0.372300  0.923200  0.500200  1.0
  C  C464  1  0.627700  0.076800  0.499800  1.0
  C  C465  1  0.380300  0.682900  0.163700  1.0
  C  C466  1  0.619700  0.317100  0.836300  1.0
  C  C467  1  0.493400  0.675300  0.204200  1.0
  C  C468  1  0.506600  0.324700  0.795800  1.0
  C  C469  1  0.482900  0.683200  0.094200  1.0
  C  C470  1  0.517100  0.316800  0.905800  1.0
  C  C471  1  0.372700  0.903300  0.185500  1.0
  C  C472  1  0.627300  0.096700  0.814500  1.0
  C  C473  1  0.496200  0.986200  0.156500  1.0
  C  C474  1  0.503800  0.013800  0.843500  1.0
  C  C475  1  0.408900  0.050400  0.198100  1.0
  C  C476  1  0.591100  0.949600  0.801900  1.0
  C  C477  1  0.163000  0.821400  0.261900  1.0
  C  C478  1  0.837000  0.178600  0.738100  1.0
  C  C479  1  0.133600  0.913900  0.358600  1.0
  C  C480  1  0.866400  0.086100  0.641400  1.0
  C  C481  1  0.115300  0.916200  0.247700  1.0
  C  C482  1  0.884700  0.083800  0.752300  1.0
  C  C483  1  0.438200  0.886200  0.605200  1.0
  C  C484  1  0.561800  0.113800  0.394800  1.0
  C  C485  1  0.431600  0.863800  0.653800  1.0
  C  C486  1  0.568400  0.136200  0.346200  1.0
  C  C487  1  0.372000  0.790900  0.629600  1.0
  C  C488  1  0.628000  0.209100  0.370400  1.0
  C  C489  1  0.208800  0.801900  0.465200  1.0
  C  C490  1  0.791200  0.198100  0.534800  1.0
  C  C491  1  0.149000  0.764500  0.485600  1.0
  C  C492  1  0.851000  0.235500  0.514400  1.0
  C  C493  1  0.165000  0.719600  0.507100  1.0
  C  C494  1  0.835000  0.280400  0.492900  1.0
  C  C495  1  0.369000  0.668900  0.383900  1.0
  C  C496  1  0.631000  0.331100  0.616100  1.0
  C  C497  1  0.345500  0.593400  0.379100  1.0
  C  C498  1  0.654500  0.406600  0.620900  1.0
  C  C499  1  0.308800  0.594300  0.428100  1.0
  C  C500  1  0.691200  0.405700  0.571900  1.0
  C  C501  1  0.326500  0.551400  0.208600  1.0
  C  C502  1  0.673500  0.448600  0.791400  1.0
  C  C503  1  0.273400  0.481300  0.203800  1.0
  C  C504  1  0.726600  0.518700  0.796200  1.0
  C  C505  1  0.271300  0.426300  0.144200  1.0
  C  C506  1  0.728700  0.573700  0.855800  1.0
  C  C507  1  0.317500  0.573400  0.008000  1.0
  C  C508  1  0.682500  0.426600  0.992000  1.0
  C  C509  1  0.268500  0.507700  0.953300  1.0
  C  C510  1  0.731500  0.492300  0.046700  1.0
  C  C511  1  0.270500  0.446600  0.960000  1.0
  C  C512  1  0.729500  0.553400  0.040000  1.0
  C  C513  1  0.529500  0.550200  0.092700  1.0
  C  C514  1  0.470500  0.449800  0.907300  1.0
  C  C515  1  0.530100  0.479200  0.064300  1.0
  C  C516  1  0.469900  0.520800  0.935700  1.0
  C  C517  1  0.459800  0.424900  0.042500  1.0
  C  C518  1  0.540200  0.575100  0.957500  1.0
  C  C519  1  0.238600  0.918300  0.129700  1.0
  C  C520  1  0.761400  0.081700  0.870300  1.0
  C  C521  1  0.176400  0.885700  0.084800  1.0
  C  C522  1  0.823600  0.114300  0.915200  1.0
  C  C523  1  0.194300  0.863800  0.025600  1.0
  C  C524  1  0.805700  0.136200  0.974400  1.0
  C  C525  1  0.466900  0.066400  0.071500  1.0
  C  C526  1  0.533100  0.933600  0.928500  1.0
  C  C527  1  0.460800  0.072100  0.014600  1.0
  C  C528  1  0.539200  0.927900  0.985400  1.0
  C  C529  1  0.402400  0.001200  0.975100  1.0
  C  C530  1  0.597600  0.998800  0.024900  1.0
  C  C531  1  0.413800  0.805500  0.053100  1.0
  C  C532  1  0.586200  0.194500  0.946900  1.0
  C  C533  1  0.394400  0.747300  0.989900  1.0
  C  C534  1  0.605600  0.252700  0.010100  1.0
  C  C535  1  0.354400  0.764300  0.957700  1.0
  C  C536  1  0.645600  0.235700  0.042300  1.0
  C  C537  1  0.065700  0.728800  0.333500  1.0
  C  C538  1  0.934300  0.271200  0.666500  1.0
  C  C539  1  0.015400  0.661800  0.334800  1.0
  C  C540  1  0.984600  0.338200  0.665200  1.0
  C  C541  1  0.951200  0.645600  0.299700  1.0
  C  C542  1  0.048800  0.354400  0.700300  1.0
  C  C543  1  0.980100  0.910600  0.319100  1.0
  C  C544  1  0.019900  0.089400  0.680900  1.0
  C  C545  1  0.906800  0.887300  0.312200  1.0
  C  C546  1  0.093200  0.112700  0.687800  1.0
  C  C547  1  0.875300  0.808600  0.278100  1.0
  C  C548  1  0.124700  0.191400  0.721900  1.0
  C  C549  1  0.046800  0.733700  0.127500  1.0
  C  C550  1  0.953200  0.266300  0.872500  1.0
  C  C551  1  0.992700  0.669700  0.080400  1.0
  C  C552  1  0.007300  0.330300  0.919600  1.0
  C  C553  1  0.937900  0.647900  0.110300  1.0
  C  C554  1  0.062100  0.352100  0.889700  1.0
  N  N555  1  0.759700  0.609400  0.682200  1
  N  N556  1  0.240300  0.390600  0.317800  1
  N  N557  1  0.624200  0.412700  0.424000  1
  N  N558  1  0.375800  0.587300  0.576000  1
  N  N559  1  0.428800  0.386700  0.458900  1
  N  N560  1  0.571200  0.613300  0.541100  1
  N  N561  1  0.170400  0.537700  0.843100  1
  N  N562  1  0.829600  0.462300  0.156900  1
  N  N563  1  0.584300  0.894400  0.362700  1.0
  N  N564  1  0.415700  0.105600  0.637300  1.0
  N  N565  1  0.710000  0.949600  0.429600  1.0
  N  N566  1  0.290000  0.050400  0.570400  1.0
  N  N567  1  0.780000  0.990000  0.460500  1.0
  N  N568  1  0.220000  0.010000  0.539500  1.0
  N  N569  1  0.128600  0.186000  0.483400  1.0
  N  N570  1  0.871400  0.814000  0.516600  1.0
  N  N571  1  0.648000  0.931600  0.538200  1.0
  N  N572  1  0.352000  0.068400  0.461800  1.0
  N  N573  1  0.608500  0.811700  0.428600  1.0
  N  N574  1  0.391500  0.188300  0.571400  1.0
  N  N575  1  0.579000  0.741200  0.375300  1.0
  N  N576  1  0.421000  0.258800  0.624700  1.0
  N  N577  1  0.480400  0.364600  0.214000  1.0
  N  N578  1  0.519600  0.635400  0.786000  1.0
  N  N579  1  0.217700  0.695300  0.129100  1.0
  N  N580  1  0.782300  0.304700  0.870900  1.0
  N  N581  1  0.214300  0.661500  0.228700  1.0
  N  N582  1  0.785700  0.338500  0.771300  1.0
  N  N583  1  0.200600  0.634700  0.271700  1.0
  N  N584  1  0.799400  0.365300  0.728300  1.0
  N  N585  1  0.034200  0.392200  0.394300  1.0
  N  N586  1  0.965800  0.607800  0.605700  1.0
  N  N587  1  0.520800  0.878300  0.461700  1.0
  N  N588  1  0.479200  0.121700  0.538300  1.0
  N  N589  1  0.330200  0.806300  0.329300  1.0
  N  N590  1  0.669800  0.193700  0.670700  1.0
  N  N591  1  0.376300  0.985600  0.520000  1.0
  N  N592  1  0.623700  0.014400  0.480000  1.0
  N  N593  1  0.354000  0.720900  0.191200  1.0
  N  N594  1  0.646000  0.279100  0.808800  1.0
  N  N595  1  0.536600  0.713800  0.251100  1.0
  N  N596  1  0.463400  0.286200  0.748900  1.0
  N  N597  1  0.521500  0.727800  0.076900  1.0
  N  N598  1  0.478500  0.272200  0.923100  1.0
  N  N599  1  0.349600  0.867100  0.213800  1.0
  N  N600  1  0.650400  0.132900  0.786200  1.0
  N  N601  1  0.557000  0.005000  0.170300  1.0
  N  N602  1  0.443000  0.995000  0.829700  1.0
  N  N603  1  0.414900  0.109200  0.237200  1.0
  N  N604  1  0.585100  0.890800  0.762800  1.0
  N  N605  1  0.211000  0.809700  0.253700  1.0
  N  N606  1  0.789000  0.190300  0.746300  1.0
  N  N607  1  0.168600  0.960400  0.408100  1.0
  N  N608  1  0.831400  0.039600  0.591900  1.0
  N  N609  1  0.137800  0.964400  0.229300  1.0
  N  N610  1  0.862200  0.035600  0.770700  1.0
  N  N611  1  0.384900  0.830700  0.553800  1.0
  N  N612  1  0.615100  0.169300  0.446200  1.0
  N  N613  1  0.344900  0.772000  0.569600  1.0
  N  N614  1  0.655100  0.228000  0.430400  1.0
  N  N615  1  0.257800  0.780300  0.472000  1.0
  N  N616  1  0.742200  0.219700  0.528000  1.0
  N  N617  1  0.230800  0.728600  0.498000  1.0
  N  N618  1  0.769200  0.271400  0.502000  1.0
  N  N619  1  0.346200  0.708800  0.429800  1.0
  N  N620  1  0.653800  0.291200  0.570200  1.0
  N  N621  1  0.308700  0.663300  0.457500  1.0
  N  N622  1  0.691300  0.336700  0.542500  1.0
  N  N623  1  0.354400  0.541500  0.156700  1.0
  N  N624  1  0.645600  0.458500  0.843300  1.0
  N  N625  1  0.319000  0.461800  0.116100  1.0
  N  N626  1  0.681000  0.538200  0.883900  1.0
  N  N627  1  0.347000  0.552600  0.044200  1.0
  N  N628  1  0.653000  0.447400  0.955800  1.0
  N  N629  1  0.317600  0.472700  0.014400  1.0
  N  N630  1  0.682400  0.527300  0.985600  1.0
  N  N631  1  0.462200  0.539400  0.090500  1.0
  N  N632  1  0.537800  0.460600  0.909500  1.0
  N  N633  1  0.419000  0.461300  0.058600  1.0
  N  N634  1  0.581000  0.538700  0.941400  1.0
  N  N635  1  0.291900  0.916300  0.099300  1.0
  N  N636  1  0.708100  0.083700  0.900700  1.0
  N  N637  1  0.264500  0.883300  0.034800  1.0
  N  N638  1  0.735500  0.116700  0.965200  1.0
  N  N639  1  0.418200  0.999100  0.069200  1.0
  N  N640  1  0.581800  0.000900  0.930800  1.0
  N  N641  1  0.377100  0.958500  0.007100  1.0
  N  N642  1  0.622900  0.041500  0.992900  1.0
  N  N643  1  0.386700  0.854100  0.057600  1.0
  N  N644  1  0.613300  0.145900  0.942400  1.0
  N  N645  1  0.348900  0.827600  0.997800  1.0
  N  N646  1  0.651100  0.172400  0.002200  1.0
  N  N647  1  0.037800  0.750600  0.298700  1.0
  N  N648  1  0.962200  0.249400  0.701300  1.0
  N  N649  1  0.966100  0.697800  0.277500  1.0
  N  N650  1  0.033900  0.302200  0.722500  1.0
  N  N651  1  0.990800  0.848500  0.288000  1.0
  N  N652  1  0.009200  0.151500  0.712000  1.0
  N  N653  1  0.924700  0.786800  0.263500  1.0
  N  N654  1  0.075300  0.213200  0.736500  1.0
  N  N655  1  0.027000  0.754300  0.184200  1.0
  N  N656  1  0.973000  0.245700  0.815800  1.0
  N  N657  1  0.954800  0.700100  0.172500  1.0
  N  N658  1  0.045200  0.299900  0.827500  1.0
  O  O659  1  0.053400  0.111000  0.838800  1
  O  O660  1  0.946600  0.889000  0.161200  1
  O  O661  1  0.891800  0.191500  0.152700  1
  O  O662  1  0.108200  0.808500  0.847300  1
  O  O663  1  0.799400  0.967700  0.202800  1
  O  O664  1  0.200600  0.032300  0.797200  1
  O  O665  1  0.641300  0.903300  0.116100  1
  O  O666  1  0.358700  0.096700  0.883900  1
  O  O667  1  0.302700  0.089600  0.099900  1
  O  O668  1  0.697300  0.910400  0.900100  1
  O  O669  1  0.699900  0.784700  0.178600  1
  O  O670  1  0.300100  0.215300  0.821400  1
  O  O671  1  0.977700  0.352700  0.078900  1
  O  O672  1  0.022300  0.647300  0.921100  1
  O  O673  1  0.237000  0.033100  0.017000  1
  O  O674  1  0.763000  0.966900  0.983000  1
  O  O675  1  0.237400  0.253500  0.862200  1
  O  O676  1  0.762600  0.746500  0.137800  1
  O  O677  1  0.033000  0.279000  0.056600  1
  O  O678  1  0.967000  0.721000  0.943400  1
  O  O679  1  0.007000  0.936000  0.770400  1
  O  O680  1  0.993000  0.064000  0.229600  1
  O  O681  1  0.882000  0.924100  0.845000  1
  O  O682  1  0.118000  0.075900  0.155000  1
  O  O683  1  0.991600  0.091000  0.958000  1
  O  O684  1  0.008400  0.909000  0.042000  1
  O  O685  1  0.111000  0.251600  0.140000  1
  O  O686  1  0.889000  0.748400  0.860000  1
  O  O687  1  0.283300  0.253800  0.305600  1.0
  O  O688  1  0.716700  0.746200  0.694400  1.0
  O  O689  1  0.301200  0.312300  0.723300  1.0
  O  O690  1  0.698800  0.687700  0.276700  1.0
  O  O691  1  0.693500  0.270000  0.201900  1.0
  O  O692  1  0.306500  0.730000  0.798100  1.0
  O  O693  1  0.257400  0.181800  0.996300  1.0
  O  O694  1  0.742600  0.818200  0.003700  1.0
  O  O695  1  0.745200  0.168000  0.308000  1.0
  O  O696  1  0.254800  0.832000  0.692000  1.0
  O  O697  1  0.167300  0.487200  0.643500  1.0
  O  O698  1  0.832700  0.512800  0.356500  1.0
