# generated using pymatgen
data_Cu8AgB4H152Au2C188(N9F4)4
_symmetry_space_group_name_H-M   'P 1'
_cell_length_a   23.10100000
_cell_length_b   23.10100000
_cell_length_c   46.77500000
_cell_angle_alpha   90.00000000
_cell_angle_beta   90.00000000
_cell_angle_gamma   90.00000000
_symmetry_Int_Tables_number   1
_chemical_formula_structural   Cu8AgB4H152Au2C188(N9F4)4
_chemical_formula_sum   'Cu16 Ag2 B8 H304 Au4 C376 N72 F32'
_cell_volume   24961.76880178
_cell_formula_units_Z   2
loop_
 _symmetry_equiv_pos_site_id
 _symmetry_equiv_pos_as_xyz
  1  'x, y, z'
loop_
 _atom_site_type_symbol
 _atom_site_label
 _atom_site_symmetry_multiplicity
 _atom_site_fract_x
 _atom_site_fract_y
 _atom_site_fract_z
 _atom_site_occupancy
  Cu  Cu1  1  0.386050  0.061000  0.928460  1.0
  Cu  Cu2  1  0.113950  0.439000  0.928460  1.0
  Cu  Cu3  1  0.439000  0.386050  0.928460  1.0
  Cu  Cu4  1  0.061000  0.113950  0.928460  1.0
  Cu  Cu5  1  0.613950  0.939000  0.071540  1.0
  Cu  Cu6  1  0.886050  0.561000  0.071540  1.0
  Cu  Cu7  1  0.561000  0.613950  0.071540  1.0
  Cu  Cu8  1  0.939000  0.886050  0.071540  1.0
  Cu  Cu9  1  0.022050  0.272380  0.188620  1.0
  Cu  Cu10  1  0.477950  0.227620  0.188620  1.0
  Cu  Cu11  1  0.227620  0.022050  0.188620  1.0
  Cu  Cu12  1  0.272380  0.477950  0.188620  1.0
  Cu  Cu13  1  0.977950  0.727620  0.811380  1.0
  Cu  Cu14  1  0.522050  0.772380  0.811380  1.0
  Cu  Cu15  1  0.772380  0.977950  0.811380  1.0
  Cu  Cu16  1  0.727620  0.522050  0.811380  1.0
  Ag  Ag17  1  0.250000  0.250000  0.049900  1
  Ag  Ag18  1  0.750000  0.750000  0.950100  1
  B  B19  1  0.675800  0.054500  0.946300  1
  B  B20  1  0.824200  0.445500  0.946300  1
  B  B21  1  0.445500  0.675800  0.946300  1
  B  B22  1  0.054500  0.824200  0.946300  1
  B  B23  1  0.324200  0.945500  0.053700  1
  B  B24  1  0.175800  0.554500  0.053700  1
  B  B25  1  0.554500  0.324200  0.053700  1
  B  B26  1  0.945500  0.175800  0.053700  1
  H  H27  1  0.088800  0.164100  0.192400  1.0
  H  H28  1  0.411200  0.335900  0.192400  1.0
  H  H29  1  0.335900  0.088800  0.192400  1.0
  H  H30  1  0.164100  0.411200  0.192400  1.0
  H  H31  1  0.911200  0.835900  0.807600  1.0
  H  H32  1  0.588800  0.664100  0.807600  1.0
  H  H33  1  0.664100  0.911200  0.807600  1.0
  H  H34  1  0.835900  0.588800  0.807600  1.0
  H  H35  1  0.201200  0.092600  0.136000  1.0
  H  H36  1  0.298800  0.407400  0.136000  1.0
  H  H37  1  0.407400  0.201200  0.136000  1.0
  H  H38  1  0.092600  0.298800  0.136000  1.0
  H  H39  1  0.798800  0.907400  0.864000  1.0
  H  H40  1  0.701200  0.592600  0.864000  1.0
  H  H41  1  0.592600  0.798800  0.864000  1.0
  H  H42  1  0.907400  0.701200  0.864000  1.0
  H  H43  1  0.054200  0.169200  0.107500  1.0
  H  H44  1  0.445800  0.330800  0.107500  1.0
  H  H45  1  0.330800  0.054200  0.107500  1.0
  H  H46  1  0.169200  0.445800  0.107500  1.0
  H  H47  1  0.945800  0.830800  0.892500  1.0
  H  H48  1  0.554200  0.669200  0.892500  1.0
  H  H49  1  0.669200  0.945800  0.892500  1.0
  H  H50  1  0.830800  0.554200  0.892500  1.0
  H  H51  1  0.120600  0.195100  0.068600  1.0
  H  H52  1  0.379400  0.304900  0.068600  1.0
  H  H53  1  0.304900  0.120600  0.068600  1.0
  H  H54  1  0.195100  0.379400  0.068600  1.0
  H  H55  1  0.879400  0.804900  0.931400  1.0
  H  H56  1  0.620600  0.695100  0.931400  1.0
  H  H57  1  0.695100  0.879400  0.931400  1.0
  H  H58  1  0.804900  0.620600  0.931400  1.0
  H  H59  1  0.149800  0.176900  0.021600  1.0
  H  H60  1  0.350200  0.323100  0.021600  1.0
  H  H61  1  0.323100  0.149800  0.021600  1.0
  H  H62  1  0.176900  0.350200  0.021600  1.0
  H  H63  1  0.850200  0.823100  0.978400  1.0
  H  H64  1  0.649800  0.676900  0.978400  1.0
  H  H65  1  0.676900  0.850200  0.978400  1.0
  H  H66  1  0.823100  0.649800  0.978400  1.0
  H  H67  1  0.222300  0.025500  0.046800  1.0
  H  H68  1  0.277700  0.474500  0.046800  1.0
  H  H69  1  0.474500  0.222300  0.046800  1.0
  H  H70  1  0.025500  0.277700  0.046800  1.0
  H  H71  1  0.777700  0.974500  0.953200  1.0
  H  H72  1  0.722300  0.525500  0.953200  1.0
  H  H73  1  0.525500  0.777700  0.953200  1.0
  H  H74  1  0.974500  0.722300  0.953200  1.0
  H  H75  1  0.193100  0.043700  0.093800  1.0
  H  H76  1  0.306900  0.456300  0.093800  1.0
  H  H77  1  0.456300  0.193100  0.093800  1.0
  H  H78  1  0.043700  0.306900  0.093800  1.0
  H  H79  1  0.806900  0.956300  0.906200  1.0
  H  H80  1  0.693100  0.543700  0.906200  1.0
  H  H81  1  0.543700  0.806900  0.906200  1.0
  H  H82  1  0.956300  0.693100  0.906200  1.0
  H  H83  1  0.132900  0.118600  0.982000  1.0
  H  H84  1  0.367100  0.381400  0.982000  1.0
  H  H85  1  0.381400  0.132900  0.982000  1.0
  H  H86  1  0.118600  0.367100  0.982000  1.0
  H  H87  1  0.867100  0.881400  0.018000  1.0
  H  H88  1  0.632900  0.618600  0.018000  1.0
  H  H89  1  0.618600  0.867100  0.018000  1.0
  H  H90  1  0.881400  0.632900  0.018000  1.0
  H  H91  1  0.254500  0.064800  0.925400  1.0
  H  H92  1  0.245500  0.435200  0.925400  1.0
  H  H93  1  0.435200  0.254500  0.925400  1.0
  H  H94  1  0.064800  0.245500  0.925400  1.0
  H  H95  1  0.745500  0.935200  0.074600  1.0
  H  H96  1  0.754500  0.564800  0.074600  1.0
  H  H97  1  0.564800  0.745500  0.074600  1.0
  H  H98  1  0.935200  0.754500  0.074600  1.0
  H  H99  1  0.284300  0.051300  0.010600  1.0
  H  H100  1  0.215700  0.448700  0.010600  1.0
  H  H101  1  0.448700  0.284300  0.010600  1.0
  H  H102  1  0.051300  0.215700  0.010600  1.0
  H  H103  1  0.715700  0.948700  0.989400  1.0
  H  H104  1  0.784300  0.551300  0.989400  1.0
  H  H105  1  0.551300  0.715700  0.989400  1.0
  H  H106  1  0.948700  0.784300  0.989400  1.0
  H  H107  1  0.967300  0.181500  0.130600  1.0
  H  H108  1  0.532700  0.318500  0.130600  1.0
  H  H109  1  0.318500  0.967300  0.130600  1.0
  H  H110  1  0.181500  0.532700  0.130600  1.0
  H  H111  1  0.032700  0.818500  0.869400  1.0
  H  H112  1  0.467300  0.681500  0.869400  1.0
  H  H113  1  0.681500  0.032700  0.869400  1.0
  H  H114  1  0.818500  0.467300  0.869400  1.0
  H  H115  1  0.869500  0.225900  0.123800  1.0
  H  H116  1  0.630500  0.274100  0.123800  1.0
  H  H117  1  0.274100  0.869500  0.123800  1.0
  H  H118  1  0.225900  0.630500  0.123800  1.0
  H  H119  1  0.130500  0.774100  0.876200  1.0
  H  H120  1  0.369500  0.725900  0.876200  1.0
  H  H121  1  0.725900  0.130500  0.876200  1.0
  H  H122  1  0.774100  0.369500  0.876200  1.0
  H  H123  1  0.800300  0.293700  0.138500  1.0
  H  H124  1  0.699700  0.206300  0.138500  1.0
  H  H125  1  0.206300  0.800300  0.138500  1.0
  H  H126  1  0.293700  0.699700  0.138500  1.0
  H  H127  1  0.199700  0.706300  0.861500  1.0
  H  H128  1  0.300300  0.793700  0.861500  1.0
  H  H129  1  0.793700  0.199700  0.861500  1.0
  H  H130  1  0.706300  0.300300  0.861500  1.0
  H  H131  1  0.822700  0.360600  0.174300  1.0
  H  H132  1  0.677300  0.139400  0.174300  1.0
  H  H133  1  0.139400  0.822700  0.174300  1.0
  H  H134  1  0.360600  0.677300  0.174300  1.0
  H  H135  1  0.177300  0.639400  0.825700  1.0
  H  H136  1  0.322700  0.860600  0.825700  1.0
  H  H137  1  0.860600  0.177300  0.825700  1.0
  H  H138  1  0.639400  0.322700  0.825700  1.0
  H  H139  1  0.959200  0.378300  0.208600  1.0
  H  H140  1  0.540800  0.121700  0.208600  1.0
  H  H141  1  0.121700  0.959200  0.208600  1.0
  H  H142  1  0.378300  0.540800  0.208600  1.0
  H  H143  1  0.040800  0.621700  0.791400  1.0
  H  H144  1  0.459200  0.878300  0.791400  1.0
  H  H145  1  0.878300  0.040800  0.791400  1.0
  H  H146  1  0.621700  0.459200  0.791400  1.0
  H  H147  1  0.892000  0.387400  0.215700  1.0
  H  H148  1  0.608000  0.112600  0.215700  1.0
  H  H149  1  0.112600  0.892000  0.215700  1.0
  H  H150  1  0.387400  0.608000  0.215700  1.0
  H  H151  1  0.108000  0.612600  0.784300  1.0
  H  H152  1  0.392000  0.887400  0.784300  1.0
  H  H153  1  0.887400  0.108000  0.784300  1.0
  H  H154  1  0.612600  0.392000  0.784300  1.0
  H  H155  1  0.920500  0.419900  0.189000  1.0
  H  H156  1  0.579500  0.080100  0.189000  1.0
  H  H157  1  0.080100  0.920500  0.189000  1.0
  H  H158  1  0.419900  0.579500  0.189000  1.0
  H  H159  1  0.079500  0.580100  0.811000  1.0
  H  H160  1  0.420500  0.919900  0.811000  1.0
  H  H161  1  0.919900  0.079500  0.811000  1.0
  H  H162  1  0.580100  0.420500  0.811000  1.0
  H  H163  1  0.335500  0.983600  0.992300  1.0
  H  H164  1  0.164500  0.516400  0.992300  1.0
  H  H165  1  0.516400  0.335500  0.992300  1.0
  H  H166  1  0.983600  0.164500  0.992300  1.0
  H  H167  1  0.664500  0.016400  0.007700  1.0
  H  H168  1  0.835500  0.483600  0.007700  1.0
  H  H169  1  0.483600  0.664500  0.007700  1.0
  H  H170  1  0.016400  0.835500  0.007700  1.0
  H  H171  1  0.427400  0.928500  0.005100  1.0
  H  H172  1  0.072600  0.571500  0.005100  1.0
  H  H173  1  0.571500  0.427400  0.005100  1.0
  H  H174  1  0.928500  0.072600  0.005100  1.0
  H  H175  1  0.572600  0.071500  0.994900  1.0
  H  H176  1  0.927400  0.428500  0.994900  1.0
  H  H177  1  0.428500  0.572600  0.994900  1.0
  H  H178  1  0.071500  0.927400  0.994900  1.0
  H  H179  1  0.523400  0.904100  0.994600  1.0
  H  H180  1  0.976600  0.595900  0.994600  1.0
  H  H181  1  0.595900  0.523400  0.994600  1.0
  H  H182  1  0.904100  0.976600  0.994600  1.0
  H  H183  1  0.476600  0.095900  0.005400  1.0
  H  H184  1  0.023400  0.404100  0.005400  1.0
  H  H185  1  0.404100  0.476600  0.005400  1.0
  H  H186  1  0.095900  0.023400  0.005400  1.0
  H  H187  1  0.568700  0.943200  0.954200  1.0
  H  H188  1  0.931300  0.556800  0.954200  1.0
  H  H189  1  0.556800  0.568700  0.954200  1.0
  H  H190  1  0.943200  0.931300  0.954200  1.0
  H  H191  1  0.431300  0.056800  0.045800  1.0
  H  H192  1  0.068700  0.443200  0.045800  1.0
  H  H193  1  0.443200  0.431300  0.045800  1.0
  H  H194  1  0.056800  0.068700  0.045800  1.0
  H  H195  1  0.488400  0.047000  0.907700  1.0
  H  H196  1  0.011600  0.453000  0.907700  1.0
  H  H197  1  0.453000  0.488400  0.907700  1.0
  H  H198  1  0.047000  0.011600  0.907700  1.0
  H  H199  1  0.511600  0.953000  0.092300  1.0
  H  H200  1  0.988400  0.547000  0.092300  1.0
  H  H201  1  0.547000  0.511600  0.092300  1.0
  H  H202  1  0.953000  0.988400  0.092300  1.0
  H  H203  1  0.536700  0.999000  0.901500  1.0
  H  H204  1  0.963300  0.501000  0.901500  1.0
  H  H205  1  0.501000  0.536700  0.901500  1.0
  H  H206  1  0.999000  0.963300  0.901500  1.0
  H  H207  1  0.463300  0.001000  0.098500  1.0
  H  H208  1  0.036700  0.499000  0.098500  1.0
  H  H209  1  0.499000  0.463300  0.098500  1.0
  H  H210  1  0.001000  0.036700  0.098500  1.0
  H  H211  1  0.550800  0.052100  0.922400  1.0
  H  H212  1  0.949200  0.447900  0.922400  1.0
  H  H213  1  0.447900  0.550800  0.922400  1.0
  H  H214  1  0.052100  0.949200  0.922400  1.0
  H  H215  1  0.449200  0.947900  0.077600  1.0
  H  H216  1  0.050800  0.552100  0.077600  1.0
  H  H217  1  0.552100  0.449200  0.077600  1.0
  H  H218  1  0.947900  0.050800  0.077600  1.0
  H  H219  1  0.187900  0.174700  0.213900  1.0
  H  H220  1  0.312100  0.325300  0.213900  1.0
  H  H221  1  0.325300  0.187900  0.213900  1.0
  H  H222  1  0.174700  0.312100  0.213900  1.0
  H  H223  1  0.812100  0.825300  0.786100  1.0
  H  H224  1  0.687900  0.674700  0.786100  1.0
  H  H225  1  0.674700  0.812100  0.786100  1.0
  H  H226  1  0.825300  0.687900  0.786100  1.0
  H  H227  1  0.232000  0.174400  0.262400  1.0
  H  H228  1  0.268000  0.325600  0.262400  1.0
  H  H229  1  0.325600  0.232000  0.262400  1.0
  H  H230  1  0.174400  0.268000  0.262400  1.0
  H  H231  1  0.768000  0.825600  0.737600  1.0
  H  H232  1  0.732000  0.674400  0.737600  1.0
  H  H233  1  0.674400  0.768000  0.737600  1.0
  H  H234  1  0.825600  0.732000  0.737600  1.0
  H  H235  1  0.280100  0.121600  0.298900  1.0
  H  H236  1  0.219900  0.378400  0.298900  1.0
  H  H237  1  0.378400  0.280100  0.298900  1.0
  H  H238  1  0.121600  0.219900  0.298900  1.0
  H  H239  1  0.719900  0.878400  0.701100  1.0
  H  H240  1  0.780100  0.621600  0.701100  1.0
  H  H241  1  0.621600  0.719900  0.701100  1.0
  H  H242  1  0.878400  0.780100  0.701100  1.0
  H  H243  1  0.299500  0.024700  0.292600  1.0
  H  H244  1  0.200500  0.475300  0.292600  1.0
  H  H245  1  0.475300  0.299500  0.292600  1.0
  H  H246  1  0.024700  0.200500  0.292600  1.0
  H  H247  1  0.700500  0.975300  0.707400  1.0
  H  H248  1  0.799500  0.524700  0.707400  1.0
  H  H249  1  0.524700  0.700500  0.707400  1.0
  H  H250  1  0.975300  0.799500  0.707400  1.0
  H  H251  1  0.267800  0.946800  0.227800  1.0
  H  H252  1  0.232200  0.553200  0.227800  1.0
  H  H253  1  0.553200  0.267800  0.227800  1.0
  H  H254  1  0.946800  0.232200  0.227800  1.0
  H  H255  1  0.732200  0.053200  0.772200  1.0
  H  H256  1  0.767800  0.446800  0.772200  1.0
  H  H257  1  0.446800  0.732200  0.772200  1.0
  H  H258  1  0.053200  0.767800  0.772200  1.0
  H  H259  1  0.263300  0.932800  0.261200  1.0
  H  H260  1  0.236700  0.567200  0.261200  1.0
  H  H261  1  0.567200  0.263300  0.261200  1.0
  H  H262  1  0.932800  0.236700  0.261200  1.0
  H  H263  1  0.736700  0.067200  0.738800  1.0
  H  H264  1  0.763300  0.432800  0.738800  1.0
  H  H265  1  0.432800  0.736700  0.738800  1.0
  H  H266  1  0.067200  0.763300  0.738800  1.0
  H  H267  1  0.323800  0.952500  0.247700  1.0
  H  H268  1  0.176200  0.547500  0.247700  1.0
  H  H269  1  0.547500  0.323800  0.247700  1.0
  H  H270  1  0.952500  0.176200  0.247700  1.0
  H  H271  1  0.676200  0.047500  0.752300  1.0
  H  H272  1  0.823800  0.452500  0.752300  1.0
  H  H273  1  0.452500  0.676200  0.752300  1.0
  H  H274  1  0.047500  0.823800  0.752300  1.0
  H  H275  1  0.190100  0.161000  0.849100  1.0
  H  H276  1  0.309900  0.339000  0.849100  1.0
  H  H277  1  0.339000  0.190100  0.849100  1.0
  H  H278  1  0.161000  0.309900  0.849100  1.0
  H  H279  1  0.809900  0.839000  0.150900  1.0
  H  H280  1  0.690100  0.661000  0.150900  1.0
  H  H281  1  0.661000  0.809900  0.150900  1.0
  H  H282  1  0.839000  0.690100  0.150900  1.0
  H  H283  1  0.120600  0.195600  0.816900  1.0
  H  H284  1  0.379400  0.304400  0.816900  1.0
  H  H285  1  0.304400  0.120600  0.816900  1.0
  H  H286  1  0.195600  0.379400  0.816900  1.0
  H  H287  1  0.879400  0.804400  0.183100  1.0
  H  H288  1  0.620600  0.695600  0.183100  1.0
  H  H289  1  0.695600  0.879400  0.183100  1.0
  H  H290  1  0.804400  0.620600  0.183100  1.0
  H  H291  1  0.022500  0.194200  0.829400  1.0
  H  H292  1  0.477500  0.305800  0.829400  1.0
  H  H293  1  0.305800  0.022500  0.829400  1.0
  H  H294  1  0.194200  0.477500  0.829400  1.0
  H  H295  1  0.977500  0.805800  0.170600  1.0
  H  H296  1  0.522500  0.694200  0.170600  1.0
  H  H297  1  0.694200  0.977500  0.170600  1.0
  H  H298  1  0.805800  0.522500  0.170600  1.0
  H  H299  1  0.968400  0.138600  0.898100  1.0
  H  H300  1  0.531600  0.361400  0.898100  1.0
  H  H301  1  0.361400  0.968400  0.898100  1.0
  H  H302  1  0.138600  0.531600  0.898100  1.0
  H  H303  1  0.031600  0.861400  0.101900  1.0
  H  H304  1  0.468400  0.638600  0.101900  1.0
  H  H305  1  0.638600  0.031600  0.101900  1.0
  H  H306  1  0.861400  0.468400  0.101900  1.0
  H  H307  1  0.948900  0.128300  0.865700  1.0
  H  H308  1  0.551100  0.371700  0.865700  1.0
  H  H309  1  0.371700  0.948900  0.865700  1.0
  H  H310  1  0.128300  0.551100  0.865700  1.0
  H  H311  1  0.051100  0.871700  0.134300  1.0
  H  H312  1  0.448900  0.628300  0.134300  1.0
  H  H313  1  0.628300  0.051100  0.134300  1.0
  H  H314  1  0.871700  0.448900  0.134300  1.0
  H  H315  1  0.952100  0.192600  0.878200  1.0
  H  H316  1  0.547900  0.307400  0.878200  1.0
  H  H317  1  0.307400  0.952100  0.878200  1.0
  H  H318  1  0.192600  0.547900  0.878200  1.0
  H  H319  1  0.047900  0.807400  0.121800  1.0
  H  H320  1  0.452100  0.692600  0.121800  1.0
  H  H321  1  0.692600  0.047900  0.121800  1.0
  H  H322  1  0.807400  0.452100  0.121800  1.0
  H  H323  1  0.206600  0.129600  0.901600  1.0
  H  H324  1  0.293400  0.370400  0.901600  1.0
  H  H325  1  0.370400  0.206600  0.901600  1.0
  H  H326  1  0.129600  0.293400  0.901600  1.0
  H  H327  1  0.793400  0.870400  0.098400  1.0
  H  H328  1  0.706600  0.629600  0.098400  1.0
  H  H329  1  0.629600  0.793400  0.098400  1.0
  H  H330  1  0.870400  0.706600  0.098400  1.0
  Au  Au331  1  0.250000  0.250000  0.157650  1
  Au  Au332  1  0.750000  0.750000  0.842350  1
  Au  Au333  1  0.250000  0.250000  0.942260  1
  Au  Au334  1  0.750000  0.750000  0.057740  1
  C  C335  1  0.250000  0.250000  0.116500  1
  C  C336  1  0.750000  0.750000  0.883500  1
  C  C337  1  0.250000  0.250000  0.199400  1
  C  C338  1  0.750000  0.750000  0.800600  1
  C  C339  1  0.250000  0.250000  0.983900  1
  C  C340  1  0.750000  0.750000  0.016100  1
  C  C341  1  0.250000  0.250000  0.900700  1
  C  C342  1  0.750000  0.750000  0.099300  1
  C  C343  1  0.063400  0.171300  0.150800  1.0
  C  C344  1  0.436600  0.328700  0.150800  1.0
  C  C345  1  0.328700  0.063400  0.150800  1.0
  C  C346  1  0.171300  0.436600  0.150800  1.0
  C  C347  1  0.936600  0.828700  0.849200  1.0
  C  C348  1  0.563400  0.671300  0.849200  1.0
  C  C349  1  0.671300  0.936600  0.849200  1.0
  C  C350  1  0.828700  0.563400  0.849200  1.0
  C  C351  1  0.099300  0.155100  0.173260  1.0
  C  C352  1  0.400700  0.344900  0.173260  1.0
  C  C353  1  0.344900  0.099300  0.173260  1.0
  C  C354  1  0.155100  0.400700  0.173260  1.0
  C  C355  1  0.900700  0.844900  0.826740  1.0
  C  C356  1  0.599300  0.655100  0.826740  1.0
  C  C357  1  0.655100  0.900700  0.826740  1.0
  C  C358  1  0.844900  0.599300  0.826740  1.0
  C  C359  1  0.150700  0.125800  0.167700  1.0
  C  C360  1  0.349300  0.374200  0.167700  1.0
  C  C361  1  0.374200  0.150700  0.167700  1.0
  C  C362  1  0.125800  0.349300  0.167700  1.0
  C  C363  1  0.849300  0.874200  0.832300  1.0
  C  C364  1  0.650700  0.625800  0.832300  1.0
  C  C365  1  0.625800  0.849300  0.832300  1.0
  C  C366  1  0.874200  0.650700  0.832300  1.0
  C  C367  1  0.166100  0.112700  0.139700  1.0
  C  C368  1  0.333900  0.387300  0.139700  1.0
  C  C369  1  0.387300  0.166100  0.139700  1.0
  C  C370  1  0.112700  0.333900  0.139700  1.0
  C  C371  1  0.833900  0.887300  0.860300  1.0
  C  C372  1  0.666100  0.612700  0.860300  1.0
  C  C373  1  0.612700  0.833900  0.860300  1.0
  C  C374  1  0.887300  0.666100  0.860300  1.0
  C  C375  1  0.130100  0.128800  0.117290  1.0
  C  C376  1  0.369900  0.371200  0.117290  1.0
  C  C377  1  0.371200  0.130100  0.117290  1.0
  C  C378  1  0.128800  0.369900  0.117290  1.0
  C  C379  1  0.869900  0.871200  0.882710  1.0
  C  C380  1  0.630100  0.628800  0.882710  1.0
  C  C381  1  0.628800  0.869900  0.882710  1.0
  C  C382  1  0.871200  0.630100  0.882710  1.0
  C  C383  1  0.078800  0.158100  0.122800  1.0
  C  C384  1  0.421200  0.341900  0.122800  1.0
  C  C385  1  0.341900  0.078800  0.122800  1.0
  C  C386  1  0.158100  0.421200  0.122800  1.0
  C  C387  1  0.921200  0.841900  0.877200  1.0
  C  C388  1  0.578800  0.658100  0.877200  1.0
  C  C389  1  0.658100  0.921200  0.877200  1.0
  C  C390  1  0.841900  0.578800  0.877200  1.0
  C  C391  1  0.154100  0.121100  0.085640  1.0
  C  C392  1  0.345900  0.378900  0.085640  1.0
  C  C393  1  0.378900  0.154100  0.085640  1.0
  C  C394  1  0.121100  0.345900  0.085640  1.0
  C  C395  1  0.845900  0.878900  0.914360  1.0
  C  C396  1  0.654100  0.621100  0.914360  1.0
  C  C397  1  0.621100  0.845900  0.914360  1.0
  C  C398  1  0.878900  0.654100  0.914360  1.0
  C  C399  1  0.141200  0.160600  0.064170  1.0
  C  C400  1  0.358800  0.339400  0.064170  1.0
  C  C401  1  0.339400  0.141200  0.064170  1.0
  C  C402  1  0.160600  0.358800  0.064170  1.0
  C  C403  1  0.858800  0.839400  0.935830  1.0
  C  C404  1  0.641200  0.660600  0.935830  1.0
  C  C405  1  0.660600  0.858800  0.935830  1.0
  C  C406  1  0.839400  0.641200  0.935830  1.0
  C  C407  1  0.158600  0.149900  0.036220  1.0
  C  C408  1  0.341400  0.350100  0.036220  1.0
  C  C409  1  0.350100  0.158600  0.036220  1.0
  C  C410  1  0.149900  0.341400  0.036220  1.0
  C  C411  1  0.841400  0.850100  0.963780  1.0
  C  C412  1  0.658600  0.649900  0.963780  1.0
  C  C413  1  0.649900  0.841400  0.963780  1.0
  C  C414  1  0.850100  0.658600  0.963780  1.0
  C  C415  1  0.188800  0.099500  0.029730  1.0
  C  C416  1  0.311200  0.400500  0.029730  1.0
  C  C417  1  0.400500  0.188800  0.029730  1.0
  C  C418  1  0.099500  0.311200  0.029730  1.0
  C  C419  1  0.811200  0.900500  0.970270  1.0
  C  C420  1  0.688800  0.599500  0.970270  1.0
  C  C421  1  0.599500  0.811200  0.970270  1.0
  C  C422  1  0.900500  0.688800  0.970270  1.0
  C  C423  1  0.201700  0.060000  0.051200  1.0
  C  C424  1  0.298300  0.440000  0.051200  1.0
  C  C425  1  0.440000  0.201700  0.051200  1.0
  C  C426  1  0.060000  0.298300  0.051200  1.0
  C  C427  1  0.798300  0.940000  0.948800  1.0
  C  C428  1  0.701700  0.560000  0.948800  1.0
  C  C429  1  0.560000  0.798300  0.948800  1.0
  C  C430  1  0.940000  0.701700  0.948800  1.0
  C  C431  1  0.184300  0.070700  0.079150  1.0
  C  C432  1  0.315700  0.429300  0.079150  1.0
  C  C433  1  0.429300  0.184300  0.079150  1.0
  C  C434  1  0.070700  0.315700  0.079150  1.0
  C  C435  1  0.815700  0.929300  0.920850  1.0
  C  C436  1  0.684300  0.570700  0.920850  1.0
  C  C437  1  0.570700  0.815700  0.920850  1.0
  C  C438  1  0.929300  0.684300  0.920850  1.0
  C  C439  1  0.205700  0.086200  0.000710  1.0
  C  C440  1  0.294300  0.413800  0.000710  1.0
  C  C441  1  0.413800  0.205700  0.000710  1.0
  C  C442  1  0.086200  0.294300  0.000710  1.0
  C  C443  1  0.794300  0.913800  0.999290  1.0
  C  C444  1  0.705700  0.586200  0.999290  1.0
  C  C445  1  0.586200  0.794300  0.999290  1.0
  C  C446  1  0.913800  0.705700  0.999290  1.0
  C  C447  1  0.169900  0.102200  0.978200  1.0
  C  C448  1  0.330100  0.397800  0.978200  1.0
  C  C449  1  0.397800  0.169900  0.978200  1.0
  C  C450  1  0.102200  0.330100  0.978200  1.0
  C  C451  1  0.830100  0.897800  0.021800  1.0
  C  C452  1  0.669900  0.602200  0.021800  1.0
  C  C453  1  0.602200  0.830100  0.021800  1.0
  C  C454  1  0.897800  0.669900  0.021800  1.0
  C  C455  1  0.188000  0.094200  0.950150  1.0
  C  C456  1  0.312000  0.405800  0.950150  1.0
  C  C457  1  0.405800  0.188000  0.950150  1.0
  C  C458  1  0.094200  0.312000  0.950150  1.0
  C  C459  1  0.812000  0.905800  0.049850  1.0
  C  C460  1  0.688000  0.594200  0.049850  1.0
  C  C461  1  0.594200  0.812000  0.049850  1.0
  C  C462  1  0.905800  0.688000  0.049850  1.0
  C  C463  1  0.242000  0.070200  0.944600  1.0
  C  C464  1  0.258000  0.429800  0.944600  1.0
  C  C465  1  0.429800  0.242000  0.944600  1.0
  C  C466  1  0.070200  0.258000  0.944600  1.0
  C  C467  1  0.758000  0.929800  0.055400  1.0
  C  C468  1  0.742000  0.570200  0.055400  1.0
  C  C469  1  0.570200  0.758000  0.055400  1.0
  C  C470  1  0.929800  0.742000  0.055400  1.0
  C  C471  1  0.277900  0.054200  0.967110  1.0
  C  C472  1  0.222100  0.445800  0.967110  1.0
  C  C473  1  0.445800  0.277900  0.967110  1.0
  C  C474  1  0.054200  0.222100  0.967110  1.0
  C  C475  1  0.722100  0.945800  0.032890  1.0
  C  C476  1  0.777900  0.554200  0.032890  1.0
  C  C477  1  0.554200  0.722100  0.032890  1.0
  C  C478  1  0.945800  0.777900  0.032890  1.0
  C  C479  1  0.259800  0.062200  0.995170  1.0
  C  C480  1  0.240200  0.437800  0.995170  1.0
  C  C481  1  0.437800  0.259800  0.995170  1.0
  C  C482  1  0.062200  0.240200  0.995170  1.0
  C  C483  1  0.740200  0.937800  0.004830  1.0
  C  C484  1  0.759800  0.562200  0.004830  1.0
  C  C485  1  0.562200  0.740200  0.004830  1.0
  C  C486  1  0.937800  0.759800  0.004830  1.0
  C  C487  1  0.974300  0.209700  0.145000  1.0
  C  C488  1  0.525700  0.290300  0.145000  1.0
  C  C489  1  0.290300  0.974300  0.145000  1.0
  C  C490  1  0.209700  0.525700  0.145000  1.0
  C  C491  1  0.025700  0.790300  0.855000  1.0
  C  C492  1  0.474300  0.709700  0.855000  1.0
  C  C493  1  0.709700  0.025700  0.855000  1.0
  C  C494  1  0.790300  0.474300  0.855000  1.0
  C  C495  1  0.933100  0.252600  0.151000  1.0
  C  C496  1  0.566900  0.247400  0.151000  1.0
  C  C497  1  0.247400  0.933100  0.151000  1.0
  C  C498  1  0.252600  0.566900  0.151000  1.0
  C  C499  1  0.066900  0.747400  0.849000  1.0
  C  C500  1  0.433100  0.752600  0.849000  1.0
  C  C501  1  0.752600  0.066900  0.849000  1.0
  C  C502  1  0.747400  0.433100  0.849000  1.0
  C  C503  1  0.878600  0.253100  0.138400  1.0
  C  C504  1  0.621400  0.246900  0.138400  1.0
  C  C505  1  0.246900  0.878600  0.138400  1.0
  C  C506  1  0.253100  0.621400  0.138400  1.0
  C  C507  1  0.121400  0.746900  0.861600  1.0
  C  C508  1  0.378600  0.753100  0.861600  1.0
  C  C509  1  0.753100  0.121400  0.861600  1.0
  C  C510  1  0.746900  0.378600  0.861600  1.0
  C  C511  1  0.837500  0.293400  0.147100  1.0
  C  C512  1  0.662500  0.206600  0.147100  1.0
  C  C513  1  0.206600  0.837500  0.147100  1.0
  C  C514  1  0.293400  0.662500  0.147100  1.0
  C  C515  1  0.162500  0.706600  0.852900  1.0
  C  C516  1  0.337500  0.793400  0.852900  1.0
  C  C517  1  0.793400  0.162500  0.852900  1.0
  C  C518  1  0.706600  0.337500  0.852900  1.0
  C  C519  1  0.850900  0.333100  0.168400  1.0
  C  C520  1  0.649100  0.166900  0.168400  1.0
  C  C521  1  0.166900  0.850900  0.168400  1.0
  C  C522  1  0.333100  0.649100  0.168400  1.0
  C  C523  1  0.149100  0.666900  0.831600  1.0
  C  C524  1  0.350900  0.833100  0.831600  1.0
  C  C525  1  0.833100  0.149100  0.831600  1.0
  C  C526  1  0.666900  0.350900  0.831600  1.0
  C  C527  1  0.905300  0.332600  0.181000  1.0
  C  C528  1  0.594700  0.167400  0.181000  1.0
  C  C529  1  0.167400  0.905300  0.181000  1.0
  C  C530  1  0.332600  0.594700  0.181000  1.0
  C  C531  1  0.094700  0.667400  0.819000  1.0
  C  C532  1  0.405300  0.832600  0.819000  1.0
  C  C533  1  0.832600  0.094700  0.819000  1.0
  C  C534  1  0.667400  0.405300  0.819000  1.0
  C  C535  1  0.920600  0.384200  0.200300  1.0
  C  C536  1  0.579400  0.115800  0.200300  1.0
  C  C537  1  0.115800  0.920600  0.200300  1.0
  C  C538  1  0.384200  0.579400  0.200300  1.0
  C  C539  1  0.079400  0.615800  0.799700  1.0
  C  C540  1  0.420600  0.884200  0.799700  1.0
  C  C541  1  0.884200  0.079400  0.799700  1.0
  C  C542  1  0.615800  0.420600  0.799700  1.0
  C  C543  1  0.355800  0.998400  0.976200  1.0
  C  C544  1  0.144200  0.501600  0.976200  1.0
  C  C545  1  0.501600  0.355800  0.976200  1.0
  C  C546  1  0.998400  0.144200  0.976200  1.0
  C  C547  1  0.644200  0.001600  0.023800  1.0
  C  C548  1  0.855800  0.498400  0.023800  1.0
  C  C549  1  0.498400  0.644200  0.023800  1.0
  C  C550  1  0.001600  0.855800  0.023800  1.0
  C  C551  1  0.415700  0.982100  0.970940  1.0
  C  C552  1  0.084300  0.517900  0.970940  1.0
  C  C553  1  0.517900  0.415700  0.970940  1.0
  C  C554  1  0.982100  0.084300  0.970940  1.0
  C  C555  1  0.584300  0.017900  0.029060  1.0
  C  C556  1  0.915700  0.482100  0.029060  1.0
  C  C557  1  0.482100  0.584300  0.029060  1.0
  C  C558  1  0.017900  0.915700  0.029060  1.0
  C  C559  1  0.445800  0.944300  0.988670  1.0
  C  C560  1  0.054200  0.555700  0.988670  1.0
  C  C561  1  0.555700  0.445800  0.988670  1.0
  C  C562  1  0.944300  0.054200  0.988670  1.0
  C  C563  1  0.554200  0.055700  0.011330  1.0
  C  C564  1  0.945800  0.444300  0.011330  1.0
  C  C565  1  0.444300  0.554200  0.011330  1.0
  C  C566  1  0.055700  0.945800  0.011330  1.0
  C  C567  1  0.502900  0.929900  0.982440  1.0
  C  C568  1  0.997100  0.570100  0.982440  1.0
  C  C569  1  0.570100  0.502900  0.982440  1.0
  C  C570  1  0.929900  0.997100  0.982440  1.0
  C  C571  1  0.497100  0.070100  0.017560  1.0
  C  C572  1  0.002900  0.429900  0.017560  1.0
  C  C573  1  0.429900  0.497100  0.017560  1.0
  C  C574  1  0.070100  0.002900  0.017560  1.0
  C  C575  1  0.529800  0.953100  0.958480  1.0
  C  C576  1  0.970200  0.546900  0.958480  1.0
  C  C577  1  0.546900  0.529800  0.958480  1.0
  C  C578  1  0.953100  0.970200  0.958480  1.0
  C  C579  1  0.470200  0.046900  0.041520  1.0
  C  C580  1  0.029800  0.453100  0.041520  1.0
  C  C581  1  0.453100  0.470200  0.041520  1.0
  C  C582  1  0.046900  0.029800  0.041520  1.0
  C  C583  1  0.499700  0.990900  0.940740  1.0
  C  C584  1  0.000300  0.509100  0.940740  1.0
  C  C585  1  0.509100  0.499700  0.940740  1.0
  C  C586  1  0.990900  0.000300  0.940740  1.0
  C  C587  1  0.500300  0.009100  0.059260  1.0
  C  C588  1  0.999700  0.490900  0.059260  1.0
  C  C589  1  0.490900  0.500300  0.059260  1.0
  C  C590  1  0.009100  0.999700  0.059260  1.0
  C  C591  1  0.520700  0.025200  0.916000  1.0
  C  C592  1  0.979300  0.474800  0.916000  1.0
  C  C593  1  0.474800  0.520700  0.916000  1.0
  C  C594  1  0.025200  0.979300  0.916000  1.0
  C  C595  1  0.479300  0.974800  0.084000  1.0
  C  C596  1  0.020700  0.525200  0.084000  1.0
  C  C597  1  0.525200  0.479300  0.084000  1.0
  C  C598  1  0.974800  0.020700  0.084000  1.0
  C  C599  1  0.195800  0.134400  0.212400  1.0
  C  C600  1  0.304200  0.365600  0.212400  1.0
  C  C601  1  0.365600  0.195800  0.212400  1.0
  C  C602  1  0.134400  0.304200  0.212400  1.0
  C  C603  1  0.804200  0.865600  0.787600  1.0
  C  C604  1  0.695800  0.634400  0.787600  1.0
  C  C605  1  0.634400  0.804200  0.787600  1.0
  C  C606  1  0.865600  0.695800  0.787600  1.0
  C  C607  1  0.226000  0.105100  0.235900  1.0
  C  C608  1  0.274000  0.394900  0.235900  1.0
  C  C609  1  0.394900  0.226000  0.235900  1.0
  C  C610  1  0.105100  0.274000  0.235900  1.0
  C  C611  1  0.774000  0.894900  0.764100  1.0
  C  C612  1  0.726000  0.605100  0.764100  1.0
  C  C613  1  0.605100  0.774000  0.764100  1.0
  C  C614  1  0.894900  0.726000  0.764100  1.0
  C  C615  1  0.240700  0.134400  0.260100  1.0
  C  C616  1  0.259300  0.365600  0.260100  1.0
  C  C617  1  0.365600  0.240700  0.260100  1.0
  C  C618  1  0.134400  0.259300  0.260100  1.0
  C  C619  1  0.759300  0.865600  0.739900  1.0
  C  C620  1  0.740700  0.634400  0.739900  1.0
  C  C621  1  0.634400  0.759300  0.739900  1.0
  C  C622  1  0.865600  0.740700  0.739900  1.0
  C  C623  1  0.269200  0.102900  0.281600  1.0
  C  C624  1  0.230800  0.397100  0.281600  1.0
  C  C625  1  0.397100  0.269200  0.281600  1.0
  C  C626  1  0.102900  0.230800  0.281600  1.0
  C  C627  1  0.730800  0.897100  0.718400  1.0
  C  C628  1  0.769200  0.602900  0.718400  1.0
  C  C629  1  0.602900  0.730800  0.718400  1.0
  C  C630  1  0.897100  0.769200  0.718400  1.0
  C  C631  1  0.281100  0.046200  0.277800  1.0
  C  C632  1  0.218900  0.453800  0.277800  1.0
  C  C633  1  0.453800  0.281100  0.277800  1.0
  C  C634  1  0.046200  0.218900  0.277800  1.0
  C  C635  1  0.718900  0.953800  0.722200  1.0
  C  C636  1  0.781100  0.546200  0.722200  1.0
  C  C637  1  0.546200  0.718900  0.722200  1.0
  C  C638  1  0.953800  0.781100  0.722200  1.0
  C  C639  1  0.266800  0.019700  0.252700  1.0
  C  C640  1  0.233200  0.480300  0.252700  1.0
  C  C641  1  0.480300  0.266800  0.252700  1.0
  C  C642  1  0.019700  0.233200  0.252700  1.0
  C  C643  1  0.733200  0.980300  0.747300  1.0
  C  C644  1  0.766800  0.519700  0.747300  1.0
  C  C645  1  0.519700  0.733200  0.747300  1.0
  C  C646  1  0.980300  0.766800  0.747300  1.0
  C  C647  1  0.281800  0.957500  0.246900  1.0
  C  C648  1  0.218200  0.542500  0.246900  1.0
  C  C649  1  0.542500  0.281800  0.246900  1.0
  C  C650  1  0.957500  0.218200  0.246900  1.0
  C  C651  1  0.718200  0.042500  0.753100  1.0
  C  C652  1  0.781800  0.457500  0.753100  1.0
  C  C653  1  0.457500  0.718200  0.753100  1.0
  C  C654  1  0.042500  0.781800  0.753100  1.0
  C  C655  1  0.133200  0.139000  0.880600  1.0
  C  C656  1  0.366800  0.361000  0.880600  1.0
  C  C657  1  0.361000  0.133200  0.880600  1.0
  C  C658  1  0.139000  0.366800  0.880600  1.0
  C  C659  1  0.866800  0.861000  0.119400  1.0
  C  C660  1  0.633200  0.639000  0.119400  1.0
  C  C661  1  0.639000  0.866800  0.119400  1.0
  C  C662  1  0.861000  0.633200  0.119400  1.0
  C  C663  1  0.150200  0.160400  0.854100  1.0
  C  C664  1  0.349800  0.339600  0.854100  1.0
  C  C665  1  0.339600  0.150200  0.854100  1.0
  C  C666  1  0.160400  0.349800  0.854100  1.0
  C  C667  1  0.849800  0.839600  0.145900  1.0
  C  C668  1  0.650200  0.660400  0.145900  1.0
  C  C669  1  0.660400  0.849800  0.145900  1.0
  C  C670  1  0.839600  0.650200  0.145900  1.0
  C  C671  1  0.109000  0.181000  0.835000  1.0
  C  C672  1  0.391000  0.319000  0.835000  1.0
  C  C673  1  0.319000  0.109000  0.835000  1.0
  C  C674  1  0.181000  0.391000  0.835000  1.0
  C  C675  1  0.891000  0.819000  0.165000  1.0
  C  C676  1  0.609000  0.681000  0.165000  1.0
  C  C677  1  0.681000  0.891000  0.165000  1.0
  C  C678  1  0.819000  0.609000  0.165000  1.0
  C  C679  1  0.050700  0.180100  0.842400  1.0
  C  C680  1  0.449300  0.319900  0.842400  1.0
  C  C681  1  0.319900  0.050700  0.842400  1.0
  C  C682  1  0.180100  0.449300  0.842400  1.0
  C  C683  1  0.949300  0.819900  0.157600  1.0
  C  C684  1  0.550700  0.680100  0.157600  1.0
  C  C685  1  0.680100  0.949300  0.157600  1.0
  C  C686  1  0.819900  0.550700  0.157600  1.0
  C  C687  1  0.033700  0.158700  0.868900  1.0
  C  C688  1  0.466300  0.341300  0.868900  1.0
  C  C689  1  0.341300  0.033700  0.868900  1.0
  C  C690  1  0.158700  0.466300  0.868900  1.0
  C  C691  1  0.966300  0.841300  0.131100  1.0
  C  C692  1  0.533700  0.658700  0.131100  1.0
  C  C693  1  0.658700  0.966300  0.131100  1.0
  C  C694  1  0.841300  0.533700  0.131100  1.0
  C  C695  1  0.969900  0.154100  0.878600  1.0
  C  C696  1  0.530100  0.345900  0.878600  1.0
  C  C697  1  0.345900  0.969900  0.878600  1.0
  C  C698  1  0.154100  0.530100  0.878600  1.0
  C  C699  1  0.030100  0.845900  0.121400  1.0
  C  C700  1  0.469900  0.654100  0.121400  1.0
  C  C701  1  0.654100  0.030100  0.121400  1.0
  C  C702  1  0.845900  0.469900  0.121400  1.0
  C  C703  1  0.166000  0.126400  0.904100  1.0
  C  C704  1  0.334000  0.373600  0.904100  1.0
  C  C705  1  0.373600  0.166000  0.904100  1.0
  C  C706  1  0.126400  0.334000  0.904100  1.0
  C  C707  1  0.834000  0.873600  0.095900  1.0
  C  C708  1  0.666000  0.626400  0.095900  1.0
  C  C709  1  0.626400  0.834000  0.095900  1.0
  C  C710  1  0.873600  0.666000  0.095900  1.0
  N  N711  1  0.250000  0.250000  0.088300  1
  N  N712  1  0.750000  0.750000  0.911700  1
  N  N713  1  0.250000  0.250000  0.224500  1
  N  N714  1  0.750000  0.750000  0.775500  1
  N  N715  1  0.250000  0.250000  0.009800  1
  N  N716  1  0.750000  0.750000  0.990200  1
  N  N717  1  0.250000  0.250000  0.876300  1
  N  N718  1  0.750000  0.750000  0.123700  1
  N  N719  1  0.946500  0.292400  0.172300  1.0
  N  N720  1  0.553500  0.207600  0.172300  1.0
  N  N721  1  0.207600  0.946500  0.172300  1.0
  N  N722  1  0.292400  0.553500  0.172300  1.0
  N  N723  1  0.053500  0.707600  0.827700  1.0
  N  N724  1  0.446500  0.792400  0.827700  1.0
  N  N725  1  0.792400  0.053500  0.827700  1.0
  N  N726  1  0.707600  0.446500  0.827700  1.0
  N  N727  1  0.442600  0.005300  0.946970  1.0
  N  N728  1  0.057400  0.494700  0.946970  1.0
  N  N729  1  0.494700  0.442600  0.946970  1.0
  N  N730  1  0.005300  0.057400  0.946970  1.0
  N  N731  1  0.557400  0.994700  0.053030  1.0
  N  N732  1  0.942600  0.505300  0.053030  1.0
  N  N733  1  0.505300  0.557400  0.053030  1.0
  N  N734  1  0.994700  0.942600  0.053030  1.0
  N  N735  1  0.179700  0.106700  0.190000  1.0
  N  N736  1  0.320300  0.393300  0.190000  1.0
  N  N737  1  0.393300  0.179700  0.190000  1.0
  N  N738  1  0.106700  0.320300  0.190000  1.0
  N  N739  1  0.820300  0.893300  0.810000  1.0
  N  N740  1  0.679700  0.606700  0.810000  1.0
  N  N741  1  0.606700  0.820300  0.810000  1.0
  N  N742  1  0.893300  0.679700  0.810000  1.0
  N  N743  1  0.238600  0.047600  0.231900  1.0
  N  N744  1  0.261400  0.452400  0.231900  1.0
  N  N745  1  0.452400  0.238600  0.231900  1.0
  N  N746  1  0.047600  0.261400  0.231900  1.0
  N  N747  1  0.761400  0.952400  0.768100  1.0
  N  N748  1  0.738600  0.547600  0.768100  1.0
  N  N749  1  0.547600  0.761400  0.768100  1.0
  N  N750  1  0.952400  0.738600  0.768100  1.0
  N  N751  1  0.075000  0.138200  0.888000  1.0
  N  N752  1  0.425000  0.361800  0.888000  1.0
  N  N753  1  0.361800  0.075000  0.888000  1.0
  N  N754  1  0.138200  0.425000  0.888000  1.0
  N  N755  1  0.925000  0.861800  0.112000  1.0
  N  N756  1  0.575000  0.638200  0.112000  1.0
  N  N757  1  0.638200  0.925000  0.112000  1.0
  N  N758  1  0.861800  0.575000  0.112000  1.0
  N  N759  1  0.026400  0.209100  0.160800  1.0
  N  N760  1  0.473600  0.290900  0.160800  1.0
  N  N761  1  0.290900  0.026400  0.160800  1.0
  N  N762  1  0.209100  0.473600  0.160800  1.0
  N  N763  1  0.973600  0.790900  0.839200  1.0
  N  N764  1  0.526400  0.709100  0.839200  1.0
  N  N765  1  0.709100  0.973600  0.839200  1.0
  N  N766  1  0.790900  0.526400  0.839200  1.0
  N  N767  1  0.333100  0.030100  0.960310  1.0
  N  N768  1  0.166900  0.469900  0.960310  1.0
  N  N769  1  0.469900  0.333100  0.960310  1.0
  N  N770  1  0.030100  0.166900  0.960310  1.0
  N  N771  1  0.666900  0.969900  0.039690  1.0
  N  N772  1  0.833100  0.530100  0.039690  1.0
  N  N773  1  0.530100  0.666900  0.039690  1.0
  N  N774  1  0.969900  0.833100  0.039690  1.0
  N  N775  1  0.150100  0.111600  0.927920  1.0
  N  N776  1  0.349900  0.388400  0.927920  1.0
  N  N777  1  0.388400  0.150100  0.927920  1.0
  N  N778  1  0.111600  0.349900  0.927920  1.0
  N  N779  1  0.849900  0.888400  0.072080  1.0
  N  N780  1  0.650100  0.611600  0.072080  1.0
  N  N781  1  0.611600  0.849900  0.072080  1.0
  N  N782  1  0.888400  0.650100  0.072080  1.0
  F  F783  1  0.662300  0.995300  0.945090  1
  F  F784  1  0.837700  0.504700  0.945090  1
  F  F785  1  0.504700  0.662300  0.945090  1
  F  F786  1  0.995300  0.837700  0.945090  1
  F  F787  1  0.337700  0.004700  0.054910  1
  F  F788  1  0.162300  0.495300  0.054910  1
  F  F789  1  0.495300  0.337700  0.054910  1
  F  F790  1  0.004700  0.162300  0.054910  1
  F  F791  1  0.626000  0.086000  0.953430  1
  F  F792  1  0.874000  0.414000  0.953430  1
  F  F793  1  0.414000  0.626000  0.953430  1
  F  F794  1  0.086000  0.874000  0.953430  1
  F  F795  1  0.374000  0.914000  0.046570  1
  F  F796  1  0.126000  0.586000  0.046570  1
  F  F797  1  0.586000  0.374000  0.046570  1
  F  F798  1  0.914000  0.126000  0.046570  1
  F  F799  1  0.718600  0.063800  0.967070  1
  F  F800  1  0.781400  0.436200  0.967070  1
  F  F801  1  0.436200  0.718600  0.967070  1
  F  F802  1  0.063800  0.781400  0.967070  1
  F  F803  1  0.281400  0.936200  0.032930  1
  F  F804  1  0.218600  0.563800  0.032930  1
  F  F805  1  0.563800  0.281400  0.032930  1
  F  F806  1  0.936200  0.218600  0.032930  1
  F  F807  1  0.696300  0.072800  0.919560  1
  F  F808  1  0.803700  0.427200  0.919560  1
  F  F809  1  0.427200  0.696300  0.919560  1
  F  F810  1  0.072800  0.803700  0.919560  1
  F  F811  1  0.303700  0.927200  0.080440  1
  F  F812  1  0.196300  0.572800  0.080440  1
  F  F813  1  0.572800  0.303700  0.080440  1
  F  F814  1  0.927200  0.196300  0.080440  1
