# generated using pymatgen
data_V16H174C118Br8N18Cl4O121
_symmetry_space_group_name_H-M   'P 1'
_cell_length_a   15.19750000
_cell_length_b   19.15320000
_cell_length_c   19.31150000
_cell_angle_alpha   103.81730000
_cell_angle_beta   95.32940000
_cell_angle_gamma   98.34780000
_symmetry_Int_Tables_number   1
_chemical_formula_structural   V16H174C118Br8N18Cl4O121
_chemical_formula_sum   'V16 H174 C118 Br8 N18 Cl4 O121'
_cell_volume   5352.89986472
_cell_formula_units_Z   1
loop_
 _symmetry_equiv_pos_site_id
 _symmetry_equiv_pos_as_xyz
  1  'x, y, z'
loop_
 _atom_site_type_symbol
 _atom_site_label
 _atom_site_symmetry_multiplicity
 _atom_site_fract_x
 _atom_site_fract_y
 _atom_site_fract_z
 _atom_site_occupancy
  V  V1  1  0.916160  0.715270  0.382980  1.0
  V  V2  1  0.083840  0.284730  0.617020  1.0
  V  V3  1  0.209880  0.354180  0.771610  1.0
  V  V4  1  0.790120  0.645820  0.228390  1.0
  V  V5  1  0.205580  0.157390  0.577950  1.0
  V  V6  1  0.794420  0.842610  0.422050  1.0
  V  V7  1  0.337210  0.231440  0.729310  1.0
  V  V8  1  0.662790  0.768560  0.270690  1.0
  V  V9  1  0.581260  0.234100  0.109690  1.0
  V  V10  1  0.418740  0.765900  0.890310  1.0
  V  V11  1  0.404380  0.085630  0.216400  1.0
  V  V12  1  0.595620  0.914370  0.783600  1.0
  V  V13  1  0.365950  0.185070  0.105470  1.0
  V  V14  1  0.634050  0.814930  0.894530  1.0
  V  V15  1  0.619570  0.131560  0.217360  1.0
  V  V16  1  0.380430  0.868440  0.782640  1.0
  H  H17  1  0.670400  0.570900  0.012000  1
  H  H18  1  0.329600  0.429100  0.988000  1
  H  H19  1  0.565800  0.540100  0.986700  1
  H  H20  1  0.434200  0.459900  0.013300  1
  H  H21  1  0.606100  0.554500  0.069400  1
  H  H22  1  0.393900  0.445500  0.930600  1
  H  H23  1  0.667700  0.736800  0.102100  1
  H  H24  1  0.332300  0.263200  0.897900  1
  H  H25  1  0.633500  0.743600  0.023400  1
  H  H26  1  0.366500  0.256400  0.976600  1
  H  H27  1  0.713000  0.699300  0.034400  1
  H  H28  1  0.287000  0.300700  0.965600  1
  H  H29  1  0.509800  0.720400  0.063300  1
  H  H30  1  0.490200  0.279600  0.936700  1
  H  H31  1  0.485100  0.102100  0.681000  1
  H  H32  1  0.514900  0.897900  0.319000  1
  H  H33  1  0.532200  0.032900  0.653400  1
  H  H34  1  0.467800  0.967100  0.346600  1
  H  H35  1  0.472300  0.035200  0.717500  1
  H  H36  1  0.527700  0.964800  0.282500  1
  H  H37  1  0.314200  0.952500  0.665900  1
  H  H38  1  0.685800  0.047500  0.334100  1
  H  H39  1  0.265100  0.992000  0.613100  1
  H  H40  1  0.734900  0.008000  0.386900  1
  H  H41  1  0.310300  0.037700  0.692200  1
  H  H42  1  0.689700  0.962300  0.307800  1
  H  H43  1  0.468800  0.019800  0.551400  1
  H  H44  1  0.531200  0.980200  0.448600  1
  H  H45  1  0.274000  0.524000  0.885800  1
  H  H46  1  0.726000  0.476000  0.114200  1
  H  H47  1  0.311500  0.609900  0.909200  1
  H  H48  1  0.688500  0.390100  0.090800  1
  H  H49  1  0.208900  0.580200  0.875000  1
  H  H50  1  0.791100  0.419800  0.125000  1
  H  H51  1  0.183100  0.511300  0.038700  1
  H  H52  1  0.816900  0.488700  0.961300  1
  H  H53  1  0.183000  0.468500  0.956600  1
  H  H54  1  0.817000  0.531500  0.043400  1
  H  H55  1  0.113300  0.522800  0.976800  1
  H  H56  1  0.886700  0.477200  0.023200  1
  H  H57  1  0.208300  0.616000  0.990000  1
  H  H58  1  0.791700  0.384000  0.010000  1
  H  H59  1  0.285700  0.583200  0.007900  1
  H  H60  1  0.714300  0.416800  0.992100  1
  H  H61  1  0.071200  0.788600  0.541600  1
  H  H62  1  0.928800  0.211400  0.458400  1
  H  H63  1  0.164500  0.843200  0.570600  1
  H  H64  1  0.835500  0.156800  0.429400  1
  H  H65  1  0.095900  0.857700  0.509600  1
  H  H66  1  0.904100  0.142300  0.490400  1
  H  H67  1  0.993300  0.929600  0.543400  1
  H  H68  1  0.006700  0.070400  0.456600  1
  H  H69  1  0.084400  0.824000  0.678600  1
  H  H70  1  0.915600  0.176000  0.321400  1
  H  H71  1  0.037700  0.892700  0.709200  1
  H  H72  1  0.962300  0.107300  0.290800  1
  H  H73  1  0.142000  0.904800  0.700000  1
  H  H74  1  0.858000  0.095200  0.300000  1
  H  H75  1  0.763900  0.936700  0.580400  1
  H  H76  1  0.236100  0.063300  0.419600  1
  H  H77  1  0.688000  0.960200  0.628800  1
  H  H78  1  0.312000  0.039800  0.371200  1
  H  H79  1  0.785900  0.958800  0.666300  1
  H  H80  1  0.214100  0.041200  0.333700  1
  H  H81  1  0.840900  0.058700  0.638900  1
  H  H82  1  0.159100  0.941300  0.361100  1
  H  H83  1  0.769700  0.050200  0.578700  1
  H  H84  1  0.230300  0.949800  0.421300  1
  H  H85  1  0.688100  0.063700  0.692000  1
  H  H86  1  0.311900  0.936300  0.308000  1
  H  H87  1  0.701900  0.122200  0.645200  1
  H  H88  1  0.298100  0.877800  0.354800  1
  H  H89  1  0.775200  0.126300  0.711800  1
  H  H90  1  0.224800  0.873700  0.288200  1
  H  H91  1  0.853700  0.321600  0.760200  1
  H  H92  1  0.146300  0.678400  0.239800  1
  H  H93  1  0.925700  0.329100  0.828700  1
  H  H94  1  0.074300  0.670900  0.171300  1
  H  H95  1  0.950300  0.299900  0.749300  1
  H  H96  1  0.049700  0.700100  0.250700  1
  H  H97  1  0.905500  0.384900  0.672700  1
  H  H98  1  0.094500  0.615100  0.327300  1
  H  H99  1  0.995900  0.444000  0.696000  1
  H  H100  1  0.004100  0.556000  0.304000  1
  H  H101  1  0.902300  0.466700  0.716000  1
  H  H102  1  0.097700  0.533300  0.284000  1
  H  H103  1  0.000400  0.451500  0.879800  1
  H  H104  1  0.999600  0.548500  0.120200  1
  H  H105  1  0.247400  0.848100  0.164700  1
  H  H106  1  0.752600  0.151900  0.835300  1
  H  H107  1  0.244600  0.781100  0.096300  1
  H  H108  1  0.755400  0.218900  0.903700  1
  H  H109  1  0.230200  0.766200  0.172900  1
  H  H110  1  0.769800  0.233800  0.827100  1
  H  H111  1  0.413800  0.831600  0.084000  1
  H  H112  1  0.586200  0.168400  0.916000  1
  H  H113  1  0.416500  0.898700  0.152400  1
  H  H114  1  0.583500  0.101300  0.847600  1
  H  H115  1  0.483800  0.842000  0.154500  1
  H  H116  1  0.516200  0.158000  0.845500  1
  H  H117  1  0.445100  0.765500  0.217700  1
  H  H118  1  0.554900  0.234500  0.782300  1
  H  H119  1  0.390200  0.052400  0.933600  1
  H  H120  1  0.609800  0.947600  0.066400  1
  H  H121  1  0.397000  0.130600  0.916400  1
  H  H122  1  0.603000  0.869400  0.083600  1
  H  H123  1  0.399800  0.059500  0.853700  1
  H  H124  1  0.600200  0.940500  0.146300  1
  H  H125  1  0.207300  0.967700  0.880300  1
  H  H126  1  0.792700  0.032300  0.119700  1
  H  H127  1  0.173600  0.034100  0.932200  1
  H  H128  1  0.826400  0.965900  0.067800  1
  H  H129  1  0.265300  0.009400  0.956200  1
  H  H130  1  0.734700  0.990600  0.043800  1
  H  H131  1  0.268900  0.100000  0.795900  1
  H  H132  1  0.731100  0.900000  0.204100  1
  H  H133  1  0.193600  0.087200  0.111000  1
  H  H134  1  0.806400  0.912800  0.889000  1
  H  H135  1  0.095100  0.083700  0.071600  1
  H  H136  1  0.904900  0.916300  0.928400  1
  H  H137  1  0.154800  0.024700  0.039100  1
  H  H138  1  0.845200  0.975300  0.960900  1
  H  H139  1  0.200800  0.028800  0.201300  1
  H  H140  1  0.799200  0.971200  0.798700  1
  H  H141  1  0.985500  0.986500  0.059600  1
  H  H142  1  0.014500  0.013500  0.940400  1
  H  H143  1  0.972800  0.993400  0.142200  1
  H  H144  1  0.027200  0.006600  0.857800  1
  H  H145  1  0.001600  0.921400  0.095400  1
  H  H146  1  0.998400  0.078600  0.904600  1
  H  H147  1  0.270700  0.551600  0.999100  1
  H  H148  1  0.729300  0.448400  0.000900  1
  H  H149  1  0.177300  0.550700  0.971700  1
  H  H150  1  0.822700  0.449300  0.028300  1
  H  H151  1  0.284900  0.684100  0.016800  1
  H  H152  1  0.715100  0.315900  0.983200  1
  H  H153  1  0.246400  0.645800  0.075500  1
  H  H154  1  0.753600  0.354200  0.924500  1
  H  H155  1  0.178900  0.661000  0.014300  1
  H  H156  1  0.821100  0.339000  0.985700  1
  H  H157  1  0.783800  0.073000  0.670200  1
  H  H158  1  0.216200  0.927000  0.329800  1
  H  H159  1  0.736200  0.057900  0.597400  1
  H  H160  1  0.263800  0.942100  0.402600  1
  H  H161  1  0.915700  0.061700  0.630500  1
  H  H162  1  0.084300  0.938300  0.369500  1
  H  H163  1  0.871500  0.119100  0.596700  1
  H  H164  1  0.128500  0.880900  0.403300  1
  H  H165  1  0.866200  0.037200  0.549500  1
  H  H166  1  0.133800  0.962800  0.450500  1
  H  H167  1  0.918500  0.506500  0.434200  1.0
  H  H168  1  0.081500  0.493500  0.565800  1.0
  H  H169  1  0.582600  0.235500  0.633300  1.0
  H  H170  1  0.417400  0.764500  0.366700  1.0
  H  H171  1  0.810200  0.292600  0.370200  1.0
  H  H172  1  0.189800  0.707400  0.629800  1.0
  H  H173  1  0.586200  0.385000  0.784900  1.0
  H  H174  1  0.413800  0.615000  0.215100  1.0
  H  H175  1  0.424000  0.535400  0.835700  1.0
  H  H176  1  0.576000  0.464600  0.164300  1.0
  H  H177  1  0.692400  0.600300  0.847500  1.0
  H  H178  1  0.307600  0.399700  0.152500  1.0
  H  H179  1  0.941200  0.680200  0.596700  1.0
  H  H180  1  0.058800  0.319800  0.403300  1.0
  H  H181  1  0.751800  0.427800  0.246200  1.0
  H  H182  1  0.248200  0.572200  0.753800  1.0
  H  H183  1  0.683600  0.197200  0.442800  1.0
  H  H184  1  0.316400  0.802800  0.557200  1.0
  H  H185  1  0.414300  0.144700  0.446700  1.0
  H  H186  1  0.585700  0.855300  0.553300  1.0
  H  H187  1  0.835600  0.716900  0.784400  1.0
  H  H188  1  0.164400  0.283100  0.215600  1.0
  H  H189  1  0.759800  0.815300  0.630100  1.0
  H  H190  1  0.240200  0.184700  0.369900  1.0
  C  C191  1  0.610000  0.571800  0.025800  1
  C  C192  1  0.390000  0.428200  0.974200  1
  C  C193  1  0.657000  0.711600  0.050700  1
  C  C194  1  0.343000  0.288400  0.949300  1
  C  C195  1  0.516000  0.671000  0.047900  1
  C  C196  1  0.484000  0.329000  0.952100  1
  C  C197  1  0.478800  0.048900  0.672300  1
  C  C198  1  0.521200  0.951100  0.327700  1
  C  C199  1  0.315400  0.997900  0.650900  1
  C  C200  1  0.684600  0.002100  0.349100  1
  C  C201  1  0.408500  0.002700  0.556600  1
  C  C202  1  0.591500  0.997300  0.443400  1
  C  C203  1  0.259200  0.572200  0.906100  1
  C  C204  1  0.740800  0.427800  0.093900  1
  C  C205  1  0.174000  0.514000  0.989000  1
  C  C206  1  0.826000  0.486000  0.011000  1
  C  C207  1  0.101000  0.839600  0.553000  1
  C  C208  1  0.899000  0.160400  0.447000  1
  C  C209  1  0.004600  0.924500  0.591000  1
  C  C210  1  0.995400  0.075500  0.409000  1
  C  C211  1  0.083000  0.875200  0.679600  1
  C  C212  1  0.917000  0.124800  0.320400  1
  C  C213  1  0.752300  0.968900  0.625000  1
  C  C214  1  0.247700  0.031100  0.375000  1
  C  C215  1  0.732000  0.093000  0.672000  1
  C  C216  1  0.268000  0.907000  0.328000  1
  C  C217  1  0.917700  0.333600  0.779100  1
  C  C218  1  0.082300  0.666400  0.220900  1
  C  C219  1  0.937800  0.427300  0.710100  1
  C  C220  1  0.062200  0.572700  0.289900  1
  C  C221  1  0.995000  0.458100  0.832500  1
  C  C222  1  0.005000  0.541900  0.167500  1
  C  C223  1  0.262300  0.799000  0.148000  1
  C  C224  1  0.737700  0.201000  0.852000  1
  C  C225  1  0.423000  0.847400  0.136700  1
  C  C226  1  0.577000  0.152600  0.863300  1
  C  C227  1  0.382400  0.763800  0.206800  1
  C  C228  1  0.617600  0.236200  0.793200  1
  C  C229  1  0.374000  0.078000  0.898000  1
  C  C230  1  0.626000  0.922000  0.102000  1
  C  C231  1  0.226000  0.015000  0.915000  1
  C  C232  1  0.774000  0.985000  0.085000  1
  C  C233  1  0.233000  0.088000  0.830000  1
  C  C234  1  0.767000  0.912000  0.170000  1
  C  C235  1  0.139000  0.055000  0.084000  1
  C  C236  1  0.861000  0.945000  0.916000  1
  C  C237  1  0.144000  0.999000  0.183000  1
  C  C238  1  0.856000  0.001000  0.817000  1
  C  C239  1  0.008000  0.975000  0.104000  1
  C  C240  1  0.992000  0.025000  0.896000  1
  C  C241  1  0.238000  0.648000  0.025000  1
  C  C242  1  0.762000  0.352000  0.975000  1
  C  C243  1  0.866000  0.068000  0.598000  1
  C  C244  1  0.134000  0.932000  0.402000  1
  C  C245  1  0.844600  0.554700  0.327400  1.0
  C  C246  1  0.155400  0.445300  0.672600  1.0
  C  C247  1  0.880000  0.467300  0.400300  1.0
  C  C248  1  0.120000  0.532700  0.599700  1.0
  C  C249  1  0.412700  0.391900  0.787200  1.0
  C  C250  1  0.587300  0.608100  0.212800  1.0
  C  C251  1  0.407700  0.190500  0.587300  1.0
  C  C252  1  0.592300  0.809500  0.412700  1.0
  C  C253  1  0.850900  0.757400  0.526900  1.0
  C  C254  1  0.149100  0.242600  0.473100  1.0
  C  C255  1  0.834800  0.479000  0.339500  1.0
  C  C256  1  0.165200  0.521000  0.660500  1.0
  C  C257  1  0.572800  0.217700  0.582400  1.0
  C  C258  1  0.427200  0.782300  0.417600  1.0
  C  C259  1  0.492200  0.450300  0.806500  1.0
  C  C260  1  0.507800  0.549700  0.193500  1.0
  C  C261  1  0.772100  0.350900  0.299500  1.0
  C  C262  1  0.227900  0.649100  0.700500  1.0
  C  C263  1  0.816300  0.339900  0.362000  1.0
  C  C264  1  0.183700  0.660100  0.638000  1.0
  C  C265  1  0.868200  0.398000  0.410800  1.0
  C  C266  1  0.131800  0.602000  0.589200  1.0
  C  C267  1  0.548200  0.166000  0.435000  1.0
  C  C268  1  0.451800  0.834000  0.565000  1.0
  C  C269  1  0.786600  0.771600  0.714100  1.0
  C  C270  1  0.213400  0.228400  0.285900  1.0
  C  C271  1  0.577700  0.434300  0.800000  1.0
  C  C272  1  0.422300  0.565700  0.200000  1.0
  C  C273  1  0.486500  0.190000  0.547800  1.0
  C  C274  1  0.513500  0.810000  0.452200  1.0
  C  C275  1  0.482000  0.523600  0.830000  1.0
  C  C276  1  0.518000  0.476400  0.170000  1.0
  C  C277  1  0.534200  0.140900  0.352700  1.0
  C  C278  1  0.465800  0.859100  0.647300  1.0
  C  C279  1  0.641500  0.562500  0.837600  1.0
  C  C280  1  0.358500  0.437500  0.162400  1.0
  C  C281  1  0.555900  0.578300  0.844700  1.0
  C  C282  1  0.444100  0.421700  0.155300  1.0
  C  C283  1  0.901200  0.702800  0.626100  1.0
  C  C284  1  0.098800  0.297200  0.373900  1.0
  C  C285  1  0.711500  0.287800  0.246200  1.0
  C  C286  1  0.288500  0.712200  0.753800  1.0
  C  C287  1  0.781600  0.420200  0.288500  1.0
  C  C288  1  0.218400  0.579800  0.711500  1.0
  C  C289  1  0.634000  0.194700  0.469200  1.0
  C  C290  1  0.366000  0.805300  0.530800  1.0
  C  C291  1  0.472800  0.163600  0.471900  1.0
  C  C292  1  0.527200  0.836400  0.528100  1.0
  C  C293  1  0.838800  0.725300  0.738100  1.0
  C  C294  1  0.161200  0.274700  0.261900  1.0
  C  C295  1  0.847500  0.747600  0.601400  1.0
  C  C296  1  0.152500  0.252400  0.398600  1.0
  C  C297  1  0.546100  0.657800  0.866100  1.0
  C  C298  1  0.453900  0.342200  0.133900  1.0
  C  C299  1  0.725600  0.807200  0.761500  1.0
  C  C300  1  0.274400  0.192800  0.238500  1.0
  C  C301  1  0.793400  0.782700  0.646100  1.0
  C  C302  1  0.206600  0.217300  0.353900  1.0
  C  C303  1  0.645200  0.219800  0.543800  1.0
  C  C304  1  0.354800  0.780200  0.456200  1.0
  C  C305  1  0.895300  0.691900  0.693300  1.0
  C  C306  1  0.104700  0.308100  0.306700  1.0
  C  C307  1  0.650100  0.490400  0.815800  1.0
  C  C308  1  0.349900  0.509600  0.184200  1.0
  Br  Br309  1  0.928000  0.380890  0.494450  1.0
  Br  Br310  1  0.072000  0.619110  0.505550  1.0
  Br  Br311  1  0.763590  0.257740  0.590690  1.0
  Br  Br312  1  0.236410  0.742260  0.409310  1.0
  Br  Br313  1  0.963800  0.628920  0.727450  1.0
  Br  Br314  1  0.036200  0.371080  0.272550  1.0
  Br  Br315  1  0.765840  0.467910  0.804310  1.0
  Br  Br316  1  0.234160  0.532090  0.195690  1.0
  N  N317  1  0.592200  0.645800  0.039500  1
  N  N318  1  0.407800  0.354200  0.960500  1
  N  N319  1  0.399400  0.015200  0.623200  1
  N  N320  1  0.600600  0.984800  0.376800  1
  N  N321  1  0.234000  0.575700  0.977000  1
  N  N322  1  0.766000  0.424300  0.023000  1
  N  N323  1  0.060000  0.882000  0.606400  1
  N  N324  1  0.940000  0.118000  0.393600  1
  N  N325  1  0.780800  0.045400  0.624300  1
  N  N326  1  0.219200  0.954600  0.375700  1
  N  N327  1  0.952000  0.407000  0.777700  1
  N  N328  1  0.048000  0.593000  0.222300  1
  N  N329  1  0.358900  0.803500  0.165100  1
  N  N330  1  0.641100  0.196500  0.834900  1
  N  N331  1  0.276000  0.066600  0.881000  1
  N  N332  1  0.724000  0.933400  0.119000  1
  N  N333  1  0.103000  0.008100  0.125700  1
  N  N334  1  0.897000  0.991900  0.874300  1
  Cl  Cl335  1  0.273970  0.311080  0.634830  1
  Cl  Cl336  1  0.726030  0.688920  0.365170  1
  Cl  Cl337  1  0.493670  0.230110  0.232280  1
  Cl  Cl338  1  0.506330  0.769890  0.767720  1
  O  O339  1  0.444000  0.606000  0.028500  1
  O  O340  1  0.556000  0.394000  0.971500  1
  O  O341  1  0.366500  0.976800  0.499400  1
  O  O342  1  0.633500  0.023200  0.500600  1
  O  O343  1  0.966000  0.958800  0.642000  1
  O  O344  1  0.034000  0.041200  0.358000  1
  O  O345  1  0.028000  0.517600  0.819000  1
  O  O346  1  0.972000  0.482400  0.181000  1
  O  O347  1  0.338000  0.728000  0.231400  1
  O  O348  1  0.662000  0.272000  0.768600  1
  O  O349  1  0.158000  0.096000  0.819000  1
  O  O350  1  0.842000  0.904000  0.181000  1
  O  O351  1  0.430000  0.320000  0.422000  1
  O  O352  1  0.570000  0.680000  0.578000  1
  O  O353  1  0.445000  0.385000  0.399000  1
  O  O354  1  0.555000  0.615000  0.601000  1
  O  O355  1  0.516000  0.477000  0.358000  1
  O  O356  1  0.484000  0.523000  0.642000  1
  O  O357  1  0.082000  0.306000  0.018000  1
  O  O358  1  0.918000  0.694000  0.982000  1
  O  O359  1  0.855000  0.213000  0.111000  1
  O  O360  1  0.145000  0.787000  0.889000  1
  O  O361  1  0.116000  0.955000  0.217000  1
  O  O362  1  0.884000  0.045000  0.783000  1
  O  O363  1  0.097000  0.150500  0.750600  1
  O  O364  1  0.903000  0.849500  0.249400  1
  O  O365  1  0.045000  0.171000  0.757000  1
  O  O366  1  0.955000  0.829000  0.243000  1
  O  O367  1  0.739000  0.567000  0.498900  1
  O  O368  1  0.261000  0.433000  0.501100  1
  O  O369  1  0.734000  0.515000  0.526000  1
  O  O370  1  0.266000  0.485000  0.474000  1
  O  O371  1  0.773000  0.507000  0.579000  1
  O  O372  1  0.227000  0.493000  0.421000  1
  O  O373  1  0.584000  0.438000  0.337000  1
  O  O374  1  0.416000  0.562000  0.663000  1
  O  O375  1  0.595000  0.354000  0.413000  1
  O  O376  1  0.405000  0.646000  0.587000  1
  O  O377  1  0.527000  0.399000  0.406000  1
  O  O378  1  0.473000  0.601000  0.594000  1
  O  O379  1  0.412000  0.395000  0.336000  1
  O  O380  1  0.588000  0.605000  0.664000  1
  O  O381  1  0.629000  0.433000  0.430000  1
  O  O382  1  0.371000  0.567000  0.570000  1
  O  O383  1  0.530000  0.410000  0.360000  1
  O  O384  1  0.470000  0.590000  0.640000  1
  O  O385  1  0.624000  0.470000  0.551000  1
  O  O386  1  0.376000  0.530000  0.449000  1
  O  O387  1  0.609000  0.410000  0.608000  1
  O  O388  1  0.391000  0.590000  0.392000  1
  O  O389  1  0.510000  0.414000  0.595000  1
  O  O390  1  0.490000  0.586000  0.405000  1
  O  O391  1  0.130000  0.282000  0.059000  1
  O  O392  1  0.870000  0.718000  0.941000  1
  O  O393  1  0.500000  0.000000  0.000000  1
  O  O394  1  0.883000  0.181000  0.156000  1
  O  O395  1  0.117000  0.819000  0.844000  1
  O  O396  1  0.337700  0.411900  0.794000  1.0
  O  O397  1  0.662300  0.588100  0.206000  1.0
  O  O398  1  0.803000  0.558600  0.269000  1.0
  O  O399  1  0.197000  0.441400  0.731000  1.0
  O  O400  1  0.467000  0.669600  0.872100  1.0
  O  O401  1  0.533000  0.330400  0.127900  1.0
  O  O402  1  0.888100  0.605400  0.376400  1.0
  O  O403  1  0.111900  0.394600  0.623600  1.0
  O  O404  1  0.022500  0.724800  0.396400  1.0
  O  O405  1  0.977500  0.275200  0.603600  1.0
  O  O406  1  0.426700  0.327100  0.764400  1.0
  O  O407  1  0.573300  0.672900  0.235600  1.0
  O  O408  1  0.892800  0.717900  0.486200  1.0
  O  O409  1  0.107200  0.282100  0.513800  1.0
  O  O410  1  0.809800  0.807300  0.513300  1.0
  O  O411  1  0.190200  0.192700  0.486700  1.0
  O  O412  1  0.423500  0.216500  0.654600  1.0
  O  O413  1  0.576500  0.783500  0.345400  1.0
  O  O414  1  0.616400  0.704200  0.875700  1.0
  O  O415  1  0.383600  0.295800  0.124300  1.0
  O  O416  1  0.454200  0.116400  0.323200  1.0
  O  O417  1  0.545800  0.883600  0.676800  1.0
  O  O418  1  0.674500  0.301300  0.190800  1.0
  O  O419  1  0.325500  0.698700  0.809200  1.0
  O  O420  1  0.332000  0.164400  0.549700  1.0
  O  O421  1  0.668000  0.835600  0.450300  1.0
  O  O422  1  0.715400  0.786700  0.817600  1.0
  O  O423  1  0.284600  0.213300  0.182400  1.0
  O  O424  1  0.702300  0.228000  0.264100  1.0
  O  O425  1  0.297700  0.772000  0.735900  1.0
  O  O426  1  0.686700  0.854400  0.739700  1.0
  O  O427  1  0.313300  0.145600  0.260300  1.0
  O  O428  1  0.514600  0.067900  0.196800  1.0
  O  O429  1  0.485400  0.932100  0.803200  1.0
  O  O430  1  0.177000  0.383300  0.847900  1.0
  O  O431  1  0.823000  0.616700  0.152100  1.0
  O  O432  1  0.468900  0.188500  0.066600  1.0
  O  O433  1  0.531100  0.811500  0.933400  1.0
  O  O434  1  0.604300  0.146800  0.322800  1.0
  O  O435  1  0.395700  0.853200  0.677200  1.0
  O  O436  1  0.364500  0.099900  0.130100  1.0
  O  O437  1  0.635500  0.900100  0.869900  1.0
  O  O438  1  0.381500  0.188900  0.781400  1.0
  O  O439  1  0.618500  0.811100  0.218600  1.0
  O  O440  1  0.258400  0.275600  0.781500  1.0
  O  O441  1  0.741600  0.724400  0.218500  1.0
  O  O442  1  0.104000  0.191700  0.600300  1.0
  O  O443  1  0.896000  0.808300  0.399700  1.0
  O  O444  1  0.255700  0.159300  0.667400  1.0
  O  O445  1  0.744300  0.840700  0.332600  1.0
  O  O446  1  0.107200  0.308100  0.715000  1.0
  O  O447  1  0.892800  0.691900  0.285000  1.0
  O  O448  1  0.633600  0.243900  0.043100  1.0
  O  O449  1  0.366400  0.756100  0.956900  1.0
  O  O450  1  0.693700  0.079900  0.214300  1.0
  O  O451  1  0.306300  0.920100  0.785700  1.0
  O  O452  1  0.619100  0.156300  0.132900  1.0
  O  O453  1  0.380900  0.843700  0.867100  1.0
  O  O454  1  0.170400  0.072100  0.542200  1.0
  O  O455  1  0.829600  0.927900  0.457800  1.0
  O  O456  1  0.350800  0.006100  0.214300  1.0
  O  O457  1  0.649200  0.993900  0.785700  1.0
  O  O458  1  0.290100  0.164400  0.036800  1.0
  O  O459  1  0.709900  0.835600  0.963200  1.0
