# generated using pymatgen
data_V8H93C56N7Cl4O55
_symmetry_space_group_name_H-M   'P 1'
_cell_length_a   14.92140000
_cell_length_b   16.03340000
_cell_length_c   16.77940000
_cell_angle_alpha   79.47600000
_cell_angle_beta   82.82800000
_cell_angle_gamma   81.28400000
_symmetry_Int_Tables_number   1
_chemical_formula_structural   V8H93C56N7Cl4O55
_chemical_formula_sum   'V16 H186 C112 N14 Cl8 O110'
_cell_volume   3881.66042286
_cell_formula_units_Z   2
loop_
 _symmetry_equiv_pos_site_id
 _symmetry_equiv_pos_as_xyz
  1  'x, y, z'
loop_
 _atom_site_type_symbol
 _atom_site_label
 _atom_site_symmetry_multiplicity
 _atom_site_fract_x
 _atom_site_fract_y
 _atom_site_fract_z
 _atom_site_occupancy
  V  V1  1  0.624360  0.781740  0.454690  1.0
  V  V2  1  0.375640  0.218260  0.545310  1.0
  V  V3  1  0.981750  0.738130  0.846260  1.0
  V  V4  1  0.018250  0.261870  0.153740  1.0
  V  V5  1  0.618450  0.616700  0.367770  1.0
  V  V6  1  0.381550  0.383300  0.632230  1.0
  V  V7  1  0.603820  0.356090  0.602810  1.0
  V  V8  1  0.396180  0.643910  0.397190  1.0
  V  V9  1  0.249820  0.401550  0.211040  1.0
  V  V10  1  0.750180  0.598450  0.788960  1.0
  V  V11  1  0.135920  0.413930  0.055160  1.0
  V  V12  1  0.864080  0.586070  0.944840  1.0
  V  V13  1  0.403750  0.810560  0.483090  1.0
  V  V14  1  0.596250  0.189440  0.516910  1.0
  V  V15  1  0.135200  0.247950  0.308080  1.0
  V  V16  1  0.864800  0.752050  0.691920  1.0
  H  H17  1  0.483500  0.535800  0.594500  1
  H  H18  1  0.516500  0.464200  0.405500  1
  H  H19  1  0.479900  0.625500  0.553400  1
  H  H20  1  0.520100  0.374500  0.446600  1
  H  H21  1  0.620700  0.579200  0.591800  1
  H  H22  1  0.379300  0.420800  0.408200  1
  H  H23  1  0.572100  0.654600  0.639100  1
  H  H24  1  0.427900  0.345400  0.360900  1
  H  H25  1  0.576100  0.557200  0.683700  1
  H  H26  1  0.423900  0.442800  0.316300  1
  H  H27  1  0.349600  0.610900  0.640000  1
  H  H28  1  0.650400  0.389100  0.360000  1
  H  H29  1  0.411600  0.576600  0.713500  1
  H  H30  1  0.588400  0.423400  0.286500  1
  H  H31  1  0.407700  0.674100  0.668900  1
  H  H32  1  0.592300  0.325900  0.331100  1
  H  H33  1  0.818100  0.874000  0.536400  1
  H  H34  1  0.181900  0.126000  0.463600  1
  H  H35  1  0.880100  0.939400  0.520700  1
  H  H36  1  0.119900  0.060600  0.479300  1
  H  H37  1  0.742200  0.997900  0.538700  1
  H  H38  1  0.257800  0.002100  0.461300  1
  H  H39  1  0.786600  0.027800  0.448000  1
  H  H40  1  0.213400  0.972200  0.552000  1
  H  H41  1  0.719000  0.956500  0.465000  1
  H  H42  1  0.281000  0.043500  0.535000  1
  H  H43  1  0.930000  0.841100  0.438800  1
  H  H44  1  0.070000  0.158900  0.561200  1
  H  H45  1  0.833400  0.861100  0.402300  1
  H  H46  1  0.166600  0.138900  0.597700  1
  H  H47  1  0.901000  0.932400  0.385200  1
  H  H48  1  0.099000  0.067600  0.614800  1
  H  H49  1  0.042500  0.555000  0.833900  1
  H  H50  1  0.957500  0.445000  0.166100  1
  H  H51  1  0.059000  0.547600  0.747300  1
  H  H52  1  0.941000  0.452400  0.252700  1
  H  H53  1  0.964200  0.452700  0.810700  1
  H  H54  1  0.035800  0.547300  0.189300  1
  H  H55  1  0.058100  0.402700  0.776500  1
  H  H56  1  0.941900  0.597300  0.223500  1
  H  H57  1  0.040000  0.410800  0.871000  1
  H  H58  1  0.960000  0.589200  0.129000  1
  H  H59  1  0.190000  0.569800  0.790400  1
  H  H60  1  0.810000  0.430200  0.209600  1
  H  H61  1  0.184600  0.485800  0.858000  1
  H  H62  1  0.815400  0.514200  0.142000  1
  H  H63  1  0.202600  0.477600  0.763500  1
  H  H64  1  0.797400  0.522400  0.236500  1
  H  H65  1  0.842800  0.340600  0.577400  1
  H  H66  1  0.157200  0.659400  0.422600  1
  H  H67  1  0.980600  0.265900  0.770800  1
  H  H68  1  0.019400  0.734100  0.229200  1
  H  H69  1  0.962400  0.190800  0.726200  1
  H  H70  1  0.037600  0.809200  0.273800  1
  H  H71  1  0.037000  0.251900  0.685600  1
  H  H72  1  0.963000  0.748100  0.314400  1
  H  H73  1  0.878700  0.371500  0.768600  1
  H  H74  1  0.121300  0.628500  0.231400  1
  H  H75  1  0.864400  0.431000  0.682400  1
  H  H76  1  0.135600  0.569000  0.317600  1
  H  H77  1  0.791800  0.367900  0.722900  1
  H  H78  1  0.208200  0.632100  0.277100  1
  H  H79  1  0.891200  0.617700  0.564200  1
  H  H80  1  0.108800  0.382300  0.435800  1
  H  H81  1  0.802600  0.662700  0.542700  1
  H  H82  1  0.197400  0.337300  0.457300  1
  H  H83  1  0.786800  0.532900  0.605300  1
  H  H84  1  0.213200  0.467100  0.394700  1
  H  H85  1  0.761600  0.545300  0.513500  1
  H  H86  1  0.238400  0.454700  0.486500  1
  H  H87  1  0.858700  0.495900  0.537100  1
  H  H88  1  0.141300  0.504100  0.462900  1
  H  H89  1  0.910900  0.707200  0.446000  1
  H  H90  1  0.089100  0.292800  0.554000  1
  H  H91  1  0.940500  0.610400  0.431600  1
  H  H92  1  0.059500  0.389600  0.568400  1
  H  H93  1  0.843500  0.659800  0.408000  1
  H  H94  1  0.156500  0.340200  0.592000  1
  H  H95  1  0.751900  0.372900  0.073800  1
  H  H96  1  0.248100  0.627100  0.926200  1
  H  H97  1  0.650700  0.414600  0.100400  1
  H  H98  1  0.349300  0.585400  0.899600  1
  H  H99  1  0.671800  0.314100  0.098000  1
  H  H100  1  0.328200  0.685900  0.902000  1
  H  H101  1  0.788800  0.173400  0.205200  1
  H  H102  1  0.211200  0.826600  0.794800  1
  H  H103  1  0.757900  0.136300  0.298100  1
  H  H104  1  0.242100  0.863700  0.701900  1
  H  H105  1  0.753100  0.081900  0.228000  1
  H  H106  1  0.246900  0.918100  0.772000  1
  H  H107  1  0.917300  0.104500  0.076100  1
  H  H108  1  0.082700  0.895500  0.923900  1
  H  H109  1  0.935000  0.029600  0.022300  1
  H  H110  1  0.065000  0.970400  0.977700  1
  H  H111  1  0.833000  0.069400  0.048700  1
  H  H112  1  0.167000  0.930600  0.951300  1
  H  H113  1  0.806000  0.236200  0.753600  1
  H  H114  1  0.194000  0.763800  0.246400  1
  H  H115  1  0.950000  0.011400  0.843100  1
  H  H116  1  0.050000  0.988600  0.156900  1
  H  H117  1  0.911000  0.262100  0.929500  1
  H  H118  1  0.089000  0.737900  0.070500  1
  H  H119  1  0.898800  0.286200  0.834200  1
  H  H120  1  0.101200  0.713800  0.165800  1
  H  H121  1  0.815300  0.257500  0.897800  1
  H  H122  1  0.184700  0.742500  0.102200  1
  H  H123  1  0.749400  0.034900  0.504600  1
  H  H124  1  0.250600  0.965100  0.495400  1
  H  H125  1  0.726100  0.973300  0.447100  1
  H  H126  1  0.273900  0.026700  0.552900  1
  H  H127  1  0.761100  0.933400  0.534100  1
  H  H128  1  0.238900  0.066600  0.465900  1
  H  H129  1  0.941100  0.875100  0.399300  1
  H  H130  1  0.058900  0.124900  0.600700  1
  H  H131  1  0.870400  0.842200  0.474000  1
  H  H132  1  0.129600  0.157800  0.526000  1
  H  H133  1  0.835400  0.882100  0.387000  1
  H  H134  1  0.164600  0.117900  0.613000  1
  H  H135  1  0.901700  0.977300  0.484900  1
  H  H136  1  0.098300  0.022700  0.515100  1
  H  H137  1  0.869300  0.014200  0.404300  1
  H  H138  1  0.130700  0.985800  0.595700  1
  H  H139  1  0.824700  0.652000  0.455900  1
  H  H140  1  0.175300  0.348000  0.544100  1
  H  H141  1  0.871400  0.562300  0.431500  1
  H  H142  1  0.128600  0.437700  0.568500  1
  H  H143  1  0.767000  0.573400  0.468400  1
  H  H144  1  0.233000  0.426600  0.531600  1
  H  H145  1  0.886400  0.472500  0.650600  1
  H  H146  1  0.113600  0.527500  0.349400  1
  H  H147  1  0.809500  0.449800  0.602700  1
  H  H148  1  0.190500  0.550200  0.397300  1
  H  H149  1  0.914000  0.438700  0.565700  1
  H  H150  1  0.086000  0.561300  0.434300  1
  H  H151  1  0.909700  0.581300  0.552500  1
  H  H152  1  0.090300  0.418700  0.447500  1
  H  H153  1  0.814700  0.591400  0.586100  1
  H  H154  1  0.185300  0.408600  0.413900  1
  H  H155  1  0.367900  0.402300  0.881300  1.0
  H  H156  1  0.632100  0.597700  0.118700  1.0
  H  H157  1  0.792300  0.697800  0.156400  1.0
  H  H158  1  0.207700  0.302200  0.843600  1.0
  H  H159  1  0.511100  0.396000  0.072200  1.0
  H  H160  1  0.488900  0.604000  0.927800  1.0
  H  H161  1  0.374400  0.075200  0.378600  1.0
  H  H162  1  0.625600  0.924800  0.621400  1.0
  H  H163  1  0.506600  0.256800  0.228000  1.0
  H  H164  1  0.493400  0.743200  0.772000  1.0
  H  H165  1  0.644000  0.382200  0.847200  1.0
  H  H166  1  0.356000  0.617800  0.152800  1.0
  H  H167  1  0.795300  0.024100  0.662500  1.0
  H  H168  1  0.204700  0.975900  0.337500  1.0
  H  H169  1  0.647900  0.031700  0.326000  1.0
  H  H170  1  0.352100  0.968300  0.674000  1.0
  H  H171  1  0.794100  0.908900  0.258500  1.0
  H  H172  1  0.205900  0.091100  0.741500  1.0
  H  H173  1  0.925900  0.892000  0.034800  1.0
  H  H174  1  0.074100  0.108000  0.965200  1.0
  H  H175  1  0.803000  0.366900  0.991300  1.0
  H  H176  1  0.197000  0.633100  0.008700  1.0
  H  H177  1  0.760300  0.310600  0.940000  1.0
  H  H178  1  0.239700  0.689400  0.060000  1.0
  H  H179  1  0.761600  0.410700  0.907800  1.0
  H  H180  1  0.238400  0.589300  0.092200  1.0
  H  H181  1  0.737600  0.247500  0.148100  1.0
  H  H182  1  0.262400  0.752500  0.851900  1.0
  H  H183  1  0.645100  0.225700  0.122400  1.0
  H  H184  1  0.354900  0.774300  0.877600  1.0
  H  H185  1  0.641400  0.292300  0.183500  1.0
  H  H186  1  0.358600  0.707700  0.816500  1.0
  H  H187  1  0.899400  0.092500  0.184400  1.0
  H  H188  1  0.100600  0.907500  0.815600  1.0
  H  H189  1  0.807800  0.050400  0.214000  1.0
  H  H190  1  0.192200  0.949600  0.786000  1.0
  H  H191  1  0.901200  0.006300  0.249900  1.0
  H  H192  1  0.098800  0.993700  0.750100  1.0
  H  H193  1  0.899400  0.995600  0.877800  1.0
  H  H194  1  0.100600  0.004400  0.122200  1.0
  H  H195  1  0.767500  0.225800  0.781600  1.0
  H  H196  1  0.232500  0.774200  0.218400  1.0
  H  H197  1  0.863200  0.137600  0.022100  1.0
  H  H198  1  0.136800  0.862400  0.977900  1.0
  H  H199  1  0.815700  0.063000  0.999700  1.0
  H  H200  1  0.184300  0.937000  0.000300  1.0
  H  H201  1  0.921800  0.067900  0.972700  1.0
  H  H202  1  0.078200  0.932100  0.027300  1.0
  C  C203  1  0.570300  0.595800  0.631600  1
  C  C204  1  0.429700  0.404200  0.368400  1
  C  C205  1  0.406800  0.615100  0.661200  1
  C  C206  1  0.593200  0.384900  0.338800  1
  C  C207  1  0.766600  0.979100  0.486900  1
  C  C208  1  0.233400  0.020900  0.513100  1
  C  C209  1  0.878800  0.885500  0.425200  1
  C  C210  1  0.121200  0.114500  0.574800  1
  C  C211  1  0.029800  0.439900  0.815600  1
  C  C212  1  0.970200  0.560100  0.184400  1
  C  C213  1  0.170400  0.512800  0.802900  1
  C  C214  1  0.829600  0.487200  0.197100  1
  C  C215  1  0.889700  0.300300  0.601100  1
  C  C216  1  0.110300  0.699700  0.398900  1
  C  C217  1  0.977700  0.249300  0.717900  1
  C  C218  1  0.022300  0.750700  0.282100  1
  C  C219  1  0.856500  0.375100  0.715400  1
  C  C220  1  0.143500  0.624900  0.284600  1
  C  C221  1  0.810900  0.542800  0.547800  1
  C  C222  1  0.189100  0.457200  0.452200  1
  C  C223  1  0.889200  0.652300  0.446800  1
  C  C224  1  0.110800  0.347700  0.553200  1
  C  C225  1  0.687000  0.371000  0.072000  1
  C  C226  1  0.313000  0.629000  0.928000  1
  C  C227  1  0.746000  0.140000  0.241000  1
  C  C228  1  0.254000  0.860000  0.759000  1
  C  C229  1  0.895000  0.054000  0.066000  1
  C  C230  1  0.105000  0.946000  0.934000  1
  C  C231  1  0.818000  0.175700  0.758200  1
  C  C232  1  0.182000  0.824300  0.241800  1
  C  C233  1  0.875700  0.128000  0.814400  1
  C  C234  1  0.124300  0.872000  0.185600  1
  C  C235  1  0.903000  0.042000  0.811400  1
  C  C236  1  0.097000  0.958000  0.188600  1
  C  C237  1  0.882000  0.248700  0.885000  1
  C  C238  1  0.118000  0.751300  0.115000  1
  C  C239  1  0.827000  0.589700  0.470300  1
  C  C240  1  0.173000  0.410300  0.529700  1
  C  C241  1  0.867000  0.473000  0.597000  1
  C  C242  1  0.133000  0.527000  0.403000  1
  C  C243  1  0.728000  0.758800  0.292000  1.0
  C  C244  1  0.272000  0.241200  0.708000  1.0
  C  C245  1  0.340000  0.404700  0.039500  1.0
  C  C246  1  0.660000  0.595300  0.960500  1.0
  C  C247  1  0.512900  0.952800  0.406900  1.0
  C  C248  1  0.487100  0.047200  0.593100  1.0
  C  C249  1  0.340300  0.231400  0.292400  1.0
  C  C250  1  0.659700  0.768600  0.707600  1.0
  C  C251  1  0.501500  0.385100  0.764400  1.0
  C  C252  1  0.498500  0.614900  0.235600  1.0
  C  C253  1  0.890200  0.740400  0.016500  1.0
  C  C254  1  0.109800  0.259600  0.983500  1.0
  C  C255  1  0.716600  0.186100  0.650000  1.0
  C  C256  1  0.283400  0.813900  0.350000  1.0
  C  C257  1  0.511300  0.041600  0.359800  1.0
  C  C258  1  0.488700  0.958400  0.640200  1.0
  C  C259  1  0.424700  0.398200  0.902700  1.0
  C  C260  1  0.575300  0.601800  0.097300  1.0
  C  C261  1  0.811200  0.752300  0.154000  1.0
  C  C262  1  0.188800  0.247700  0.846000  1.0
  C  C263  1  0.785800  0.797500  0.218400  1.0
  C  C264  1  0.214200  0.202500  0.781600  1.0
  C  C265  1  0.509800  0.394700  0.016000  1.0
  C  C266  1  0.490200  0.605300  0.984000  1.0
  C  C267  1  0.427600  0.399400  0.984600  1.0
  C  C268  1  0.572400  0.600600  0.015400  1.0
  C  C269  1  0.891500  0.906800  0.760100  1.0
  C  C270  1  0.108500  0.093200  0.239900  1.0
  C  C271  1  0.591200  0.388000  0.964800  1.0
  C  C272  1  0.408800  0.612000  0.035200  1.0
  C  C273  1  0.429400  0.094000  0.351600  1.0
  C  C274  1  0.570600  0.906000  0.648400  1.0
  C  C275  1  0.589600  0.148000  0.271100  1.0
  C  C276  1  0.410400  0.852000  0.728900  1.0
  C  C277  1  0.864600  0.787900  0.085800  1.0
  C  C278  1  0.135400  0.212100  0.914200  1.0
  C  C279  1  0.508000  0.202300  0.261800  1.0
  C  C280  1  0.492000  0.797700  0.738200  1.0
  C  C281  1  0.588900  0.386400  0.882300  1.0
  C  C282  1  0.411100  0.613600  0.117700  1.0
  C  C283  1  0.810600  0.049100  0.705400  1.0
  C  C284  1  0.189400  0.950900  0.294600  1.0
  C  C285  1  0.506100  0.391000  0.851800  1.0
  C  C286  1  0.493900  0.609000  0.148200  1.0
  C  C287  1  0.864800  0.911700  0.146200  1.0
  C  C288  1  0.135200  0.088300  0.853800  1.0
  C  C289  1  0.591800  0.068000  0.320000  1.0
  C  C290  1  0.408200  0.932000  0.680000  1.0
  C  C291  1  0.812100  0.877900  0.214800  1.0
  C  C292  1  0.187900  0.122100  0.785200  1.0
  C  C293  1  0.427900  0.174000  0.304000  1.0
  C  C294  1  0.572100  0.826000  0.696000  1.0
  C  C295  1  0.863400  0.000500  0.762300  1.0
  C  C296  1  0.136600  0.999500  0.237700  1.0
  C  C297  1  0.779500  0.133400  0.709200  1.0
  C  C298  1  0.220500  0.866600  0.290800  1.0
  C  C299  1  0.890500  0.867500  0.081800  1.0
  C  C300  1  0.109500  0.132500  0.918200  1.0
  C  C301  1  0.755000  0.366800  0.956400  1.0
  C  C302  1  0.245000  0.633200  0.043600  1.0
  C  C303  1  0.674100  0.239500  0.166800  1.0
  C  C304  1  0.325900  0.760500  0.833200  1.0
  C  C305  1  0.873900  0.038400  0.201400  1.0
  C  C306  1  0.126100  0.961600  0.798600  1.0
  C  C307  1  0.870500  0.031600  0.834300  1.0
  C  C308  1  0.129500  0.968400  0.165700  1.0
  C  C309  1  0.835000  0.115300  0.840800  1.0
  C  C310  1  0.165000  0.884700  0.159200  1.0
  C  C311  1  0.790200  0.167900  0.777900  1.0
  C  C312  1  0.209800  0.832100  0.222100  1.0
  C  C313  1  0.861900  0.101600  0.981000  1.0
  C  C314  1  0.138100  0.898400  0.019000  1.0
  N  N315  1  0.484800  0.590300  0.602200  1
  N  N316  1  0.515200  0.409700  0.397800  1
  N  N317  1  0.837000  0.918200  0.499200  1
  N  N318  1  0.163000  0.081800  0.500800  1
  N  N319  1  0.070900  0.520600  0.798200  1
  N  N320  1  0.929100  0.479400  0.201800  1
  N  N321  1  0.907600  0.308300  0.674300  1
  N  N322  1  0.092400  0.691700  0.325700  1
  N  N323  1  0.847900  0.621200  0.529600  1
  N  N324  1  0.152100  0.378800  0.470400  1
  N  N325  1  0.862700  0.973000  0.449000  1
  N  N326  1  0.137300  0.027000  0.551000  1
  N  N327  1  0.856000  0.562000  0.553000  1
  N  N328  1  0.144000  0.438000  0.447000  1
  Cl  Cl329  1  0.210880  0.256710  0.145970  1
  Cl  Cl330  1  0.789120  0.743290  0.854030  1
  Cl  Cl331  1  0.493070  0.223890  0.665210  1
  Cl  Cl332  1  0.506930  0.776110  0.334790  1
  Cl  Cl333  1  0.043900  0.559700  0.612400  1
  Cl  Cl334  1  0.956100  0.440300  0.387600  1
  Cl  Cl335  1  0.982400  0.052900  0.470600  1
  Cl  Cl336  1  0.017600  0.947100  0.529400  1
  O  O337  1  0.928600  0.244500  0.559500  1
  O  O338  1  0.071400  0.755500  0.440500  1
  O  O339  1  0.901900  0.254300  0.400900  1
  O  O340  1  0.098100  0.745700  0.599100  1
  O  O341  1  0.829000  0.250000  0.342000  1
  O  O342  1  0.171000  0.750000  0.658000  1
  O  O343  1  0.582900  0.023500  0.807900  1
  O  O344  1  0.417100  0.976500  0.192100  1
  O  O345  1  0.910300  0.162300  0.876300  1
  O  O346  1  0.089700  0.837700  0.123700  1
  O  O347  1  0.815100  0.304500  0.371000  1
  O  O348  1  0.184900  0.695500  0.629000  1
  O  O349  1  0.858100  0.262600  0.490500  1
  O  O350  1  0.141900  0.737400  0.509500  1
  O  O351  1  0.904500  0.162500  0.401500  1
  O  O352  1  0.095500  0.837500  0.598500  1
  O  O353  1  0.935000  0.104000  0.394000  1
  O  O354  1  0.065000  0.896000  0.606000  1
  O  O355  1  0.609900  0.029300  0.036100  1
  O  O356  1  0.390100  0.970700  0.963900  1
  O  O357  1  0.635400  0.984800  0.052000  1
  O  O358  1  0.364600  0.015200  0.948000  1
  O  O359  1  0.622000  0.955000  0.839000  1
  O  O360  1  0.378000  0.045000  0.161000  1
  O  O361  1  0.557000  0.158000  0.875000  1
  O  O362  1  0.443000  0.842000  0.125000  1
  O  O363  1  0.565000  0.832000  0.941000  1
  O  O364  1  0.435000  0.168000  0.059000  1
  O  O365  1  0.533000  0.079000  0.870000  1
  O  O366  1  0.467000  0.921000  0.130000  1
  O  O367  1  0.574000  0.822000  0.125000  1
  O  O368  1  0.426000  0.178000  0.875000  1
  O  O369  1  0.632000  0.828000  0.003000  1
  O  O370  1  0.368000  0.172000  0.997000  1
  O  O371  1  0.549000  0.849000  0.041000  1
  O  O372  1  0.451000  0.151000  0.959000  1
  O  O373  1  0.631000  0.901000  0.919000  1
  O  O374  1  0.369000  0.099000  0.081000  1
  O  O375  1  0.940600  0.773700  0.956700  1.0
  O  O376  1  0.059400  0.226300  0.043300  1.0
  O  O377  1  0.694300  0.263600  0.657700  1.0
  O  O378  1  0.305700  0.736400  0.342300  1.0
  O  O379  1  0.347200  0.402300  0.114500  1.0
  O  O380  1  0.652800  0.597700  0.885500  1.0
  O  O381  1  0.643200  0.667400  0.446800  1.0
  O  O382  1  0.356800  0.332600  0.553200  1.0
  O  O383  1  0.941400  0.866500  0.814900  1.0
  O  O384  1  0.058600  0.133500  0.185100  1.0
  O  O385  1  0.703200  0.687700  0.288500  1.0
  O  O386  1  0.296800  0.312300  0.711500  1.0
  O  O387  1  0.862100  0.875600  0.707100  1.0
  O  O388  1  0.137900  0.124400  0.292900  1.0
  O  O389  1  0.344900  0.306400  0.254100  1.0
  O  O390  1  0.655100  0.693600  0.745900  1.0
  O  O391  1  0.859200  0.669500  0.023400  1.0
  O  O392  1  0.140800  0.330500  0.976600  1.0
  O  O393  1  0.515700  0.782000  0.517000  1.0
  O  O394  1  0.484300  0.218000  0.483000  1.0
  O  O395  1  0.267900  0.199200  0.319600  1.0
  O  O396  1  0.732100  0.800800  0.680400  1.0
  O  O397  1  0.168700  0.354100  0.291100  1.0
  O  O398  1  0.831300  0.645900  0.708900  1.0
  O  O399  1  0.436700  0.928300  0.433800  1.0
  O  O400  1  0.563300  0.071700  0.566200  1.0
  O  O401  1  0.576700  0.372200  0.722000  1.0
  O  O402  1  0.423300  0.627800  0.278000  1.0
  O  O403  1  0.422900  0.391800  0.741300  1.0
  O  O404  1  0.577100  0.608200  0.258700  1.0
  O  O405  1  0.968200  0.628500  0.894000  1.0
  O  O406  1  0.031800  0.371500  0.106000  1.0
  O  O407  1  0.709000  0.801500  0.349400  1.0
  O  O408  1  0.291000  0.198500  0.650600  1.0
  O  O409  1  0.168000  0.452900  0.140200  1.0
  O  O410  1  0.832000  0.547100  0.859800  1.0
  O  O411  1  0.589900  0.908500  0.415200  1.0
  O  O412  1  0.410100  0.091500  0.584800  1.0
  O  O413  1  0.617600  0.299000  0.518700  1.0
  O  O414  1  0.382400  0.701000  0.481300  1.0
  O  O415  1  0.268000  0.408100  0.007200  1.0
  O  O416  1  0.732000  0.591900  0.992800  1.0
  O  O417  1  0.491900  0.416600  0.586300  1.0
  O  O418  1  0.508100  0.583400  0.413700  1.0
  O  O419  1  0.690900  0.148400  0.599000  1.0
  O  O420  1  0.309100  0.851600  0.401000  1.0
  O  O421  1  0.340800  0.833400  0.562100  1.0
  O  O422  1  0.659200  0.166600  0.437900  1.0
  O  O423  1  0.097700  0.499300  0.998400  1.0
  O  O424  1  0.902300  0.500700  0.001600  1.0
  O  O425  1  0.275200  0.478700  0.247400  1.0
  O  O426  1  0.724800  0.521300  0.752600  1.0
  O  O427  1  0.030700  0.273300  0.257300  1.0
  O  O428  1  0.969300  0.726700  0.742700  1.0
  O  O429  1  0.097000  0.235200  0.402600  1.0
  O  O430  1  0.903000  0.764800  0.597400  1.0
  O  O431  1  0.669800  0.384300  0.999300  1.0
  O  O432  1  0.330200  0.615700  0.000700  1.0
  O  O433  1  0.684900  0.528300  0.378700  1.0
  O  O434  1  0.315100  0.471700  0.621300  1.0
  O  O435  1  0.088000  0.739400  0.844500  1.0
  O  O436  1  0.912000  0.260600  0.155500  1.0
  O  O437  1  0.695400  0.786100  0.516600  1.0
  O  O438  1  0.304600  0.213900  0.483400  1.0
  O  O439  1  0.669300  0.427600  0.573400  1.0
  O  O440  1  0.330700  0.572400  0.426600  1.0
  O  O441  1  0.671600  0.172500  0.233000  1.0
  O  O442  1  0.328400  0.827500  0.767000  1.0
  O  O443  1  0.892800  0.990700  0.138900  1.0
  O  O444  1  0.107200  0.009300  0.861100  1.0
  O  O445  1  0.840400  0.153800  0.907400  1.0
  O  O446  1  0.159600  0.846200  0.092600  1.0
