# generated using pymatgen
data_AgH26C40SN2Cl6O7F3
_symmetry_space_group_name_H-M   'P 1'
_cell_length_a   11.68080000
_cell_length_b   13.93450000
_cell_length_c   14.71050000
_cell_angle_alpha   82.97500000
_cell_angle_beta   68.99500000
_cell_angle_gamma   69.80300000
_symmetry_Int_Tables_number   1
_chemical_formula_structural   AgH26C40SN2Cl6O7F3
_chemical_formula_sum   'Ag2 H52 C80 S2 N4 Cl12 O14 F6'
_cell_volume   2097.81611648
_cell_formula_units_Z   2
loop_
 _symmetry_equiv_pos_site_id
 _symmetry_equiv_pos_as_xyz
  1  'x, y, z'
loop_
 _atom_site_type_symbol
 _atom_site_label
 _atom_site_symmetry_multiplicity
 _atom_site_fract_x
 _atom_site_fract_y
 _atom_site_fract_z
 _atom_site_occupancy
  Ag  Ag1  1  0.872490  0.978630  0.554480  1.0
  Ag  Ag2  1  0.127510  0.021370  0.445520  1.0
  H  H3  1  0.452900  0.942900  0.707700  1
  H  H4  1  0.547100  0.057100  0.292300  1
  H  H5  1  0.789300  0.839900  0.350600  1
  H  H6  1  0.210700  0.160100  0.649400  1
  H  H7  1  0.768700  0.166800  0.427700  1.0
  H  H8  1  0.231300  0.833200  0.572300  1.0
  H  H9  1  0.505000  0.398800  0.606700  1.0
  H  H10  1  0.495000  0.601200  0.393300  1.0
  H  H11  1  0.556500  0.302300  0.737500  1.0
  H  H12  1  0.443500  0.697700  0.262500  1.0
  H  H13  1  0.712600  0.143400  0.708200  1.0
  H  H14  1  0.287400  0.856600  0.291800  1.0
  H  H15  1  0.763100  0.497100  0.300700  1.0
  H  H16  1  0.236900  0.502900  0.699300  1.0
  H  H17  1  0.768000  0.602700  0.163800  1.0
  H  H18  1  0.232000  0.397300  0.836200  1.0
  H  H19  1  0.648100  0.419500  0.052400  1.0
  H  H20  1  0.351900  0.580500  0.947600  1.0
  H  H21  1  0.638900  0.314500  0.192800  1.0
  H  H22  1  0.361100  0.685500  0.807200  1.0
  H  H23  1  0.440700  0.592700  0.066700  1.0
  H  H24  1  0.559300  0.407300  0.933300  1.0
  H  H25  1  0.248900  0.733500  0.112500  1.0
  H  H26  1  0.751100  0.266500  0.887500  1.0
  H  H27  1  0.259800  0.896700  0.110300  1.0
  H  H28  1  0.740200  0.103300  0.889700  1.0
  H  H29  1  0.457300  0.923600  0.072900  1.0
  H  H30  1  0.542700  0.076400  0.927100  1.0
  H  H31  1  0.704400  0.914100  0.016400  1.0
  H  H32  1  0.295600  0.085900  0.983600  1.0
  H  H33  1  0.928100  0.870100  0.968100  1.0
  H  H34  1  0.071900  0.129900  0.031900  1.0
  H  H35  1  0.060500  0.702200  0.930100  1.0
  H  H36  1  0.939500  0.297800  0.069900  1.0
  H  H37  1  0.969400  0.574100  0.945900  1.0
  H  H38  1  0.030600  0.425900  0.054100  1.0
  H  H39  1  0.899200  0.430100  0.928900  1.0
  H  H40  1  0.100800  0.569900  0.071100  1.0
  H  H41  1  0.970800  0.349200  0.779400  1.0
  H  H42  1  0.029200  0.650800  0.220600  1.0
  H  H43  1  0.661200  0.546500  0.717800  1.0
  H  H44  1  0.338800  0.453500  0.282200  1.0
  H  H45  1  0.593800  0.633000  0.864600  1.0
  H  H46  1  0.406200  0.367000  0.135400  1.0
  H  H47  1  0.023500  0.772000  0.438700  1.0
  H  H48  1  0.976500  0.228000  0.561300  1.0
  H  H49  1  0.908200  0.828000  0.719100  1.0
  H  H50  1  0.091800  0.172000  0.280900  1.0
  H  H51  1  0.964300  0.655700  0.754800  1.0
  H  H52  1  0.035700  0.344300  0.245200  1.0
  H  H53  1  0.940200  0.463700  0.373300  1.0
  H  H54  1  0.059800  0.536300  0.626700  1.0
  C  C55  1  0.515300  0.893700  0.737300  1
  C  C56  1  0.484700  0.106300  0.262700  1
  C  C57  1  0.720500  0.809200  0.358700  1
  C  C58  1  0.279500  0.190800  0.641300  1
  C  C59  1  0.903800  0.016300  0.199600  1
  C  C60  1  0.096200  0.983700  0.800400  1
  C  C61  1  0.724100  0.194500  0.491600  1.0
  C  C62  1  0.275900  0.805500  0.508400  1.0
  C  C63  1  0.633900  0.291300  0.503300  1.0
  C  C64  1  0.366100  0.708700  0.496700  1.0
  C  C65  1  0.568700  0.332800  0.596300  1.0
  C  C66  1  0.431300  0.667200  0.403700  1.0
  C  C67  1  0.598900  0.275900  0.673000  1.0
  C  C68  1  0.401100  0.724100  0.327000  1.0
  C  C69  1  0.690700  0.180900  0.654900  1.0
  C  C70  1  0.309300  0.819100  0.345100  1.0
  C  C71  1  0.603600  0.355200  0.420300  1.0
  C  C72  1  0.396400  0.644800  0.579700  1.0
  C  C73  1  0.701800  0.397200  0.257600  1.0
  C  C74  1  0.298200  0.602800  0.742400  1.0
  C  C75  1  0.739300  0.481400  0.250300  1.0
  C  C76  1  0.260700  0.518600  0.749700  1.0
  C  C77  1  0.742300  0.544000  0.168800  1.0
  C  C78  1  0.257700  0.456000  0.831200  1.0
  C  C79  1  0.708200  0.521800  0.094400  1.0
  C  C80  1  0.291800  0.478200  0.905600  1.0
  C  C81  1  0.670800  0.436000  0.103000  1.0
  C  C82  1  0.329200  0.564000  0.897000  1.0
  C  C83  1  0.666100  0.372600  0.186300  1.0
  C  C84  1  0.333900  0.627400  0.813700  1.0
  C  C85  1  0.700000  0.596300  0.007600  1.0
  C  C86  1  0.300000  0.403700  0.992400  1.0
  C  C87  1  0.561800  0.675400  0.039400  1.0
  C  C88  1  0.438200  0.324600  0.960600  1.0
  C  C89  1  0.444500  0.659700  0.066500  1.0
  C  C90  1  0.555500  0.340300  0.933500  1.0
  C  C91  1  0.330800  0.743300  0.093900  1.0
  C  C92  1  0.669200  0.256700  0.906100  1.0
  C  C93  1  0.337700  0.840100  0.093700  1.0
  C  C94  1  0.662300  0.159900  0.906300  1.0
  C  C95  1  0.454100  0.856900  0.070000  1.0
  C  C96  1  0.545900  0.143100  0.930000  1.0
  C  C97  1  0.567900  0.772900  0.041600  1.0
  C  C98  1  0.432100  0.227100  0.958400  1.0
  C  C99  1  0.703000  0.767900  0.012100  1.0
  C  C100  1  0.297000  0.232100  0.987900  1.0
  C  C101  1  0.757800  0.844900  0.002700  1.0
  C  C102  1  0.242200  0.155100  0.997300  1.0
  C  C103  1  0.890000  0.818500  0.973400  1.0
  C  C104  1  0.110000  0.181500  0.026600  1.0
  C  C105  1  0.968900  0.718700  0.951500  1.0
  C  C106  1  0.031100  0.281300  0.048500  1.0
  C  C107  1  0.915100  0.642900  0.960700  1.0
  C  C108  1  0.084900  0.357100  0.039300  1.0
  C  C109  1  0.781100  0.667100  0.991700  1.0
  C  C110  1  0.218900  0.332900  0.008300  1.0
  C  C111  1  0.738100  0.540800  0.912700  1.0
  C  C112  1  0.261900  0.459200  0.087300  1.0
  C  C113  1  0.851400  0.455000  0.885700  1.0
  C  C114  1  0.148600  0.545000  0.114300  1.0
  C  C115  1  0.893900  0.406700  0.797400  1.0
  C  C116  1  0.106100  0.593300  0.202600  1.0
  C  C117  1  0.822900  0.443300  0.735700  1.0
  C  C118  1  0.177100  0.556700  0.264300  1.0
  C  C119  1  0.710600  0.524600  0.760100  1.0
  C  C120  1  0.289400  0.475400  0.239900  1.0
  C  C121  1  0.669700  0.574700  0.848200  1.0
  C  C122  1  0.330300  0.425300  0.151800  1.0
  C  C123  1  0.881300  0.433100  0.564000  1.0
  C  C124  1  0.118700  0.566900  0.436000  1.0
  C  C125  1  0.943500  0.357000  0.482600  1.0
  C  C126  1  0.056500  0.643000  0.517400  1.0
  C  C127  1  0.013700  0.747600  0.503400  1.0
  C  C128  1  0.986300  0.252400  0.496600  1.0
  C  C129  1  0.944400  0.780200  0.667200  1.0
  C  C130  1  0.055600  0.219800  0.332800  1.0
  C  C131  1  0.978900  0.678000  0.689200  1.0
  C  C132  1  0.021100  0.322000  0.310800  1.0
  C  C133  1  0.964500  0.392400  0.386500  1.0
  C  C134  1  0.035500  0.607600  0.613500  1.0
  S  S135  1  0.978930  0.952560  0.287680  1
  S  S136  1  0.021070  0.047440  0.712320  1
  N  N137  1  0.751800  0.137600  0.565900  1.0
  N  N138  1  0.248200  0.862400  0.434100  1.0
  N  N139  1  0.959300  0.816600  0.575400  1.0
  N  N140  1  0.040700  0.183400  0.424600  1.0
  Cl  Cl141  1  0.622300  0.951200  0.747200  1
  Cl  Cl142  1  0.377700  0.048800  0.252800  1
  Cl  Cl143  1  0.606600  0.784100  0.662740  1
  Cl  Cl144  1  0.393400  0.215900  0.337260  1
  Cl  Cl145  1  0.431200  0.858720  0.852720  1
  Cl  Cl146  1  0.568800  0.141280  0.147280  1
  Cl  Cl147  1  0.756500  0.691550  0.418800  1
  Cl  Cl148  1  0.243500  0.308450  0.581200  1
  Cl  Cl149  1  0.570500  0.893570  0.428220  1
  Cl  Cl150  1  0.429500  0.106430  0.571780  1
  Cl  Cl151  1  0.717200  0.794520  0.243550  1
  Cl  Cl152  1  0.282800  0.205480  0.756450  1
  O  O153  1  0.872800  0.981400  0.376400  1
  O  O154  1  0.127200  0.018600  0.623600  1
  O  O155  1  0.079800  0.993600  0.270500  1
  O  O156  1  0.920200  0.006400  0.729500  1
  O  O157  1  0.020100  0.846300  0.267500  1
  O  O158  1  0.979900  0.153700  0.732500  1
  O  O159  1  0.505000  0.422200  0.425600  1.0
  O  O160  1  0.495000  0.577800  0.574400  1.0
  O  O161  1  0.707700  0.330600  0.337200  1.0
  O  O162  1  0.292300  0.669400  0.662800  1.0
  O  O163  1  0.869000  0.385100  0.649600  1.0
  O  O164  1  0.131000  0.614900  0.350400  1.0
  O  O165  1  0.848700  0.523000  0.551900  1.0
  O  O166  1  0.151300  0.477000  0.448100  1.0
  F  F167  1  0.987600  0.988200  0.108600  1
  F  F168  1  0.012400  0.011800  0.891400  1
  F  F169  1  0.867000  0.116600  0.206700  1
  F  F170  1  0.133000  0.883400  0.793300  1
  F  F171  1  0.804300  0.986800  0.209200  1
  F  F172  1  0.195700  0.013200  0.790800  1
