# generated using pymatgen
data_AgH28C38N3Cl3O7
_symmetry_space_group_name_H-M   'P 1'
_cell_length_a   10.49160000
_cell_length_b   11.63470000
_cell_length_c   28.40320000
_cell_angle_alpha   90.00000000
_cell_angle_beta   100.35900000
_cell_angle_gamma   90.00000000
_symmetry_Int_Tables_number   1
_chemical_formula_structural   AgH28C38N3Cl3O7
_chemical_formula_sum   'Ag4 H112 C152 N12 Cl12 O28'
_cell_volume   3410.57050527
_cell_formula_units_Z   4
loop_
 _symmetry_equiv_pos_site_id
 _symmetry_equiv_pos_as_xyz
  1  'x, y, z'
loop_
 _atom_site_type_symbol
 _atom_site_label
 _atom_site_symmetry_multiplicity
 _atom_site_fract_x
 _atom_site_fract_y
 _atom_site_fract_z
 _atom_site_occupancy
  Ag  Ag1  1  0.340380  0.144380  0.993970  1.0
  Ag  Ag2  1  0.659620  0.644380  0.506030  1.0
  Ag  Ag3  1  0.659620  0.855620  0.006030  1.0
  Ag  Ag4  1  0.340380  0.355620  0.493970  1.0
  H  H5  1  0.847700  0.181400  0.007300  1
  H  H6  1  0.152300  0.681400  0.492700  1
  H  H7  1  0.152300  0.818600  0.992700  1
  H  H8  1  0.847700  0.318600  0.507300  1
  H  H9  1  0.862300  0.236600  0.957400  1
  H  H10  1  0.137700  0.736600  0.542600  1
  H  H11  1  0.137700  0.763400  0.042600  1
  H  H12  1  0.862300  0.263400  0.457400  1
  H  H13  1  0.826200  0.220900  0.967300  1
  H  H14  1  0.173800  0.720900  0.532700  1
  H  H15  1  0.173800  0.779100  0.032700  1
  H  H16  1  0.826200  0.279100  0.467300  1
  H  H17  1  0.908300  0.161300  0.014500  1
  H  H18  1  0.091700  0.661300  0.485500  1
  H  H19  1  0.091700  0.838700  0.985500  1
  H  H20  1  0.908300  0.338700  0.514500  1
  H  H21  1  0.249300  0.414900  0.978700  1.0
  H  H22  1  0.750700  0.914900  0.521300  1.0
  H  H23  1  0.750700  0.585100  0.021300  1.0
  H  H24  1  0.249300  0.085100  0.478700  1.0
  H  H25  1  0.320200  0.587900  0.951700  1.0
  H  H26  1  0.679800  0.087900  0.548300  1.0
  H  H27  1  0.679800  0.412100  0.048300  1.0
  H  H28  1  0.320200  0.912100  0.451700  1.0
  H  H29  1  0.507400  0.588800  0.916500  1.0
  H  H30  1  0.492600  0.088800  0.583500  1.0
  H  H31  1  0.492600  0.411200  0.083500  1.0
  H  H32  1  0.507400  0.911200  0.416500  1.0
  H  H33  1  0.536700  0.246500  0.938800  1.0
  H  H34  1  0.463300  0.746500  0.561200  1.0
  H  H35  1  0.463300  0.753500  0.061200  1.0
  H  H36  1  0.536700  0.253500  0.438800  1.0
  H  H37  1  0.687700  0.543800  0.796100  1.0
  H  H38  1  0.312300  0.043800  0.703900  1.0
  H  H39  1  0.312300  0.456200  0.203900  1.0
  H  H40  1  0.687700  0.956200  0.296100  1.0
  H  H41  1  0.857100  0.534400  0.752600  1.0
  H  H42  1  0.142900  0.034400  0.747400  1.0
  H  H43  1  0.142900  0.465600  0.247400  1.0
  H  H44  1  0.857100  0.965600  0.252600  1.0
  H  H45  1  0.106500  0.457200  0.874000  1.0
  H  H46  1  0.893500  0.957200  0.626000  1.0
  H  H47  1  0.893500  0.542800  0.126000  1.0
  H  H48  1  0.106500  0.042800  0.374000  1.0
  H  H49  1  0.937000  0.466800  0.917300  1.0
  H  H50  1  0.063000  0.966800  0.582700  1.0
  H  H51  1  0.063000  0.533200  0.082700  1.0
  H  H52  1  0.937000  0.033200  0.417300  1.0
  H  H53  1  0.247600  0.625800  0.853700  1.0
  H  H54  1  0.752400  0.125800  0.646300  1.0
  H  H55  1  0.752400  0.374200  0.146300  1.0
  H  H56  1  0.247600  0.874200  0.353700  1.0
  H  H57  1  0.365700  0.792500  0.842800  1.0
  H  H58  1  0.634300  0.292500  0.657200  1.0
  H  H59  1  0.634300  0.207500  0.157200  1.0
  H  H60  1  0.365700  0.707500  0.342800  1.0
  H  H61  1  0.369400  0.860600  0.766500  1.0
  H  H62  1  0.630600  0.360600  0.733500  1.0
  H  H63  1  0.630600  0.139400  0.233500  1.0
  H  H64  1  0.369400  0.639400  0.266500  1.0
  H  H65  1  0.253800  0.767500  0.699100  1.0
  H  H66  1  0.746200  0.267500  0.800900  1.0
  H  H67  1  0.746200  0.232500  0.300900  1.0
  H  H68  1  0.253800  0.732500  0.199100  1.0
  H  H69  1  0.110700  0.628500  0.635300  1.0
  H  H70  1  0.889300  0.128500  0.864700  1.0
  H  H71  1  0.889300  0.371500  0.364700  1.0
  H  H72  1  0.110700  0.871500  0.135300  1.0
  H  H73  1  0.980100  0.486500  0.593600  1.0
  H  H74  1  0.019900  0.986500  0.906400  1.0
  H  H75  1  0.019900  0.513500  0.406400  1.0
  H  H76  1  0.980100  0.013500  0.093600  1.0
  H  H77  1  0.906200  0.333100  0.634200  1.0
  H  H78  1  0.093800  0.833100  0.865800  1.0
  H  H79  1  0.093800  0.666900  0.365800  1.0
  H  H80  1  0.906200  0.166900  0.134200  1.0
  H  H81  1  0.961400  0.319200  0.717600  1.0
  H  H82  1  0.038600  0.819200  0.782400  1.0
  H  H83  1  0.038600  0.680800  0.282400  1.0
  H  H84  1  0.961400  0.180800  0.217600  1.0
  H  H85  1  0.063900  0.270300  0.811900  1.0
  H  H86  1  0.936100  0.770300  0.688100  1.0
  H  H87  1  0.936100  0.729700  0.188100  1.0
  H  H88  1  0.063900  0.229700  0.311900  1.0
  H  H89  1  0.203100  0.118500  0.840900  1.0
  H  H90  1  0.796900  0.618500  0.659100  1.0
  H  H91  1  0.796900  0.881500  0.159100  1.0
  H  H92  1  0.203100  0.381500  0.340900  1.0
  H  H93  1  0.506800  0.303600  0.812500  1.0
  H  H94  1  0.493200  0.803600  0.687500  1.0
  H  H95  1  0.493200  0.696400  0.187500  1.0
  H  H96  1  0.506800  0.196400  0.312500  1.0
  H  H97  1  0.368500  0.458100  0.787300  1.0
  H  H98  1  0.631500  0.958100  0.712700  1.0
  H  H99  1  0.631500  0.541900  0.212700  1.0
  H  H100  1  0.368500  0.041900  0.287300  1.0
  H  H101  1  0.653200  0.882000  0.795000  1.0
  H  H102  1  0.346800  0.382000  0.705000  1.0
  H  H103  1  0.346800  0.118000  0.205000  1.0
  H  H104  1  0.653200  0.618000  0.295000  1.0
  H  H105  1  0.785300  0.744800  0.841300  1.0
  H  H106  1  0.214700  0.244800  0.658700  1.0
  H  H107  1  0.214700  0.255200  0.158700  1.0
  H  H108  1  0.785300  0.755200  0.341300  1.0
  H  H109  1  0.794100  0.740400  0.922800  1.0
  H  H110  1  0.205900  0.240400  0.577200  1.0
  H  H111  1  0.205900  0.259600  0.077200  1.0
  H  H112  1  0.794100  0.759600  0.422800  1.0
  H  H113  1  0.557300  0.004600  0.916800  1.0
  H  H114  1  0.442700  0.504600  0.583200  1.0
  H  H115  1  0.442700  0.995400  0.083200  1.0
  H  H116  1  0.557300  0.495400  0.416800  1.0
  C  C117  1  0.908600  0.223000  0.990500  1
  C  C118  1  0.091400  0.723000  0.509500  1
  C  C119  1  0.091400  0.777000  0.009500  1
  C  C120  1  0.908600  0.277000  0.490500  1
  C  C121  1  0.324800  0.415000  0.964550  1.0
  C  C122  1  0.675200  0.915000  0.535450  1.0
  C  C123  1  0.675200  0.585000  0.035450  1.0
  C  C124  1  0.324800  0.085000  0.464550  1.0
  C  C125  1  0.366200  0.518800  0.948560  1.0
  C  C126  1  0.633800  0.018800  0.551440  1.0
  C  C127  1  0.633800  0.481200  0.051440  1.0
  C  C128  1  0.366200  0.981200  0.448560  1.0
  C  C129  1  0.476200  0.519200  0.927830  1.0
  C  C130  1  0.523800  0.019200  0.572170  1.0
  C  C131  1  0.523800  0.480800  0.072170  1.0
  C  C132  1  0.476200  0.980800  0.427830  1.0
  C  C133  1  0.539500  0.416600  0.923930  1.0
  C  C134  1  0.460500  0.916600  0.576070  1.0
  C  C135  1  0.460500  0.583400  0.076070  1.0
  C  C136  1  0.539500  0.083400  0.423930  1.0
  C  C137  1  0.491900  0.316600  0.941220  1.0
  C  C138  1  0.508100  0.816600  0.558780  1.0
  C  C139  1  0.508100  0.683400  0.058780  1.0
  C  C140  1  0.491900  0.183400  0.441220  1.0
  C  C141  1  0.655400  0.403700  0.900900  1.0
  C  C142  1  0.344600  0.903700  0.599100  1.0
  C  C143  1  0.344600  0.596300  0.099100  1.0
  C  C144  1  0.655400  0.096300  0.400900  1.0
  C  C145  1  0.798100  0.501300  0.859610  1.0
  C  C146  1  0.201900  0.001300  0.640390  1.0
  C  C147  1  0.201900  0.498700  0.140390  1.0
  C  C148  1  0.798100  0.998700  0.359610  1.0
  C  C149  1  0.772900  0.524400  0.811680  1.0
  C  C150  1  0.227100  0.024400  0.688320  1.0
  C  C151  1  0.227100  0.475600  0.188320  1.0
  C  C152  1  0.772900  0.975600  0.311680  1.0
  C  C153  1  0.873700  0.519100  0.786010  1.0
  C  C154  1  0.126300  0.019100  0.713990  1.0
  C  C155  1  0.126300  0.480900  0.213990  1.0
  C  C156  1  0.873700  0.980900  0.286010  1.0
  C  C157  1  0.998500  0.491400  0.808770  1.0
  C  C158  1  0.001500  0.991400  0.691230  1.0
  C  C159  1  0.001500  0.508600  0.191230  1.0
  C  C160  1  0.998500  0.008600  0.308770  1.0
  C  C161  1  0.021100  0.473400  0.857800  1.0
  C  C162  1  0.978900  0.973400  0.642200  1.0
  C  C163  1  0.978900  0.526600  0.142200  1.0
  C  C164  1  0.021100  0.026600  0.357800  1.0
  C  C165  1  0.920900  0.478600  0.883660  1.0
  C  C166  1  0.079100  0.978600  0.616340  1.0
  C  C167  1  0.079100  0.521400  0.116340  1.0
  C  C168  1  0.920900  0.021400  0.383660  1.0
  C  C169  1  0.111000  0.481500  0.780370  1.0
  C  C170  1  0.889000  0.981500  0.719630  1.0
  C  C171  1  0.889000  0.518500  0.219630  1.0
  C  C172  1  0.111000  0.018500  0.280370  1.0
  C  C173  1  0.185800  0.595900  0.782790  1.0
  C  C174  1  0.814200  0.095900  0.717210  1.0
  C  C175  1  0.814200  0.404100  0.217210  1.0
  C  C176  1  0.185800  0.904100  0.282790  1.0
  C  C177  1  0.250200  0.653400  0.822410  1.0
  C  C178  1  0.749800  0.153400  0.677590  1.0
  C  C179  1  0.749800  0.346600  0.177590  1.0
  C  C180  1  0.250200  0.846600  0.322410  1.0
  C  C181  1  0.319500  0.752700  0.815860  1.0
  C  C182  1  0.680500  0.252700  0.684140  1.0
  C  C183  1  0.680500  0.247300  0.184140  1.0
  C  C184  1  0.319500  0.747300  0.315860  1.0
  C  C185  1  0.321200  0.793300  0.770430  1.0
  C  C186  1  0.678800  0.293300  0.729570  1.0
  C  C187  1  0.678800  0.206700  0.229570  1.0
  C  C188  1  0.321200  0.706700  0.270430  1.0
  C  C189  1  0.253900  0.737800  0.730250  1.0
  C  C190  1  0.746100  0.237800  0.769750  1.0
  C  C191  1  0.746100  0.262200  0.269750  1.0
  C  C192  1  0.253900  0.762200  0.230250  1.0
  C  C193  1  0.186700  0.638100  0.736760  1.0
  C  C194  1  0.813300  0.138100  0.763240  1.0
  C  C195  1  0.813300  0.361900  0.263240  1.0
  C  C196  1  0.186700  0.861900  0.236760  1.0
  C  C197  1  0.110500  0.560700  0.701500  1.0
  C  C198  1  0.889500  0.060700  0.798500  1.0
  C  C199  1  0.889500  0.439300  0.298500  1.0
  C  C200  1  0.110500  0.939300  0.201500  1.0
  C  C201  1  0.079600  0.566900  0.652000  1.0
  C  C202  1  0.920400  0.066900  0.848000  1.0
  C  C203  1  0.920400  0.433100  0.348000  1.0
  C  C204  1  0.079600  0.933100  0.152000  1.0
  C  C205  1  0.003000  0.482300  0.627520  1.0
  C  C206  1  0.997000  0.982300  0.872480  1.0
  C  C207  1  0.997000  0.517700  0.372480  1.0
  C  C208  1  0.003000  0.017700  0.127520  1.0
  C  C209  1  0.958700  0.390700  0.651760  1.0
  C  C210  1  0.041300  0.890700  0.848240  1.0
  C  C211  1  0.041300  0.609300  0.348240  1.0
  C  C212  1  0.958700  0.109300  0.151760  1.0
  C  C213  1  0.990200  0.382600  0.701300  1.0
  C  C214  1  0.009800  0.882600  0.798700  1.0
  C  C215  1  0.009800  0.617400  0.298700  1.0
  C  C216  1  0.990200  0.117400  0.201300  1.0
  C  C217  1  0.064800  0.469100  0.726520  1.0
  C  C218  1  0.935200  0.969100  0.773480  1.0
  C  C219  1  0.935200  0.530900  0.273480  1.0
  C  C220  1  0.064800  0.030900  0.226520  1.0
  C  C221  1  0.202000  0.381200  0.798350  1.0
  C  C222  1  0.798000  0.881200  0.701650  1.0
  C  C223  1  0.798000  0.618800  0.201650  1.0
  C  C224  1  0.202000  0.118800  0.298350  1.0
  C  C225  1  0.154500  0.278600  0.813150  1.0
  C  C226  1  0.845500  0.778600  0.686850  1.0
  C  C227  1  0.845500  0.721400  0.186850  1.0
  C  C228  1  0.154500  0.221400  0.313150  1.0
  C  C229  1  0.236500  0.187300  0.829860  1.0
  C  C230  1  0.763500  0.687300  0.670140  1.0
  C  C231  1  0.763500  0.812700  0.170140  1.0
  C  C232  1  0.236500  0.312700  0.329860  1.0
  C  C233  1  0.366800  0.199400  0.829890  1.0
  C  C234  1  0.633200  0.699400  0.670110  1.0
  C  C235  1  0.633200  0.800600  0.170110  1.0
  C  C236  1  0.366800  0.300600  0.329890  1.0
  C  C237  1  0.416900  0.298100  0.813410  1.0
  C  C238  1  0.583100  0.798100  0.686590  1.0
  C  C239  1  0.583100  0.701900  0.186590  1.0
  C  C240  1  0.416900  0.201900  0.313410  1.0
  C  C241  1  0.334300  0.389300  0.798090  1.0
  C  C242  1  0.665700  0.889300  0.701910  1.0
  C  C243  1  0.665700  0.610700  0.201910  1.0
  C  C244  1  0.334300  0.110700  0.298090  1.0
  C  C245  1  0.507900  0.044500  0.823270  1.0
  C  C246  1  0.492100  0.544500  0.676730  1.0
  C  C247  1  0.492100  0.955500  0.176730  1.0
  C  C248  1  0.507900  0.455500  0.323270  1.0
  C  C249  1  0.592100  0.957800  0.852050  1.0
  C  C250  1  0.407900  0.457800  0.647950  1.0
  C  C251  1  0.407900  0.042200  0.147950  1.0
  C  C252  1  0.592100  0.542200  0.352050  1.0
  C  C253  1  0.659700  0.879800  0.828820  1.0
  C  C254  1  0.340300  0.379800  0.671180  1.0
  C  C255  1  0.340300  0.120200  0.171180  1.0
  C  C256  1  0.659700  0.620200  0.328820  1.0
  C  C257  1  0.736800  0.798700  0.856060  1.0
  C  C258  1  0.263200  0.298700  0.643940  1.0
  C  C259  1  0.263200  0.201300  0.143940  1.0
  C  C260  1  0.736800  0.701300  0.356060  1.0
  C  C261  1  0.742100  0.797300  0.904600  1.0
  C  C262  1  0.257900  0.297300  0.595400  1.0
  C  C263  1  0.257900  0.202700  0.095400  1.0
  C  C264  1  0.742100  0.702700  0.404600  1.0
  C  C265  1  0.603700  0.951000  0.901150  1.0
  C  C266  1  0.396300  0.451000  0.598850  1.0
  C  C267  1  0.396300  0.049000  0.098850  1.0
  C  C268  1  0.603700  0.549000  0.401150  1.0
  N  N269  1  0.385300  0.314800  0.961160  1.0
  N  N270  1  0.614700  0.814800  0.538840  1.0
  N  N271  1  0.614700  0.685200  0.038840  1.0
  N  N272  1  0.385300  0.185200  0.461160  1.0
  N  N273  1  0.677700  0.872000  0.927860  1.0
  N  N274  1  0.322300  0.372000  0.572140  1.0
  N  N275  1  0.322300  0.128000  0.072140  1.0
  N  N276  1  0.677700  0.628000  0.427860  1.0
  N  N277  1  0.340500  0.900300  0.959900  1.0
  N  N278  1  0.659500  0.400300  0.540100  1.0
  N  N279  1  0.659500  0.099700  0.040100  1.0
  N  N280  1  0.340500  0.599700  0.459900  1.0
  Cl  Cl281  1  0.933600  0.353320  0.016920  1
  Cl  Cl282  1  0.066400  0.853320  0.483080  1
  Cl  Cl283  1  0.066400  0.646680  0.983080  1
  Cl  Cl284  1  0.933600  0.146680  0.516920  1
  Cl  Cl285  1  0.028800  0.133000  0.986700  1
  Cl  Cl286  1  0.971200  0.633000  0.513300  1
  Cl  Cl287  1  0.971200  0.867000  0.013300  1
  Cl  Cl288  1  0.028800  0.367000  0.486700  1
  Cl  Cl289  1  0.051000  0.210500  0.960020  1
  Cl  Cl290  1  0.949000  0.710500  0.539980  1
  Cl  Cl291  1  0.949000  0.789500  0.039980  1
  Cl  Cl292  1  0.051000  0.289500  0.460020  1
  O  O293  1  0.707800  0.313700  0.895980  1.0
  O  O294  1  0.292200  0.813700  0.604020  1.0
  O  O295  1  0.292200  0.686300  0.104020  1.0
  O  O296  1  0.707800  0.186300  0.395980  1.0
  O  O297  1  0.693200  0.505500  0.885050  1.0
  O  O298  1  0.306800  0.005500  0.614950  1.0
  O  O299  1  0.306800  0.494500  0.114950  1.0
  O  O300  1  0.693200  0.994500  0.385050  1.0
  O  O301  1  0.491000  0.052000  0.780520  1.0
  O  O302  1  0.509000  0.552000  0.719480  1.0
  O  O303  1  0.509000  0.948000  0.219480  1.0
  O  O304  1  0.491000  0.448000  0.280520  1.0
  O  O305  1  0.451300  0.112800  0.851660  1.0
  O  O306  1  0.548700  0.612800  0.648340  1.0
  O  O307  1  0.548700  0.887200  0.148340  1.0
  O  O308  1  0.451300  0.387200  0.351660  1.0
  O  O309  1  0.296500  0.987300  0.938550  1.0
  O  O310  1  0.703500  0.487300  0.561450  1.0
  O  O311  1  0.703500  0.012700  0.061450  1.0
  O  O312  1  0.296500  0.512700  0.438550  1.0
  O  O313  1  0.344200  0.806800  0.940400  1.0
  O  O314  1  0.655800  0.306800  0.559600  1.0
  O  O315  1  0.655800  0.193200  0.059600  1.0
  O  O316  1  0.344200  0.693200  0.440400  1.0
  O  O317  1  0.393200  0.912000  0.000000  1.0
  O  O318  1  0.606800  0.412000  0.500000  1.0
  O  O319  1  0.606800  0.088000  0.000000  1.0
  O  O320  1  0.393200  0.588000  0.500000  1.0
