# generated using pymatgen
data_Cs10Na13Mn6H48(C14O33)6
_symmetry_space_group_name_H-M   'P 1'
_cell_length_a   25.83457051
_cell_length_b   25.83457051
_cell_length_c   25.83457051
_cell_angle_alpha   60.00000000
_cell_angle_beta   60.00000000
_cell_angle_gamma   60.00000000
_symmetry_Int_Tables_number   1
_chemical_formula_structural   Cs10Na13Mn6H48(C14O33)6
_chemical_formula_sum   'Cs20 Na26 Mn12 H96 C168 O396'
_cell_volume   12192.38703026
_cell_formula_units_Z   2
loop_
 _symmetry_equiv_pos_site_id
 _symmetry_equiv_pos_as_xyz
  1  'x, y, z'
loop_
 _atom_site_type_symbol
 _atom_site_label
 _atom_site_symmetry_multiplicity
 _atom_site_fract_x
 _atom_site_fract_y
 _atom_site_fract_z
 _atom_site_occupancy
  C  C1  1  0.843200  0.843200  0.961600  1.0
  C  C2  1  0.352000  0.961600  0.843200  1.0
  C  C3  1  0.961600  0.352000  0.843200  1.0
  C  C4  1  0.843200  0.843200  0.352000  1.0
  C  C5  1  0.843200  0.961600  0.843200  1.0
  C  C6  1  0.961600  0.843200  0.352000  1.0
  C  C7  1  0.352000  0.843200  0.961600  1.0
  C  C8  1  0.843200  0.352000  0.843200  1.0
  C  C9  1  0.961600  0.843200  0.843200  1.0
  C  C10  1  0.843200  0.352000  0.961600  1.0
  C  C11  1  0.843200  0.961600  0.352000  1.0
  C  C12  1  0.352000  0.843200  0.843200  1.0
  C  C13  1  0.648000  0.156800  0.038400  1.0
  C  C14  1  0.156800  0.038400  0.156800  1.0
  C  C15  1  0.156800  0.648000  0.156800  1.0
  C  C16  1  0.038400  0.156800  0.648000  1.0
  C  C17  1  0.648000  0.038400  0.156800  1.0
  C  C18  1  0.156800  0.156800  0.648000  1.0
  C  C19  1  0.156800  0.156800  0.038400  1.0
  C  C20  1  0.038400  0.648000  0.156800  1.0
  C  C21  1  0.648000  0.156800  0.156800  1.0
  C  C22  1  0.156800  0.648000  0.038400  1.0
  C  C23  1  0.156800  0.038400  0.648000  1.0
  C  C24  1  0.038400  0.156800  0.156800  1.0
  C  C25  1  0.787500  0.883900  0.937100  1.0
  C  C26  1  0.391500  0.937100  0.883900  1.0
  C  C27  1  0.937100  0.391500  0.787500  1.0
  C  C28  1  0.883900  0.787500  0.391500  1.0
  C  C29  1  0.883900  0.937100  0.787500  1.0
  C  C30  1  0.937100  0.883900  0.391500  1.0
  C  C31  1  0.391500  0.787500  0.937100  1.0
  C  C32  1  0.787500  0.391500  0.883900  1.0
  C  C33  1  0.937100  0.787500  0.883900  1.0
  C  C34  1  0.883900  0.391500  0.937100  1.0
  C  C35  1  0.787500  0.937100  0.391500  1.0
  C  C36  1  0.391500  0.883900  0.787500  1.0
  C  C37  1  0.608500  0.116100  0.062900  1.0
  C  C38  1  0.212500  0.062900  0.116100  1.0
  C  C39  1  0.116100  0.608500  0.212500  1.0
  C  C40  1  0.062900  0.212500  0.608500  1.0
  C  C41  1  0.608500  0.062900  0.212500  1.0
  C  C42  1  0.212500  0.116100  0.608500  1.0
  C  C43  1  0.116100  0.212500  0.062900  1.0
  C  C44  1  0.062900  0.608500  0.116100  1.0
  C  C45  1  0.608500  0.212500  0.116100  1.0
  C  C46  1  0.212500  0.608500  0.062900  1.0
  C  C47  1  0.116100  0.062900  0.608500  1.0
  C  C48  1  0.062900  0.116100  0.212500  1.0
  C  C49  1  0.212500  0.116100  0.062900  1.0
  C  C50  1  0.608500  0.062900  0.116100  1.0
  C  C51  1  0.062900  0.608500  0.212500  1.0
  C  C52  1  0.116100  0.212500  0.608500  1.0
  C  C53  1  0.116100  0.062900  0.212500  1.0
  C  C54  1  0.062900  0.116100  0.608500  1.0
  C  C55  1  0.608500  0.212500  0.062900  1.0
  C  C56  1  0.212500  0.608500  0.116100  1.0
  C  C57  1  0.062900  0.212500  0.116100  1.0
  C  C58  1  0.116100  0.608500  0.062900  1.0
  C  C59  1  0.212500  0.062900  0.608500  1.0
  C  C60  1  0.608500  0.116100  0.212500  1.0
  C  C61  1  0.391500  0.883900  0.937100  1.0
  C  C62  1  0.787500  0.937100  0.883900  1.0
  C  C63  1  0.883900  0.391500  0.787500  1.0
  C  C64  1  0.937100  0.787500  0.391500  1.0
  C  C65  1  0.391500  0.937100  0.787500  1.0
  C  C66  1  0.787500  0.883900  0.391500  1.0
  C  C67  1  0.883900  0.787500  0.937100  1.0
  C  C68  1  0.937100  0.391500  0.883900  1.0
  C  C69  1  0.391500  0.787500  0.883900  1.0
  C  C70  1  0.787500  0.391500  0.937100  1.0
  C  C71  1  0.883900  0.937100  0.391500  1.0
  C  C72  1  0.937100  0.883900  0.787500  1.0
  C  C73  1  0.681900  0.896300  0.951300  1.0
  C  C74  1  0.470500  0.951300  0.896300  1.0
  C  C75  1  0.951300  0.470500  0.681900  1.0
  C  C76  1  0.896300  0.681900  0.470500  1.0
  C  C77  1  0.896300  0.951300  0.681900  1.0
  C  C78  1  0.951300  0.896300  0.470500  1.0
  C  C79  1  0.470500  0.681900  0.951300  1.0
  C  C80  1  0.681900  0.470500  0.896300  1.0
  C  C81  1  0.951300  0.681900  0.896300  1.0
  C  C82  1  0.896300  0.470500  0.951300  1.0
  C  C83  1  0.681900  0.951300  0.470500  1.0
  C  C84  1  0.470500  0.896300  0.681900  1.0
  C  C85  1  0.529500  0.103700  0.048700  1.0
  C  C86  1  0.318100  0.048700  0.103700  1.0
  C  C87  1  0.103700  0.529500  0.318100  1.0
  C  C88  1  0.048700  0.318100  0.529500  1.0
  C  C89  1  0.529500  0.048700  0.318100  1.0
  C  C90  1  0.318100  0.103700  0.529500  1.0
  C  C91  1  0.103700  0.318100  0.048700  1.0
  C  C92  1  0.048700  0.529500  0.103700  1.0
  C  C93  1  0.529500  0.318100  0.103700  1.0
  C  C94  1  0.318100  0.529500  0.048700  1.0
  C  C95  1  0.103700  0.048700  0.529500  1.0
  C  C96  1  0.048700  0.103700  0.318100  1.0
  C  C97  1  0.318100  0.103700  0.048700  1.0
  C  C98  1  0.529500  0.048700  0.103700  1.0
  C  C99  1  0.048700  0.529500  0.318100  1.0
  C  C100  1  0.103700  0.318100  0.529500  1.0
  C  C101  1  0.103700  0.048700  0.318100  1.0
  C  C102  1  0.048700  0.103700  0.529500  1.0
  C  C103  1  0.529500  0.318100  0.048700  1.0
  C  C104  1  0.318100  0.529500  0.103700  1.0
  C  C105  1  0.048700  0.318100  0.103700  1.0
  C  C106  1  0.103700  0.529500  0.048700  1.0
  C  C107  1  0.318100  0.048700  0.529500  1.0
  C  C108  1  0.529500  0.103700  0.318100  1.0
  C  C109  1  0.470500  0.896300  0.951300  1.0
  C  C110  1  0.681900  0.951300  0.896300  1.0
  C  C111  1  0.896300  0.470500  0.681900  1.0
  C  C112  1  0.951300  0.681900  0.470500  1.0
  C  C113  1  0.470500  0.951300  0.681900  1.0
  C  C114  1  0.681900  0.896300  0.470500  1.0
  C  C115  1  0.896300  0.681900  0.951300  1.0
  C  C116  1  0.951300  0.470500  0.896300  1.0
  C  C117  1  0.470500  0.681900  0.896300  1.0
  C  C118  1  0.681900  0.470500  0.951300  1.0
  C  C119  1  0.896300  0.951300  0.470500  1.0
  C  C120  1  0.951300  0.896300  0.681900  1.0
  C  C121  1  0.732900  0.865500  0.970700  1.0
  C  C122  1  0.430900  0.970700  0.865500  1.0
  C  C123  1  0.970700  0.430900  0.732900  1.0
  C  C124  1  0.865500  0.732900  0.430900  1.0
  C  C125  1  0.865500  0.970700  0.732900  1.0
  C  C126  1  0.970700  0.865500  0.430900  1.0
  C  C127  1  0.430900  0.732900  0.970700  1.0
  C  C128  1  0.732900  0.430900  0.865500  1.0
  C  C129  1  0.970700  0.732900  0.865500  1.0
  C  C130  1  0.865500  0.430900  0.970700  1.0
  C  C131  1  0.732900  0.970700  0.430900  1.0
  C  C132  1  0.430900  0.865500  0.732900  1.0
  C  C133  1  0.569100  0.134500  0.029300  1.0
  C  C134  1  0.267100  0.029300  0.134500  1.0
  C  C135  1  0.134500  0.569100  0.267100  1.0
  C  C136  1  0.029300  0.267100  0.569100  1.0
  C  C137  1  0.569100  0.029300  0.267100  1.0
  C  C138  1  0.267100  0.134500  0.569100  1.0
  C  C139  1  0.134500  0.267100  0.029300  1.0
  C  C140  1  0.029300  0.569100  0.134500  1.0
  C  C141  1  0.569100  0.267100  0.134500  1.0
  C  C142  1  0.267100  0.569100  0.029300  1.0
  C  C143  1  0.134500  0.029300  0.569100  1.0
  C  C144  1  0.029300  0.134500  0.267100  1.0
  C  C145  1  0.267100  0.134500  0.029300  1.0
  C  C146  1  0.569100  0.029300  0.134500  1.0
  C  C147  1  0.029300  0.569100  0.267100  1.0
  C  C148  1  0.134500  0.267100  0.569100  1.0
  C  C149  1  0.134500  0.029300  0.267100  1.0
  C  C150  1  0.029300  0.134500  0.569100  1.0
  C  C151  1  0.569100  0.267100  0.029300  1.0
  C  C152  1  0.267100  0.569100  0.134500  1.0
  C  C153  1  0.029300  0.267100  0.134500  1.0
  C  C154  1  0.134500  0.569100  0.029300  1.0
  C  C155  1  0.267100  0.029300  0.569100  1.0
  C  C156  1  0.569100  0.134500  0.267100  1.0
  C  C157  1  0.430900  0.865500  0.970700  1.0
  C  C158  1  0.732900  0.970700  0.865500  1.0
  C  C159  1  0.865500  0.430900  0.732900  1.0
  C  C160  1  0.970700  0.732900  0.430900  1.0
  C  C161  1  0.430900  0.970700  0.732900  1.0
  C  C162  1  0.732900  0.865500  0.430900  1.0
  C  C163  1  0.865500  0.732900  0.970700  1.0
  C  C164  1  0.970700  0.430900  0.865500  1.0
  C  C165  1  0.430900  0.732900  0.865500  1.0
  C  C166  1  0.732900  0.430900  0.970700  1.0
  C  C167  1  0.865500  0.970700  0.430900  1.0
  C  C168  1  0.970700  0.865500  0.732900  1.0
  Cs  Cs169  1  0.820730  0.820730  0.820730  1
  Cs  Cs170  1  0.537810  0.820730  0.820730  1
  Cs  Cs171  1  0.820730  0.537810  0.820730  1
  Cs  Cs172  1  0.820730  0.820730  0.537810  1
  Cs  Cs173  1  0.462190  0.179270  0.179270  1
  Cs  Cs174  1  0.179270  0.179270  0.179270  1
  Cs  Cs175  1  0.179270  0.462190  0.179270  1
  Cs  Cs176  1  0.179270  0.179270  0.462190  1
  Cs  Cs177  1  0.688280  0.000000  0.000000  1
  Cs  Cs178  1  0.311720  1.000000  0.000000  1
  Cs  Cs179  1  0.000000  0.311720  0.688280  1
  Cs  Cs180  1  0.000000  0.688280  0.311720  1
  Cs  Cs181  1  0.000000  0.000000  0.688280  1
  Cs  Cs182  1  0.000000  1.000000  0.311720  1
  Cs  Cs183  1  0.311720  0.688280  0.000000  1
  Cs  Cs184  1  0.688280  0.311720  0.000000  1
  Cs  Cs185  1  0.000000  0.688280  0.000000  1
  Cs  Cs186  1  0.000000  0.311720  0.000000  1
  Cs  Cs187  1  0.688280  0.000000  0.311720  1
  Cs  Cs188  1  0.311720  0.000000  0.688280  1
  H  H189  1  0.868500  0.868500  0.947700  1.0
  H  H190  1  0.315300  0.947700  0.868500  1.0
  H  H191  1  0.947700  0.315300  0.868500  1.0
  H  H192  1  0.868500  0.868500  0.315300  1.0
  H  H193  1  0.868500  0.947700  0.868500  1.0
  H  H194  1  0.947700  0.868500  0.315300  1.0
  H  H195  1  0.315300  0.868500  0.947700  1.0
  H  H196  1  0.868500  0.315300  0.868500  1.0
  H  H197  1  0.947700  0.868500  0.868500  1.0
  H  H198  1  0.868500  0.315300  0.947700  1.0
  H  H199  1  0.868500  0.947700  0.315300  1.0
  H  H200  1  0.315300  0.868500  0.868500  1.0
  H  H201  1  0.684700  0.131500  0.052300  1.0
  H  H202  1  0.131500  0.052300  0.131500  1.0
  H  H203  1  0.131500  0.684700  0.131500  1.0
  H  H204  1  0.052300  0.131500  0.684700  1.0
  H  H205  1  0.684700  0.052300  0.131500  1.0
  H  H206  1  0.131500  0.131500  0.684700  1.0
  H  H207  1  0.131500  0.131500  0.052300  1.0
  H  H208  1  0.052300  0.684700  0.131500  1.0
  H  H209  1  0.684700  0.131500  0.131500  1.0
  H  H210  1  0.131500  0.684700  0.052300  1.0
  H  H211  1  0.131500  0.052300  0.684700  1.0
  H  H212  1  0.052300  0.131500  0.131500  1.0
  H  H213  1  0.827600  0.827600  0.007600  1.0
  H  H214  1  0.337200  0.007600  0.827600  1.0
  H  H215  1  0.007600  0.337200  0.827600  1.0
  H  H216  1  0.827600  0.827600  0.337200  1.0
  H  H217  1  0.827600  0.007600  0.827600  1.0
  H  H218  1  0.007600  0.827600  0.337200  1.0
  H  H219  1  0.337200  0.827600  0.007600  1.0
  H  H220  1  0.827600  0.337200  0.827600  1.0
  H  H221  1  0.007600  0.827600  0.827600  1.0
  H  H222  1  0.827600  0.337200  0.007600  1.0
  H  H223  1  0.827600  0.007600  0.337200  1.0
  H  H224  1  0.337200  0.827600  0.827600  1.0
  H  H225  1  0.662800  0.172400  0.992400  1.0
  H  H226  1  0.172400  0.992400  0.172400  1.0
  H  H227  1  0.172400  0.662800  0.172400  1.0
  H  H228  1  0.992400  0.172400  0.662800  1.0
  H  H229  1  0.662800  0.992400  0.172400  1.0
  H  H230  1  0.172400  0.172400  0.662800  1.0
  H  H231  1  0.172400  0.172400  0.992400  1.0
  H  H232  1  0.992400  0.662800  0.172400  1.0
  H  H233  1  0.662800  0.172400  0.172400  1.0
  H  H234  1  0.172400  0.662800  0.992400  1.0
  H  H235  1  0.172400  0.992400  0.662800  1.0
  H  H236  1  0.992400  0.172400  0.172400  1.0
  H  H237  1  0.732100  0.830700  0.007700  1.0
  H  H238  1  0.429500  0.007700  0.830700  1.0
  H  H239  1  0.007700  0.429500  0.732100  1.0
  H  H240  1  0.830700  0.732100  0.429500  1.0
  H  H241  1  0.830700  0.007700  0.732100  1.0
  H  H242  1  0.007700  0.830700  0.429500  1.0
  H  H243  1  0.429500  0.732100  0.007700  1.0
  H  H244  1  0.732100  0.429500  0.830700  1.0
  H  H245  1  0.007700  0.732100  0.830700  1.0
  H  H246  1  0.830700  0.429500  0.007700  1.0
  H  H247  1  0.732100  0.007700  0.429500  1.0
  H  H248  1  0.429500  0.830700  0.732100  1.0
  H  H249  1  0.570500  0.169300  0.992300  1.0
  H  H250  1  0.267900  0.992300  0.169300  1.0
  H  H251  1  0.169300  0.570500  0.267900  1.0
  H  H252  1  0.992300  0.267900  0.570500  1.0
  H  H253  1  0.570500  0.992300  0.267900  1.0
  H  H254  1  0.267900  0.169300  0.570500  1.0
  H  H255  1  0.169300  0.267900  0.992300  1.0
  H  H256  1  0.992300  0.570500  0.169300  1.0
  H  H257  1  0.570500  0.267900  0.169300  1.0
  H  H258  1  0.267900  0.570500  0.992300  1.0
  H  H259  1  0.169300  0.992300  0.570500  1.0
  H  H260  1  0.992300  0.169300  0.267900  1.0
  H  H261  1  0.267900  0.169300  0.992300  1.0
  H  H262  1  0.570500  0.992300  0.169300  1.0
  H  H263  1  0.992300  0.570500  0.267900  1.0
  H  H264  1  0.169300  0.267900  0.570500  1.0
  H  H265  1  0.169300  0.992300  0.267900  1.0
  H  H266  1  0.992300  0.169300  0.570500  1.0
  H  H267  1  0.570500  0.267900  0.992300  1.0
  H  H268  1  0.267900  0.570500  0.169300  1.0
  H  H269  1  0.992300  0.267900  0.169300  1.0
  H  H270  1  0.169300  0.570500  0.992300  1.0
  H  H271  1  0.267900  0.992300  0.570500  1.0
  H  H272  1  0.570500  0.169300  0.267900  1.0
  H  H273  1  0.429500  0.830700  0.007700  1.0
  H  H274  1  0.732100  0.007700  0.830700  1.0
  H  H275  1  0.830700  0.429500  0.732100  1.0
  H  H276  1  0.007700  0.732100  0.429500  1.0
  H  H277  1  0.429500  0.007700  0.732100  1.0
  H  H278  1  0.732100  0.830700  0.429500  1.0
  H  H279  1  0.830700  0.732100  0.007700  1.0
  H  H280  1  0.007700  0.429500  0.830700  1.0
  H  H281  1  0.429500  0.732100  0.830700  1.0
  H  H282  1  0.732100  0.429500  0.007700  1.0
  H  H283  1  0.830700  0.007700  0.429500  1.0
  H  H284  1  0.007700  0.830700  0.732100  1.0
  Mn  Mn285  1  0.554290  0.945710  0.945710  1.0
  Mn  Mn286  1  0.945710  0.554290  0.554290  1.0
  Mn  Mn287  1  0.945710  0.945710  0.554290  1.0
  Mn  Mn288  1  0.554290  0.554290  0.945710  1.0
  Mn  Mn289  1  0.945710  0.554290  0.945710  1.0
  Mn  Mn290  1  0.554290  0.945710  0.554290  1.0
  Mn  Mn291  1  0.445710  0.054290  0.054290  1.0
  Mn  Mn292  1  0.054290  0.445710  0.445710  1.0
  Mn  Mn293  1  0.445710  0.054290  0.445710  1.0
  Mn  Mn294  1  0.054290  0.445710  0.054290  1.0
  Mn  Mn295  1  0.445710  0.445710  0.054290  1.0
  Mn  Mn296  1  0.054290  0.054290  0.445710  1.0
  Na  Na297  1  0.687300  0.687300  0.120500  1
  Na  Na298  1  0.504900  0.120500  0.687300  1
  Na  Na299  1  0.120500  0.504900  0.687300  1
  Na  Na300  1  0.687300  0.687300  0.504900  1
  Na  Na301  1  0.687300  0.120500  0.687300  1
  Na  Na302  1  0.120500  0.687300  0.504900  1
  Na  Na303  1  0.504900  0.687300  0.120500  1
  Na  Na304  1  0.687300  0.504900  0.687300  1
  Na  Na305  1  0.120500  0.687300  0.687300  1
  Na  Na306  1  0.687300  0.504900  0.120500  1
  Na  Na307  1  0.687300  0.120500  0.504900  1
  Na  Na308  1  0.504900  0.687300  0.687300  1
  Na  Na309  1  0.495100  0.312700  0.879500  1
  Na  Na310  1  0.312700  0.879500  0.312700  1
  Na  Na311  1  0.312700  0.495100  0.312700  1
  Na  Na312  1  0.879500  0.312700  0.495100  1
  Na  Na313  1  0.495100  0.879500  0.312700  1
  Na  Na314  1  0.312700  0.312700  0.495100  1
  Na  Na315  1  0.312700  0.312700  0.879500  1
  Na  Na316  1  0.879500  0.495100  0.312700  1
  Na  Na317  1  0.495100  0.312700  0.312700  1
  Na  Na318  1  0.312700  0.495100  0.879500  1
  Na  Na319  1  0.312700  0.879500  0.495100  1
  Na  Na320  1  0.879500  0.312700  0.312700  1
  Na  Na321  1  0.750000  0.750000  0.750000  1
  Na  Na322  1  0.250000  0.250000  0.250000  1
  O  O323  1  0.587000  0.904200  0.095800  1
  O  O324  1  0.413000  0.095800  0.904200  1
  O  O325  1  0.095800  0.413000  0.587000  1
  O  O326  1  0.904200  0.587000  0.413000  1
  O  O327  1  0.904200  0.095800  0.587000  1
  O  O328  1  0.095800  0.904200  0.413000  1
  O  O329  1  0.413000  0.587000  0.095800  1
  O  O330  1  0.587000  0.413000  0.904200  1
  O  O331  1  0.095800  0.587000  0.904200  1
  O  O332  1  0.904200  0.413000  0.095800  1
  O  O333  1  0.587000  0.095800  0.413000  1
  O  O334  1  0.413000  0.904200  0.587000  1
  O  O335  1  0.587000  0.095800  0.904200  1
  O  O336  1  0.413000  0.904200  0.095800  1
  O  O337  1  0.095800  0.587000  0.413000  1
  O  O338  1  0.904200  0.413000  0.587000  1
  O  O339  1  0.587000  0.904200  0.413000  1
  O  O340  1  0.413000  0.095800  0.587000  1
  O  O341  1  0.095800  0.413000  0.904200  1
  O  O342  1  0.904200  0.587000  0.095800  1
  O  O343  1  0.587000  0.413000  0.095800  1
  O  O344  1  0.413000  0.587000  0.904200  1
  O  O345  1  0.095800  0.904200  0.587000  1
  O  O346  1  0.904200  0.095800  0.413000  1
  O  O347  1  0.670500  0.848700  0.151300  1
  O  O348  1  0.329500  0.151300  0.848700  1
  O  O349  1  0.151300  0.329500  0.670500  1
  O  O350  1  0.848700  0.670500  0.329500  1
  O  O351  1  0.848700  0.151300  0.670500  1
  O  O352  1  0.151300  0.848700  0.329500  1
  O  O353  1  0.329500  0.670500  0.151300  1
  O  O354  1  0.670500  0.329500  0.848700  1
  O  O355  1  0.151300  0.670500  0.848700  1
  O  O356  1  0.848700  0.329500  0.151300  1
  O  O357  1  0.670500  0.151300  0.329500  1
  O  O358  1  0.329500  0.848700  0.670500  1
  O  O359  1  0.670500  0.151300  0.848700  1
  O  O360  1  0.329500  0.848700  0.151300  1
  O  O361  1  0.151300  0.670500  0.329500  1
  O  O362  1  0.848700  0.329500  0.670500  1
  O  O363  1  0.670500  0.848700  0.329500  1
  O  O364  1  0.329500  0.151300  0.670500  1
  O  O365  1  0.151300  0.329500  0.848700  1
  O  O366  1  0.848700  0.670500  0.151300  1
  O  O367  1  0.670500  0.329500  0.151300  1
  O  O368  1  0.329500  0.670500  0.848700  1
  O  O369  1  0.151300  0.848700  0.670500  1
  O  O370  1  0.848700  0.151300  0.329500  1
  O  O371  1  0.771600  0.880200  0.119800  1
  O  O372  1  0.228400  0.119800  0.880200  1
  O  O373  1  0.119800  0.228400  0.771600  1
  O  O374  1  0.880200  0.771600  0.228400  1
  O  O375  1  0.880200  0.119800  0.771600  1
  O  O376  1  0.119800  0.880200  0.228400  1
  O  O377  1  0.228400  0.771600  0.119800  1
  O  O378  1  0.771600  0.228400  0.880200  1
  O  O379  1  0.119800  0.771600  0.880200  1
  O  O380  1  0.880200  0.228400  0.119800  1
  O  O381  1  0.771600  0.119800  0.228400  1
  O  O382  1  0.228400  0.880200  0.771600  1
  O  O383  1  0.771600  0.119800  0.880200  1
  O  O384  1  0.228400  0.880200  0.119800  1
  O  O385  1  0.119800  0.771600  0.228400  1
  O  O386  1  0.880200  0.228400  0.771600  1
  O  O387  1  0.771600  0.880200  0.228400  1
  O  O388  1  0.228400  0.119800  0.771600  1
  O  O389  1  0.119800  0.228400  0.880200  1
  O  O390  1  0.880200  0.771600  0.119800  1
  O  O391  1  0.771600  0.228400  0.119800  1
  O  O392  1  0.228400  0.771600  0.880200  1
  O  O393  1  0.119800  0.880200  0.771600  1
  O  O394  1  0.880200  0.119800  0.228400  1
  O  O395  1  0.733900  0.733900  0.151900  1
  O  O396  1  0.380300  0.151900  0.733900  1
  O  O397  1  0.151900  0.380300  0.733900  1
  O  O398  1  0.733900  0.733900  0.380300  1
  O  O399  1  0.733900  0.151900  0.733900  1
  O  O400  1  0.151900  0.733900  0.380300  1
  O  O401  1  0.380300  0.733900  0.151900  1
  O  O402  1  0.733900  0.380300  0.733900  1
  O  O403  1  0.151900  0.733900  0.733900  1
  O  O404  1  0.733900  0.380300  0.151900  1
  O  O405  1  0.733900  0.151900  0.380300  1
  O  O406  1  0.380300  0.733900  0.733900  1
  O  O407  1  0.619700  0.266100  0.848100  1
  O  O408  1  0.266100  0.848100  0.266100  1
  O  O409  1  0.266100  0.619700  0.266100  1
  O  O410  1  0.848100  0.266100  0.619700  1
  O  O411  1  0.619700  0.848100  0.266100  1
  O  O412  1  0.266100  0.266100  0.619700  1
  O  O413  1  0.266100  0.266100  0.848100  1
  O  O414  1  0.848100  0.619700  0.266100  1
  O  O415  1  0.619700  0.266100  0.266100  1
  O  O416  1  0.266100  0.619700  0.848100  1
  O  O417  1  0.266100  0.848100  0.619700  1
  O  O418  1  0.848100  0.266100  0.266100  1
  O  O419  1  0.482100  0.016300  0.983700  1
  O  O420  1  0.517900  0.983700  0.016300  1
  O  O421  1  0.983700  0.517900  0.482100  1
  O  O422  1  0.016300  0.482100  0.517900  1
  O  O423  1  0.016300  0.983700  0.482100  1
  O  O424  1  0.983700  0.016300  0.517900  1
  O  O425  1  0.517900  0.482100  0.983700  1
  O  O426  1  0.482100  0.517900  0.016300  1
  O  O427  1  0.983700  0.482100  0.016300  1
  O  O428  1  0.016300  0.517900  0.983700  1
  O  O429  1  0.482100  0.983700  0.517900  1
  O  O430  1  0.517900  0.016300  0.482100  1
  O  O431  1  0.482100  0.983700  0.016300  1
  O  O432  1  0.517900  0.016300  0.983700  1
  O  O433  1  0.983700  0.482100  0.517900  1
  O  O434  1  0.016300  0.517900  0.482100  1
  O  O435  1  0.482100  0.016300  0.517900  1
  O  O436  1  0.517900  0.983700  0.482100  1
  O  O437  1  0.983700  0.517900  0.016300  1
  O  O438  1  0.016300  0.482100  0.983700  1
  O  O439  1  0.482100  0.517900  0.983700  1
  O  O440  1  0.517900  0.482100  0.016300  1
  O  O441  1  0.983700  0.016300  0.482100  1
  O  O442  1  0.016300  0.983700  0.517900  1
  O  O443  1  0.683700  0.869300  0.130700  1
  O  O444  1  0.316300  0.130700  0.869300  1
  O  O445  1  0.130700  0.316300  0.683700  1
  O  O446  1  0.869300  0.683700  0.316300  1
  O  O447  1  0.869300  0.130700  0.683700  1
  O  O448  1  0.130700  0.869300  0.316300  1
  O  O449  1  0.316300  0.683700  0.130700  1
  O  O450  1  0.683700  0.316300  0.869300  1
  O  O451  1  0.130700  0.683700  0.869300  1
  O  O452  1  0.869300  0.316300  0.130700  1
  O  O453  1  0.683700  0.130700  0.316300  1
  O  O454  1  0.316300  0.869300  0.683700  1
  O  O455  1  0.683700  0.130700  0.869300  1
  O  O456  1  0.316300  0.869300  0.130700  1
  O  O457  1  0.130700  0.683700  0.316300  1
  O  O458  1  0.869300  0.316300  0.683700  1
  O  O459  1  0.683700  0.869300  0.316300  1
  O  O460  1  0.316300  0.130700  0.683700  1
  O  O461  1  0.130700  0.316300  0.869300  1
  O  O462  1  0.869300  0.683700  0.130700  1
  O  O463  1  0.683700  0.316300  0.130700  1
  O  O464  1  0.316300  0.683700  0.869300  1
  O  O465  1  0.130700  0.869300  0.683700  1
  O  O466  1  0.869300  0.130700  0.316300  1
  O  O467  1  0.793300  0.893500  0.106500  1
  O  O468  1  0.206700  0.106500  0.893500  1
  O  O469  1  0.106500  0.206700  0.793300  1
  O  O470  1  0.893500  0.793300  0.206700  1
  O  O471  1  0.893500  0.106500  0.793300  1
  O  O472  1  0.106500  0.893500  0.206700  1
  O  O473  1  0.206700  0.793300  0.106500  1
  O  O474  1  0.793300  0.206700  0.893500  1
  O  O475  1  0.106500  0.793300  0.893500  1
  O  O476  1  0.893500  0.206700  0.106500  1
  O  O477  1  0.793300  0.106500  0.206700  1
  O  O478  1  0.206700  0.893500  0.793300  1
  O  O479  1  0.793300  0.106500  0.893500  1
  O  O480  1  0.206700  0.893500  0.106500  1
  O  O481  1  0.106500  0.793300  0.206700  1
  O  O482  1  0.893500  0.206700  0.793300  1
  O  O483  1  0.793300  0.893500  0.206700  1
  O  O484  1  0.206700  0.106500  0.793300  1
  O  O485  1  0.106500  0.206700  0.893500  1
  O  O486  1  0.893500  0.793300  0.106500  1
  O  O487  1  0.793300  0.206700  0.106500  1
  O  O488  1  0.206700  0.793300  0.893500  1
  O  O489  1  0.106500  0.893500  0.793300  1
  O  O490  1  0.893500  0.106500  0.206700  1
  O  O491  1  0.810400  0.988200  0.011800  1
  O  O492  1  0.189600  0.011800  0.988200  1
  O  O493  1  0.011800  0.189600  0.810400  1
  O  O494  1  0.988200  0.810400  0.189600  1
  O  O495  1  0.988200  0.011800  0.810400  1
  O  O496  1  0.011800  0.988200  0.189600  1
  O  O497  1  0.189600  0.810400  0.011800  1
  O  O498  1  0.810400  0.189600  0.988200  1
  O  O499  1  0.011800  0.810400  0.988200  1
  O  O500  1  0.988200  0.189600  0.011800  1
  O  O501  1  0.810400  0.011800  0.189600  1
  O  O502  1  0.189600  0.988200  0.810400  1
  O  O503  1  0.810400  0.011800  0.988200  1
  O  O504  1  0.189600  0.988200  0.011800  1
  O  O505  1  0.011800  0.810400  0.189600  1
  O  O506  1  0.988200  0.189600  0.810400  1
  O  O507  1  0.810400  0.988200  0.189600  1
  O  O508  1  0.189600  0.011800  0.810400  1
  O  O509  1  0.011800  0.189600  0.988200  1
  O  O510  1  0.988200  0.810400  0.011800  1
  O  O511  1  0.810400  0.189600  0.011800  1
  O  O512  1  0.189600  0.810400  0.988200  1
  O  O513  1  0.011800  0.988200  0.810400  1
  O  O514  1  0.988200  0.011800  0.189600  1
  O  O515  1  0.697000  0.771800  0.932800  1.0
  O  O516  1  0.598400  0.932800  0.771800  1.0
  O  O517  1  0.932800  0.598400  0.697000  1.0
  O  O518  1  0.771800  0.697000  0.598400  1.0
  O  O519  1  0.771800  0.932800  0.697000  1.0
  O  O520  1  0.932800  0.771800  0.598400  1.0
  O  O521  1  0.598400  0.697000  0.932800  1.0
  O  O522  1  0.697000  0.598400  0.771800  1.0
  O  O523  1  0.932800  0.697000  0.771800  1.0
  O  O524  1  0.771800  0.598400  0.932800  1.0
  O  O525  1  0.697000  0.932800  0.598400  1.0
  O  O526  1  0.598400  0.771800  0.697000  1.0
  O  O527  1  0.401600  0.228200  0.067200  1.0
  O  O528  1  0.303000  0.067200  0.228200  1.0
  O  O529  1  0.228200  0.401600  0.303000  1.0
  O  O530  1  0.067200  0.303000  0.401600  1.0
  O  O531  1  0.401600  0.067200  0.303000  1.0
  O  O532  1  0.303000  0.228200  0.401600  1.0
  O  O533  1  0.228200  0.303000  0.067200  1.0
  O  O534  1  0.067200  0.401600  0.228200  1.0
  O  O535  1  0.401600  0.303000  0.228200  1.0
  O  O536  1  0.303000  0.401600  0.067200  1.0
  O  O537  1  0.228200  0.067200  0.401600  1.0
  O  O538  1  0.067200  0.228200  0.303000  1.0
  O  O539  1  0.303000  0.228200  0.067200  1.0
  O  O540  1  0.401600  0.067200  0.228200  1.0
  O  O541  1  0.067200  0.401600  0.303000  1.0
  O  O542  1  0.228200  0.303000  0.401600  1.0
  O  O543  1  0.228200  0.067200  0.303000  1.0
  O  O544  1  0.067200  0.228200  0.401600  1.0
  O  O545  1  0.401600  0.303000  0.067200  1.0
  O  O546  1  0.303000  0.401600  0.228200  1.0
  O  O547  1  0.067200  0.303000  0.228200  1.0
  O  O548  1  0.228200  0.401600  0.067200  1.0
  O  O549  1  0.303000  0.067200  0.401600  1.0
  O  O550  1  0.401600  0.228200  0.303000  1.0
  O  O551  1  0.598400  0.771800  0.932800  1.0
  O  O552  1  0.697000  0.932800  0.771800  1.0
  O  O553  1  0.771800  0.598400  0.697000  1.0
  O  O554  1  0.932800  0.697000  0.598400  1.0
  O  O555  1  0.598400  0.932800  0.697000  1.0
  O  O556  1  0.697000  0.771800  0.598400  1.0
  O  O557  1  0.771800  0.697000  0.932800  1.0
  O  O558  1  0.932800  0.598400  0.771800  1.0
  O  O559  1  0.598400  0.697000  0.771800  1.0
  O  O560  1  0.697000  0.598400  0.932800  1.0
  O  O561  1  0.771800  0.932800  0.598400  1.0
  O  O562  1  0.932800  0.771800  0.697000  1.0
  O  O563  1  0.661600  0.761200  0.014200  1.0
  O  O564  1  0.563000  0.014200  0.761200  1.0
  O  O565  1  0.014200  0.563000  0.661600  1.0
  O  O566  1  0.761200  0.661600  0.563000  1.0
  O  O567  1  0.761200  0.014200  0.661600  1.0
  O  O568  1  0.014200  0.761200  0.563000  1.0
  O  O569  1  0.563000  0.661600  0.014200  1.0
  O  O570  1  0.661600  0.563000  0.761200  1.0
  O  O571  1  0.014200  0.661600  0.761200  1.0
  O  O572  1  0.761200  0.563000  0.014200  1.0
  O  O573  1  0.661600  0.014200  0.563000  1.0
  O  O574  1  0.563000  0.761200  0.661600  1.0
  O  O575  1  0.437000  0.238800  0.985800  1.0
  O  O576  1  0.338400  0.985800  0.238800  1.0
  O  O577  1  0.238800  0.437000  0.338400  1.0
  O  O578  1  0.985800  0.338400  0.437000  1.0
  O  O579  1  0.437000  0.985800  0.338400  1.0
  O  O580  1  0.338400  0.238800  0.437000  1.0
  O  O581  1  0.238800  0.338400  0.985800  1.0
  O  O582  1  0.985800  0.437000  0.238800  1.0
  O  O583  1  0.437000  0.338400  0.238800  1.0
  O  O584  1  0.338400  0.437000  0.985800  1.0
  O  O585  1  0.238800  0.985800  0.437000  1.0
  O  O586  1  0.985800  0.238800  0.338400  1.0
  O  O587  1  0.338400  0.238800  0.985800  1.0
  O  O588  1  0.437000  0.985800  0.238800  1.0
  O  O589  1  0.985800  0.437000  0.338400  1.0
  O  O590  1  0.238800  0.338400  0.437000  1.0
  O  O591  1  0.238800  0.985800  0.338400  1.0
  O  O592  1  0.985800  0.238800  0.437000  1.0
  O  O593  1  0.437000  0.338400  0.985800  1.0
  O  O594  1  0.338400  0.437000  0.238800  1.0
  O  O595  1  0.985800  0.338400  0.238800  1.0
  O  O596  1  0.238800  0.437000  0.985800  1.0
  O  O597  1  0.338400  0.985800  0.437000  1.0
  O  O598  1  0.437000  0.238800  0.338400  1.0
  O  O599  1  0.563000  0.761200  0.014200  1.0
  O  O600  1  0.661600  0.014200  0.761200  1.0
  O  O601  1  0.761200  0.563000  0.661600  1.0
  O  O602  1  0.014200  0.661600  0.563000  1.0
  O  O603  1  0.563000  0.014200  0.661600  1.0
  O  O604  1  0.661600  0.761200  0.563000  1.0
  O  O605  1  0.761200  0.661600  0.014200  1.0
  O  O606  1  0.014200  0.563000  0.761200  1.0
  O  O607  1  0.563000  0.661600  0.761200  1.0
  O  O608  1  0.661600  0.563000  0.014200  1.0
  O  O609  1  0.761200  0.014200  0.563000  1.0
  O  O610  1  0.014200  0.761200  0.661600  1.0
  O  O611  1  0.616500  0.792100  0.092500  1.0
  O  O612  1  0.498900  0.092500  0.792100  1.0
  O  O613  1  0.092500  0.498900  0.616500  1.0
  O  O614  1  0.792100  0.616500  0.498900  1.0
  O  O615  1  0.792100  0.092500  0.616500  1.0
  O  O616  1  0.092500  0.792100  0.498900  1.0
  O  O617  1  0.498900  0.616500  0.092500  1.0
  O  O618  1  0.616500  0.498900  0.792100  1.0
  O  O619  1  0.092500  0.616500  0.792100  1.0
  O  O620  1  0.792100  0.498900  0.092500  1.0
  O  O621  1  0.616500  0.092500  0.498900  1.0
  O  O622  1  0.498900  0.792100  0.616500  1.0
  O  O623  1  0.501100  0.207900  0.907500  1.0
  O  O624  1  0.383500  0.907500  0.207900  1.0
  O  O625  1  0.207900  0.501100  0.383500  1.0
  O  O626  1  0.907500  0.383500  0.501100  1.0
  O  O627  1  0.501100  0.907500  0.383500  1.0
  O  O628  1  0.383500  0.207900  0.501100  1.0
  O  O629  1  0.207900  0.383500  0.907500  1.0
  O  O630  1  0.907500  0.501100  0.207900  1.0
  O  O631  1  0.501100  0.383500  0.207900  1.0
  O  O632  1  0.383500  0.501100  0.907500  1.0
  O  O633  1  0.207900  0.907500  0.501100  1.0
  O  O634  1  0.907500  0.207900  0.383500  1.0
  O  O635  1  0.383500  0.207900  0.907500  1.0
  O  O636  1  0.501100  0.907500  0.207900  1.0
  O  O637  1  0.907500  0.501100  0.383500  1.0
  O  O638  1  0.207900  0.383500  0.501100  1.0
  O  O639  1  0.207900  0.907500  0.383500  1.0
  O  O640  1  0.907500  0.207900  0.501100  1.0
  O  O641  1  0.501100  0.383500  0.907500  1.0
  O  O642  1  0.383500  0.501100  0.207900  1.0
  O  O643  1  0.907500  0.383500  0.207900  1.0
  O  O644  1  0.207900  0.501100  0.907500  1.0
  O  O645  1  0.383500  0.907500  0.501100  1.0
  O  O646  1  0.501100  0.207900  0.383500  1.0
  O  O647  1  0.498900  0.792100  0.092500  1.0
  O  O648  1  0.616500  0.092500  0.792100  1.0
  O  O649  1  0.792100  0.498900  0.616500  1.0
  O  O650  1  0.092500  0.616500  0.498900  1.0
  O  O651  1  0.498900  0.092500  0.616500  1.0
  O  O652  1  0.616500  0.792100  0.498900  1.0
  O  O653  1  0.792100  0.616500  0.092500  1.0
  O  O654  1  0.092500  0.498900  0.792100  1.0
  O  O655  1  0.498900  0.616500  0.792100  1.0
  O  O656  1  0.616500  0.498900  0.092500  1.0
  O  O657  1  0.792100  0.092500  0.498900  1.0
  O  O658  1  0.092500  0.792100  0.616500  1.0
  O  O659  1  0.684100  0.815900  0.815900  1.0
  O  O660  1  0.815900  0.684100  0.684100  1.0
  O  O661  1  0.815900  0.815900  0.684100  1.0
  O  O662  1  0.684100  0.684100  0.815900  1.0
  O  O663  1  0.815900  0.684100  0.815900  1.0
  O  O664  1  0.684100  0.815900  0.684100  1.0
  O  O665  1  0.315900  0.184100  0.184100  1.0
  O  O666  1  0.184100  0.315900  0.315900  1.0
  O  O667  1  0.315900  0.184100  0.315900  1.0
  O  O668  1  0.184100  0.315900  0.184100  1.0
  O  O669  1  0.315900  0.315900  0.184100  1.0
  O  O670  1  0.184100  0.184100  0.315900  1.0
  O  O671  1  0.629150  0.878810  0.983790  1.0
  O  O672  1  0.508250  0.983790  0.878810  1.0
  O  O673  1  0.983790  0.508250  0.629150  1.0
  O  O674  1  0.878810  0.629150  0.508250  1.0
  O  O675  1  0.878810  0.983790  0.629150  1.0
  O  O676  1  0.983790  0.878810  0.508250  1.0
  O  O677  1  0.508250  0.629150  0.983790  1.0
  O  O678  1  0.629150  0.508250  0.878810  1.0
  O  O679  1  0.983790  0.629150  0.878810  1.0
  O  O680  1  0.878810  0.508250  0.983790  1.0
  O  O681  1  0.629150  0.983790  0.508250  1.0
  O  O682  1  0.508250  0.878810  0.629150  1.0
  O  O683  1  0.491750  0.121190  0.016210  1.0
  O  O684  1  0.370850  0.016210  0.121190  1.0
  O  O685  1  0.121190  0.491750  0.370850  1.0
  O  O686  1  0.016210  0.370850  0.491750  1.0
  O  O687  1  0.491750  0.016210  0.370850  1.0
  O  O688  1  0.370850  0.121190  0.491750  1.0
  O  O689  1  0.121190  0.370850  0.016210  1.0
  O  O690  1  0.016210  0.491750  0.121190  1.0
  O  O691  1  0.491750  0.370850  0.121190  1.0
  O  O692  1  0.370850  0.491750  0.016210  1.0
  O  O693  1  0.121190  0.016210  0.491750  1.0
  O  O694  1  0.016210  0.121190  0.370850  1.0
  O  O695  1  0.370850  0.121190  0.016210  1.0
  O  O696  1  0.491750  0.016210  0.121190  1.0
  O  O697  1  0.016210  0.491750  0.370850  1.0
  O  O698  1  0.121190  0.370850  0.491750  1.0
  O  O699  1  0.121190  0.016210  0.370850  1.0
  O  O700  1  0.016210  0.121190  0.491750  1.0
  O  O701  1  0.491750  0.370850  0.016210  1.0
  O  O702  1  0.370850  0.491750  0.121190  1.0
  O  O703  1  0.016210  0.370850  0.121190  1.0
  O  O704  1  0.121190  0.491750  0.016210  1.0
  O  O705  1  0.370850  0.016210  0.491750  1.0
  O  O706  1  0.491750  0.121190  0.370850  1.0
  O  O707  1  0.508250  0.878810  0.983790  1.0
  O  O708  1  0.629150  0.983790  0.878810  1.0
  O  O709  1  0.878810  0.508250  0.629150  1.0
  O  O710  1  0.983790  0.629150  0.508250  1.0
  O  O711  1  0.508250  0.983790  0.629150  1.0
  O  O712  1  0.629150  0.878810  0.508250  1.0
  O  O713  1  0.878810  0.629150  0.983790  1.0
  O  O714  1  0.983790  0.508250  0.878810  1.0
  O  O715  1  0.508250  0.629150  0.878810  1.0
  O  O716  1  0.629150  0.508250  0.983790  1.0
  O  O717  1  0.878810  0.983790  0.508250  1.0
  O  O718  1  0.983790  0.878810  0.629150  1.0
