# generated using pymatgen
data_Ca4V3H24C54O37
_symmetry_space_group_name_H-M   'P 1'
_cell_length_a   21.16960000
_cell_length_b   21.16960000
_cell_length_c   28.10638209
_cell_angle_alpha   112.12309745
_cell_angle_beta   112.12309745
_cell_angle_gamma   90.00000000
_symmetry_Int_Tables_number   1
_chemical_formula_structural   Ca4V3H24C54O37
_chemical_formula_sum   'Ca16 V12 H96 C216 O148'
_cell_volume   10660.86299942
_cell_formula_units_Z   4
loop_
 _symmetry_equiv_pos_site_id
 _symmetry_equiv_pos_as_xyz
  1  'x, y, z'
loop_
 _atom_site_type_symbol
 _atom_site_label
 _atom_site_symmetry_multiplicity
 _atom_site_fract_x
 _atom_site_fract_y
 _atom_site_fract_z
 _atom_site_occupancy
  C  C1  1  0.264240  0.201540  0.845480  1
  C  C2  1  0.581240  0.143940  0.845480  1
  C  C3  1  0.643940  0.764240  0.345480  1
  C  C4  1  0.701540  0.081240  0.345480  1
  C  C5  1  0.735760  0.798460  0.154520  1
  C  C6  1  0.418760  0.856060  0.154520  1
  C  C7  1  0.356060  0.235760  0.654520  1
  C  C8  1  0.298460  0.918760  0.654520  1
  C  C9  1  0.339930  0.213430  0.878660  1
  C  C10  1  0.538730  0.165230  0.878660  1
  C  C11  1  0.665230  0.839930  0.378660  1
  C  C12  1  0.713430  0.038730  0.378660  1
  C  C13  1  0.660070  0.786570  0.121340  1
  C  C14  1  0.461270  0.834770  0.121340  1
  C  C15  1  0.334770  0.160070  0.621340  1
  C  C16  1  0.286570  0.961270  0.621340  1
  C  C17  1  0.284990  0.231990  0.779180  1
  C  C18  1  0.494190  0.047190  0.779180  1
  C  C19  1  0.547190  0.784990  0.279180  1
  C  C20  1  0.731990  0.994190  0.279180  1
  C  C21  1  0.715010  0.768010  0.220820  1
  C  C22  1  0.505810  0.952810  0.220820  1
  C  C23  1  0.452810  0.215010  0.720820  1
  C  C24  1  0.268010  0.005810  0.720820  1
  C  C25  1  0.361300  0.245800  0.814600  1
  C  C26  1  0.453300  0.068800  0.814600  1
  C  C27  1  0.568800  0.861300  0.314600  1
  C  C28  1  0.745800  0.953300  0.314600  1
  C  C29  1  0.638700  0.754200  0.185400  1
  C  C30  1  0.546700  0.931200  0.185400  1
  C  C31  1  0.431200  0.138700  0.685400  1
  C  C32  1  0.254200  0.046700  0.685400  1
  C  C33  1  0.255300  0.079400  0.780000  1
  C  C34  1  0.524700  0.200600  0.780000  1
  C  C35  1  0.700600  0.755300  0.280000  1
  C  C36  1  0.579400  0.024700  0.280000  1
  C  C37  1  0.744700  0.920600  0.220000  1
  C  C38  1  0.475300  0.799400  0.220000  1
  C  C39  1  0.299400  0.244700  0.720000  1
  C  C40  1  0.420600  0.975300  0.720000  1
  C  C41  1  0.332700  0.086800  0.813800  1
  C  C42  1  0.481100  0.227000  0.813800  1
  C  C43  1  0.727000  0.832700  0.313800  1
  C  C44  1  0.586800  0.981100  0.313800  1
  C  C45  1  0.667300  0.913200  0.186200  1
  C  C46  1  0.518900  0.773000  0.186200  1
  C  C47  1  0.273000  0.167300  0.686200  1
  C  C48  1  0.413200  0.018900  0.686200  1
  C  C49  1  0.389700  0.258400  0.026200  1.0
  C  C50  1  0.636500  0.267800  0.026200  1.0
  C  C51  1  0.767800  0.889700  0.526200  1.0
  C  C52  1  0.758400  0.136500  0.526200  1.0
  C  C53  1  0.610300  0.741600  0.973800  1.0
  C  C54  1  0.363500  0.732200  0.973800  1.0
  C  C55  1  0.232200  0.110300  0.473800  1.0
  C  C56  1  0.241600  0.863500  0.473800  1.0
  C  C57  1  0.323070  0.232570  0.011940  1.0
  C  C58  1  0.688870  0.279370  0.011940  1.0
  C  C59  1  0.779370  0.823070  0.511940  1.0
  C  C60  1  0.732570  0.188870  0.511940  1.0
  C  C61  1  0.676930  0.767430  0.988060  1.0
  C  C62  1  0.311130  0.720630  0.988060  1.0
  C  C63  1  0.220630  0.176930  0.488060  1.0
  C  C64  1  0.267430  0.811130  0.488060  1.0
  C  C65  1  0.276820  0.395520  0.690640  1.0
  C  C66  1  0.413820  0.795120  0.690640  1.0
  C  C67  1  0.295120  0.776820  0.190640  1.0
  C  C68  1  0.895520  0.913820  0.190640  1.0
  C  C69  1  0.723180  0.604480  0.309360  1.0
  C  C70  1  0.586180  0.204880  0.309360  1.0
  C  C71  1  0.704880  0.223180  0.809360  1.0
  C  C72  1  0.104480  0.086180  0.809360  1.0
  C  C73  1  0.321770  0.384370  0.620540  1.0
  C  C74  1  0.298770  0.736170  0.620540  1.0
  C  C75  1  0.236170  0.821770  0.120540  1.0
  C  C76  1  0.884370  0.798770  0.120540  1.0
  C  C77  1  0.678230  0.615630  0.379460  1.0
  C  C78  1  0.701230  0.263830  0.379460  1.0
  C  C79  1  0.763830  0.178230  0.879460  1.0
  C  C80  1  0.115630  0.201230  0.879460  1.0
  C  C81  1  0.137710  0.315410  0.875820  1.0
  C  C82  1  0.738110  0.060410  0.875820  1.0
  C  C83  1  0.560410  0.637710  0.375820  1.0
  C  C84  1  0.815410  0.238110  0.375820  1.0
  C  C85  1  0.862290  0.684590  0.124180  1.0
  C  C86  1  0.261890  0.939590  0.124180  1.0
  C  C87  1  0.439590  0.362290  0.624180  1.0
  C  C88  1  0.184590  0.761890  0.624180  1.0
  C  C89  1  0.227340  0.374940  0.978280  1.0
  C  C90  1  0.750940  0.103340  0.978280  1.0
  C  C91  1  0.603340  0.727340  0.478280  1.0
  C  C92  1  0.874940  0.250940  0.478280  1.0
  C  C93  1  0.772660  0.625060  0.021720  1.0
  C  C94  1  0.249060  0.896660  0.021720  1.0
  C  C95  1  0.396660  0.272660  0.521720  1.0
  C  C96  1  0.125060  0.749060  0.521720  1.0
  C  C97  1  0.210100  0.323100  0.593000  1.0
  C  C98  1  0.382900  0.769900  0.593000  1.0
  C  C99  1  0.269900  0.710100  0.093000  1.0
  C  C100  1  0.823100  0.882900  0.093000  1.0
  C  C101  1  0.789900  0.676900  0.407000  1.0
  C  C102  1  0.617100  0.230100  0.407000  1.0
  C  C103  1  0.730100  0.289900  0.907000  1.0
  C  C104  1  0.176900  0.117100  0.907000  1.0
  C  C105  1  0.237250  0.394350  0.898300  1.0
  C  C106  1  0.661050  0.003950  0.898300  1.0
  C  C107  1  0.503950  0.737250  0.398300  1.0
  C  C108  1  0.894350  0.161050  0.398300  1.0
  C  C109  1  0.762750  0.605650  0.101700  1.0
  C  C110  1  0.338950  0.996050  0.101700  1.0
  C  C111  1  0.496050  0.262750  0.601700  1.0
  C  C112  1  0.105650  0.838950  0.601700  1.0
  C  C113  1  0.404650  0.322450  0.025700  1.0
  C  C114  1  0.621050  0.203250  0.025700  1.0
  C  C115  1  0.703250  0.904650  0.525700  1.0
  C  C116  1  0.822450  0.121050  0.525700  1.0
  C  C117  1  0.595350  0.677550  0.974300  1.0
  C  C118  1  0.378950  0.796750  0.974300  1.0
  C  C119  1  0.296750  0.095350  0.474300  1.0
  C  C120  1  0.177550  0.878950  0.474300  1.0
  C  C121  1  0.328450  0.413150  0.677500  1.0
  C  C122  1  0.349050  0.764350  0.677500  1.0
  C  C123  1  0.264350  0.828450  0.177500  1.0
  C  C124  1  0.913150  0.849050  0.177500  1.0
  C  C125  1  0.671550  0.586850  0.322500  1.0
  C  C126  1  0.650950  0.235650  0.322500  1.0
  C  C127  1  0.735650  0.171550  0.822500  1.0
  C  C128  1  0.086850  0.150950  0.822500  1.0
  C  C129  1  0.153380  0.338280  0.801760  1.0
  C  C130  1  0.648380  0.963480  0.801760  1.0
  C  C131  1  0.463480  0.653380  0.301760  1.0
  C  C132  1  0.838280  0.148380  0.301760  1.0
  C  C133  1  0.846620  0.661720  0.198240  1.0
  C  C134  1  0.351620  0.036520  0.198240  1.0
  C  C135  1  0.536520  0.346620  0.698240  1.0
  C  C136  1  0.161720  0.851620  0.698240  1.0
  C  C137  1  0.263190  0.338690  0.578580  1.0
  C  C138  1  0.315390  0.739890  0.578580  1.0
  C  C139  1  0.239890  0.763190  0.078580  1.0
  C  C140  1  0.838690  0.815390  0.078580  1.0
  C  C141  1  0.736810  0.661310  0.421420  1.0
  C  C142  1  0.684610  0.260110  0.421420  1.0
  C  C143  1  0.760110  0.236810  0.921420  1.0
  C  C144  1  0.161310  0.184610  0.921420  1.0
  C  C145  1  0.352610  0.358110  0.010820  1.0
  C  C146  1  0.658210  0.152710  0.010820  1.0
  C  C147  1  0.652710  0.852610  0.510820  1.0
  C  C148  1  0.858110  0.158210  0.510820  1.0
  C  C149  1  0.647390  0.641890  0.989180  1.0
  C  C150  1  0.341790  0.847290  0.989180  1.0
  C  C151  1  0.347290  0.147390  0.489180  1.0
  C  C152  1  0.141890  0.841790  0.489180  1.0
  C  C153  1  0.199120  0.359820  0.916040  1.0
  C  C154  1  0.716920  0.056220  0.916040  1.0
  C  C155  1  0.556220  0.699120  0.416040  1.0
  C  C156  1  0.859820  0.216920  0.416040  1.0
  C  C157  1  0.800880  0.640180  0.083960  1.0
  C  C158  1  0.283080  0.943780  0.083960  1.0
  C  C159  1  0.443780  0.300880  0.583960  1.0
  C  C160  1  0.140180  0.783080  0.583960  1.0
  C  C161  1  0.268420  0.268420  0.996840  1.0
  C  C162  1  0.728420  0.228420  0.996840  1.0
  C  C163  1  0.728420  0.768420  0.496840  1.0
  C  C164  1  0.768420  0.228420  0.496840  1.0
  C  C165  1  0.731580  0.731580  0.003160  1.0
  C  C166  1  0.271580  0.771580  0.003160  1.0
  C  C167  1  0.271580  0.231580  0.503160  1.0
  C  C168  1  0.231580  0.771580  0.503160  1.0
  C  C169  1  0.214730  0.383030  0.842460  1.0
  C  C170  1  0.627730  0.959430  0.842460  1.0
  C  C171  1  0.459430  0.714730  0.342460  1.0
  C  C172  1  0.883030  0.127730  0.342460  1.0
  C  C173  1  0.785270  0.616970  0.157540  1.0
  C  C174  1  0.372270  0.040570  0.157540  1.0
  C  C175  1  0.540570  0.285270  0.657540  1.0
  C  C176  1  0.116970  0.872270  0.657540  1.0
  C  C177  1  0.283920  0.331220  0.995640  1.0
  C  C178  1  0.711720  0.164420  0.995640  1.0
  C  C179  1  0.664420  0.783920  0.495640  1.0
  C  C180  1  0.831220  0.211720  0.495640  1.0
  C  C181  1  0.716080  0.668780  0.004360  1.0
  C  C182  1  0.288280  0.835580  0.004360  1.0
  C  C183  1  0.335580  0.216080  0.504360  1.0
  C  C184  1  0.168780  0.788280  0.504360  1.0
  C  C185  1  0.216910  0.350610  0.648220  1.0
  C  C186  1  0.431310  0.797610  0.648220  1.0
  C  C187  1  0.297610  0.716910  0.148220  1.0
  C  C188  1  0.850610  0.931310  0.148220  1.0
  C  C189  1  0.783090  0.649390  0.351780  1.0
  C  C190  1  0.568690  0.202390  0.351780  1.0
  C  C191  1  0.702390  0.283090  0.851780  1.0
  C  C192  1  0.149390  0.068690  0.851780  1.0
  C  C193  1  0.196370  0.235570  0.981740  1.0
  C  C194  1  0.785370  0.246170  0.981740  1.0
  C  C195  1  0.746170  0.696370  0.481740  1.0
  C  C196  1  0.735570  0.285370  0.481740  1.0
  C  C197  1  0.803630  0.764430  0.018260  1.0
  C  C198  1  0.214630  0.753830  0.018260  1.0
  C  C199  1  0.253830  0.303630  0.518260  1.0
  C  C200  1  0.264430  0.714630  0.518260  1.0
  C  C201  1  0.115500  0.306100  0.819800  1.0
  C  C202  1  0.704300  0.013700  0.819800  1.0
  C  C203  1  0.513700  0.615500  0.319800  1.0
  C  C204  1  0.806100  0.204300  0.319800  1.0
  C  C205  1  0.884500  0.693900  0.180200  1.0
  C  C206  1  0.295700  0.986300  0.180200  1.0
  C  C207  1  0.486300  0.384500  0.680200  1.0
  C  C208  1  0.193900  0.795700  0.680200  1.0
  C  C209  1  0.094810  0.272010  0.888820  1.0
  C  C210  1  0.794010  0.116810  0.888820  1.0
  C  C211  1  0.616810  0.594810  0.388820  1.0
  C  C212  1  0.772010  0.294010  0.388820  1.0
  C  C213  1  0.905190  0.727990  0.111180  1.0
  C  C214  1  0.205990  0.883190  0.111180  1.0
  C  C215  1  0.383190  0.405190  0.611180  1.0
  C  C216  1  0.227990  0.705990  0.611180  1.0
  Ca  Ca217  1  0.430870  0.103470  0.945540  1
  Ca  Ca218  1  0.514670  0.342070  0.945540  1
  Ca  Ca219  1  0.842070  0.930870  0.445540  1
  Ca  Ca220  1  0.603470  0.014670  0.445540  1
  Ca  Ca221  1  0.569130  0.896530  0.054460  1
  Ca  Ca222  1  0.485330  0.657930  0.054460  1
  Ca  Ca223  1  0.157930  0.069130  0.554460  1
  Ca  Ca224  1  0.396530  0.985330  0.554460  1
  Ca  Ca225  1  0.362150  0.463400  0.839040  1
  Ca  Ca226  1  0.476890  0.875640  0.839040  1
  Ca  Ca227  1  0.375640  0.862150  0.339040  1
  Ca  Ca228  1  0.963400  0.976890  0.339040  1
  Ca  Ca229  1  0.637850  0.536600  0.160960  1
  Ca  Ca230  1  0.523110  0.124360  0.160960  1
  Ca  Ca231  1  0.624360  0.137850  0.660960  1
  Ca  Ca232  1  0.036600  0.023110  0.660960  1
  H  H233  1  0.313500  0.189900  0.012200  1.0
  H  H234  1  0.698700  0.322300  0.012200  1.0
  H  H235  1  0.822300  0.813500  0.512200  1.0
  H  H236  1  0.689900  0.198700  0.512200  1.0
  H  H237  1  0.686500  0.810100  0.987800  1.0
  H  H238  1  0.301300  0.677700  0.987800  1.0
  H  H239  1  0.177700  0.186500  0.487800  1.0
  H  H240  1  0.310100  0.801300  0.487800  1.0
  H  H241  1  0.189600  0.365700  0.987600  1.0
  H  H242  1  0.798000  0.121900  0.987600  1.0
  H  H243  1  0.621900  0.689600  0.487600  1.0
  H  H244  1  0.865700  0.298000  0.487600  1.0
  H  H245  1  0.810400  0.634300  0.012400  1.0
  H  H246  1  0.202000  0.878100  0.012400  1.0
  H  H247  1  0.378100  0.310400  0.512400  1.0
  H  H248  1  0.134300  0.702000  0.512400  1.0
  H  H249  1  0.246800  0.423700  1.000000  1.0
  H  H250  1  0.753200  0.076300  0.000000  1.0
  H  H251  1  0.576300  0.746800  0.500000  1.0
  H  H252  1  0.923700  0.253200  0.500000  1.0
  H  H253  1  0.753200  0.576300  1.000000  1.0
  H  H254  1  0.246800  0.923700  1.000000  1.0
  H  H255  1  0.423700  0.253200  0.500000  1.0
  H  H256  1  0.076300  0.746800  0.500000  1.0
  H  H257  1  0.169500  0.293700  0.564800  1.0
  H  H258  1  0.395300  0.771100  0.564800  1.0
  H  H259  1  0.271100  0.669500  0.064800  1.0
  H  H260  1  0.793700  0.895300  0.064800  1.0
  H  H261  1  0.830500  0.706300  0.435200  1.0
  H  H262  1  0.604700  0.228900  0.435200  1.0
  H  H263  1  0.728900  0.330500  0.935200  1.0
  H  H264  1  0.206300  0.104700  0.935200  1.0
  H  H265  1  0.277800  0.425000  0.924600  1.0
  H  H266  1  0.646800  0.999600  0.924600  1.0
  H  H267  1  0.499600  0.777800  0.424600  1.0
  H  H268  1  0.925000  0.146800  0.424600  1.0
  H  H269  1  0.722200  0.575000  0.075400  1.0
  H  H270  1  0.353200  0.000400  0.075400  1.0
  H  H271  1  0.500400  0.222200  0.575400  1.0
  H  H272  1  0.075000  0.853200  0.575400  1.0
  H  H273  1  0.368000  0.443900  0.705600  1.0
  H  H274  1  0.337600  0.761700  0.705600  1.0
  H  H275  1  0.261700  0.868000  0.205600  1.0
  H  H276  1  0.943900  0.837600  0.205600  1.0
  H  H277  1  0.632000  0.556100  0.294400  1.0
  H  H278  1  0.662400  0.238300  0.294400  1.0
  H  H279  1  0.738300  0.132000  0.794400  1.0
  H  H280  1  0.056100  0.162400  0.794400  1.0
  H  H281  1  0.362700  0.400800  0.010800  1.0
  H  H282  1  0.648100  0.110000  0.010800  1.0
  H  H283  1  0.610000  0.862700  0.510800  1.0
  H  H284  1  0.900800  0.148100  0.510800  1.0
  H  H285  1  0.637300  0.599200  0.989200  1.0
  H  H286  1  0.351900  0.890000  0.989200  1.0
  H  H287  1  0.390000  0.137300  0.489200  1.0
  H  H288  1  0.099200  0.851900  0.489200  1.0
  H  H289  1  0.198800  0.212100  0.006000  1.0
  H  H290  1  0.807200  0.293900  0.006000  1.0
  H  H291  1  0.793900  0.698800  0.506000  1.0
  H  H292  1  0.712100  0.307200  0.506000  1.0
  H  H293  1  0.801200  0.787900  0.994000  1.0
  H  H294  1  0.192800  0.706100  0.994000  1.0
  H  H295  1  0.206100  0.301200  0.494000  1.0
  H  H296  1  0.287900  0.692800  0.494000  1.0
  H  H297  1  0.168500  0.271600  0.988800  1.0
  H  H298  1  0.820300  0.217200  0.988800  1.0
  H  H299  1  0.717200  0.668500  0.488800  1.0
  H  H300  1  0.771600  0.320300  0.488800  1.0
  H  H301  1  0.831500  0.728400  0.011200  1.0
  H  H302  1  0.179700  0.782800  0.011200  1.0
  H  H303  1  0.282800  0.331500  0.511200  1.0
  H  H304  1  0.228400  0.679700  0.511200  1.0
  H  H305  1  0.073800  0.277300  0.793600  1.0
  H  H306  1  0.719800  0.016300  0.793600  1.0
  H  H307  1  0.516300  0.573800  0.293600  1.0
  H  H308  1  0.777300  0.219800  0.293600  1.0
  H  H309  1  0.926200  0.722700  0.206400  1.0
  H  H310  1  0.280200  0.983700  0.206400  1.0
  H  H311  1  0.483700  0.426200  0.706400  1.0
  H  H312  1  0.222700  0.780200  0.706400  1.0
  H  H313  1  0.100800  0.295700  0.927600  1.0
  H  H314  1  0.826800  0.131900  0.927600  1.0
  H  H315  1  0.631900  0.600800  0.427600  1.0
  H  H316  1  0.795700  0.326800  0.427600  1.0
  H  H317  1  0.899200  0.704300  0.072400  1.0
  H  H318  1  0.173200  0.868100  0.072400  1.0
  H  H319  1  0.368100  0.399200  0.572400  1.0
  H  H320  1  0.204300  0.673200  0.572400  1.0
  H  H321  1  0.046400  0.266700  0.865000  1.0
  H  H322  1  0.818600  0.098300  0.865000  1.0
  H  H323  1  0.598300  0.546400  0.365000  1.0
  H  H324  1  0.766700  0.318600  0.365000  1.0
  H  H325  1  0.953600  0.733300  0.135000  1.0
  H  H326  1  0.181400  0.901700  0.135000  1.0
  H  H327  1  0.401700  0.453600  0.635000  1.0
  H  H328  1  0.233300  0.681400  0.635000  1.0
  O  O329  1  0.411490  0.004890  0.982180  1
  O  O330  1  0.570690  0.477290  0.982180  1
  O  O331  1  0.977290  0.911490  0.482180  1
  O  O332  1  0.504890  0.070690  0.482180  1
  O  O333  1  0.588510  0.995110  0.017820  1
  O  O334  1  0.429310  0.522710  0.017820  1
  O  O335  1  0.022710  0.088510  0.517820  1
  O  O336  1  0.495110  0.929310  0.517820  1
  O  O337  1  0.547240  0.350740  0.857280  1
  O  O338  1  0.310040  0.006540  0.857280  1
  O  O339  1  0.506540  0.047240  0.357280  1
  O  O340  1  0.850740  0.810040  0.357280  1
  O  O341  1  0.452760  0.649260  0.142720  1
  O  O342  1  0.689960  0.993460  0.142720  1
  O  O343  1  0.493460  0.952760  0.642720  1
  O  O344  1  0.149260  0.189960  0.642720  1
  O  O345  1  0.481530  0.519730  0.899860  1
  O  O346  1  0.418330  0.880130  0.899860  1
  O  O347  1  0.380130  0.981530  0.399860  1
  O  O348  1  0.019730  0.918330  0.399860  1
  O  O349  1  0.518470  0.480270  0.100140  1
  O  O350  1  0.581670  0.119870  0.100140  1
  O  O351  1  0.619870  0.018470  0.600140  1
  O  O352  1  0.980270  0.081670  0.600140  1
  O  O353  1  0.426670  0.385580  0.797540  1
  O  O354  1  0.370870  0.911960  0.797540  1
  O  O355  1  0.411960  0.926670  0.297540  1
  O  O356  1  0.885580  0.870870  0.297540  1
  O  O357  1  0.573330  0.614420  0.202460  1
  O  O358  1  0.629130  0.088040  0.202460  1
  O  O359  1  0.588040  0.073330  0.702460  1
  O  O360  1  0.114420  0.129130  0.702460  1
  O  O361  1  0.253300  0.180700  0.789400  1
  O  O362  1  0.536100  0.108700  0.789400  1
  O  O363  1  0.608700  0.753300  0.289400  1
  O  O364  1  0.680700  0.036100  0.289400  1
  O  O365  1  0.746700  0.819300  0.210600  1
  O  O366  1  0.463900  0.891300  0.210600  1
  O  O367  1  0.391300  0.246700  0.710600  1
  O  O368  1  0.319300  0.963900  0.710600  1
  O  O369  1  0.375670  0.268570  0.873140  1
  O  O370  1  0.497470  0.104570  0.873140  1
  O  O371  1  0.604570  0.875670  0.373140  1
  O  O372  1  0.768570  0.997470  0.373140  1
  O  O373  1  0.624330  0.731430  0.126860  1
  O  O374  1  0.502530  0.895430  0.126860  1
  O  O375  1  0.395430  0.124330  0.626860  1
  O  O376  1  0.231430  0.002530  0.626860  1
  O  O377  1  0.334130  0.555430  0.905260  1
  O  O378  1  0.571130  0.849830  0.905260  1
  O  O379  1  0.349830  0.834130  0.405260  1
  O  O380  1  0.055430  0.071130  0.405260  1
  O  O381  1  0.665870  0.444570  0.094740  1
  O  O382  1  0.428870  0.150170  0.094740  1
  O  O383  1  0.650170  0.165870  0.594740  1
  O  O384  1  0.944570  0.928870  0.594740  1
  O  O385  1  0.373840  0.548440  0.805080  1
  O  O386  1  0.431240  0.756640  0.805080  1
  O  O387  1  0.256640  0.873840  0.305080  1
  O  O388  1  0.048440  0.931240  0.305080  1
  O  O389  1  0.626160  0.451560  0.194920  1
  O  O390  1  0.568760  0.243360  0.194920  1
  O  O391  1  0.743360  0.126160  0.694920  1
  O  O392  1  0.951560  0.068760  0.694920  1
  O  O393  1  0.395680  0.414080  0.906560  1
  O  O394  1  0.510880  0.992480  0.906560  1
  O  O395  1  0.492480  0.895680  0.406560  1
  O  O396  1  0.914080  0.010880  0.406560  1
  O  O397  1  0.604320  0.585920  0.093440  1
  O  O398  1  0.489120  0.007520  0.093440  1
  O  O399  1  0.507520  0.104320  0.593440  1
  O  O400  1  0.085920  0.989120  0.593440  1
  O  O401  1  0.358600  0.141300  0.871800  1
  O  O402  1  0.513200  0.230500  0.871800  1
  O  O403  1  0.730500  0.858600  0.371800  1
  O  O404  1  0.641300  0.013200  0.371800  1
  O  O405  1  0.641400  0.858700  0.128200  1
  O  O406  1  0.486800  0.769500  0.128200  1
  O  O407  1  0.269500  0.141400  0.628200  1
  O  O408  1  0.358700  0.986800  0.628200  1
  O  O409  1  0.241300  0.149600  0.783200  1
  O  O410  1  0.541900  0.133600  0.783200  1
  O  O411  1  0.633600  0.741300  0.283200  1
  O  O412  1  0.649600  0.041900  0.283200  1
  O  O413  1  0.758700  0.850400  0.216800  1
  O  O414  1  0.458100  0.866400  0.216800  1
  O  O415  1  0.366400  0.258700  0.716800  1
  O  O416  1  0.350400  0.958100  0.716800  1
  O  O417  1  0.566400  0.316400  0.132800  1.0
  O  O418  1  0.816400  0.066400  0.632800  1.0
  O  O419  1  0.433600  0.683600  0.867200  1.0
  O  O420  1  0.183600  0.933600  0.367200  1.0
  O  O421  1  0.444550  0.225360  0.039340  1.0
  O  O422  1  0.594790  0.313980  0.039340  1.0
  O  O423  1  0.813980  0.944550  0.539340  1.0
  O  O424  1  0.725360  0.094790  0.539340  1.0
  O  O425  1  0.555450  0.774640  0.960660  1.0
  O  O426  1  0.405210  0.686020  0.960660  1.0
  O  O427  1  0.186020  0.055450  0.460660  1.0
  O  O428  1  0.274640  0.905210  0.460660  1.0
  O  O429  1  0.279330  0.419660  0.743680  1.0
  O  O430  1  0.464350  0.824020  0.743680  1.0
  O  O431  1  0.324020  0.779330  0.243680  1.0
  O  O432  1  0.919660  0.964350  0.243680  1.0
  O  O433  1  0.720670  0.580340  0.256320  1.0
  O  O434  1  0.535650  0.175980  0.256320  1.0
  O  O435  1  0.675980  0.220670  0.756320  1.0
  O  O436  1  0.080340  0.035650  0.756320  1.0
  O  O437  1  0.248080  0.414400  0.821220  1.0
  O  O438  1  0.573140  0.906820  0.821220  1.0
  O  O439  1  0.406820  0.748080  0.321220  1.0
  O  O440  1  0.914400  0.073140  0.321220  1.0
  O  O441  1  0.751920  0.585600  0.178780  1.0
  O  O442  1  0.426860  0.093180  0.178780  1.0
  O  O443  1  0.593180  0.251920  0.678780  1.0
  O  O444  1  0.085600  0.926860  0.678780  1.0
  O  O445  1  0.134530  0.330580  0.748360  1.0
  O  O446  1  0.613830  0.917780  0.748360  1.0
  O  O447  1  0.417780  0.634530  0.248360  1.0
  O  O448  1  0.830580  0.113830  0.248360  1.0
  O  O449  1  0.865470  0.669420  0.251640  1.0
  O  O450  1  0.386170  0.082220  0.251640  1.0
  O  O451  1  0.582220  0.365470  0.751640  1.0
  O  O452  1  0.169420  0.886170  0.751640  1.0
  O  O453  1  0.472790  0.343470  0.039880  1.0
  O  O454  1  0.567090  0.196410  0.039880  1.0
  O  O455  1  0.696410  0.972790  0.539880  1.0
  O  O456  1  0.843470  0.067090  0.539880  1.0
  O  O457  1  0.527210  0.656530  0.960120  1.0
  O  O458  1  0.432910  0.803590  0.960120  1.0
  O  O459  1  0.303590  0.027210  0.460120  1.0
  O  O460  1  0.156530  0.932910  0.460120  1.0
  O  O461  1  0.168710  0.336410  0.665620  1.0
  O  O462  1  0.496910  0.829210  0.665620  1.0
  O  O463  1  0.329210  0.668710  0.165620  1.0
  O  O464  1  0.836410  0.996910  0.165620  1.0
  O  O465  1  0.831290  0.663590  0.334380  1.0
  O  O466  1  0.503090  0.170790  0.334380  1.0
  O  O467  1  0.670790  0.331290  0.834380  1.0
  O  O468  1  0.163590  0.003090  0.834380  1.0
  O  O469  1  0.150230  0.463630  0.744260  1.0
  O  O470  1  0.594030  0.780630  0.744260  1.0
  O  O471  1  0.280630  0.650230  0.244260  1.0
  O  O472  1  0.963630  0.094030  0.244260  1.0
  O  O473  1  0.849770  0.536370  0.255740  1.0
  O  O474  1  0.405970  0.219370  0.255740  1.0
  O  O475  1  0.719370  0.349770  0.755740  1.0
  O  O476  1  0.036370  0.905970  0.755740  1.0
  V  V477  1  0.532620  0.282620  0.065240  1.0
  V  V478  1  0.782620  0.032620  0.565240  1.0
  V  V479  1  0.467380  0.717380  0.934760  1.0
  V  V480  1  0.217380  0.967380  0.434760  1.0
  V  V481  1  0.189990  0.399040  0.743900  1.0
  V  V482  1  0.553910  0.844860  0.743900  1.0
  V  V483  1  0.344860  0.689990  0.243900  1.0
  V  V484  1  0.899040  0.053910  0.243900  1.0
  V  V485  1  0.810010  0.600960  0.256100  1.0
  V  V486  1  0.446090  0.155140  0.256100  1.0
  V  V487  1  0.655140  0.310010  0.756100  1.0
  V  V488  1  0.100960  0.946090  0.756100  1.0
