# generated using pymatgen
data_Rb22Na8.16Co12H96C168O185.58
_symmetry_space_group_name_H-M   'P 1'
_cell_length_a   25.15419237
_cell_length_b   25.15419237
_cell_length_c   25.15419237
_cell_angle_alpha   60.00000000
_cell_angle_beta   60.00000000
_cell_angle_gamma   60.00000000
_symmetry_Int_Tables_number   1
_chemical_formula_structural   Rb22Na8.16Co12H96C168O185.58
_chemical_formula_sum   'Rb22 Na8.16 Co12 H96 C168 O185.58'
_cell_volume   11254.23905515
_cell_formula_units_Z   1
loop_
 _symmetry_equiv_pos_site_id
 _symmetry_equiv_pos_as_xyz
  1  'x, y, z'
loop_
 _atom_site_type_symbol
 _atom_site_label
 _atom_site_symmetry_multiplicity
 _atom_site_fract_x
 _atom_site_fract_y
 _atom_site_fract_z
 _atom_site_occupancy
  C  C1  1  0.966480  0.844300  0.844300  1.0
  C  C2  1  0.344920  0.844300  0.844300  1.0
  C  C3  1  0.844300  0.344920  0.966480  1.0
  C  C4  1  0.844300  0.966480  0.344920  1.0
  C  C5  1  0.844300  0.844300  0.966480  1.0
  C  C6  1  0.844300  0.844300  0.344920  1.0
  C  C7  1  0.344920  0.966480  0.844300  1.0
  C  C8  1  0.966480  0.344920  0.844300  1.0
  C  C9  1  0.844300  0.966480  0.844300  1.0
  C  C10  1  0.844300  0.344920  0.844300  1.0
  C  C11  1  0.966480  0.844300  0.344920  1.0
  C  C12  1  0.344920  0.844300  0.966480  1.0
  C  C13  1  0.655080  0.155700  0.155700  1.0
  C  C14  1  0.033520  0.155700  0.155700  1.0
  C  C15  1  0.155700  0.655080  0.033520  1.0
  C  C16  1  0.155700  0.033520  0.655080  1.0
  C  C17  1  0.655080  0.155700  0.033520  1.0
  C  C18  1  0.033520  0.155700  0.655080  1.0
  C  C19  1  0.155700  0.033520  0.155700  1.0
  C  C20  1  0.155700  0.655080  0.155700  1.0
  C  C21  1  0.655080  0.033520  0.155700  1.0
  C  C22  1  0.033520  0.655080  0.155700  1.0
  C  C23  1  0.155700  0.155700  0.655080  1.0
  C  C24  1  0.155700  0.155700  0.033520  1.0
  C  C25  1  0.942290  0.886130  0.786010  1.0
  C  C26  1  0.385570  0.786010  0.886130  1.0
  C  C27  1  0.786010  0.385570  0.942290  1.0
  C  C28  1  0.886130  0.942290  0.385570  1.0
  C  C29  1  0.886130  0.786010  0.942290  1.0
  C  C30  1  0.786010  0.886130  0.385570  1.0
  C  C31  1  0.385570  0.942290  0.786010  1.0
  C  C32  1  0.942290  0.385570  0.886130  1.0
  C  C33  1  0.786010  0.942290  0.886130  1.0
  C  C34  1  0.886130  0.385570  0.786010  1.0
  C  C35  1  0.942290  0.786010  0.385570  1.0
  C  C36  1  0.385570  0.886130  0.942290  1.0
  C  C37  1  0.614430  0.113870  0.213990  1.0
  C  C38  1  0.057710  0.213990  0.113870  1.0
  C  C39  1  0.113870  0.614430  0.057710  1.0
  C  C40  1  0.213990  0.057710  0.614430  1.0
  C  C41  1  0.614430  0.213990  0.057710  1.0
  C  C42  1  0.057710  0.113870  0.614430  1.0
  C  C43  1  0.113870  0.057710  0.213990  1.0
  C  C44  1  0.213990  0.614430  0.113870  1.0
  C  C45  1  0.614430  0.057710  0.113870  1.0
  C  C46  1  0.057710  0.614430  0.213990  1.0
  C  C47  1  0.113870  0.213990  0.614430  1.0
  C  C48  1  0.213990  0.113870  0.057710  1.0
  C  C49  1  0.057710  0.113870  0.213990  1.0
  C  C50  1  0.614430  0.213990  0.113870  1.0
  C  C51  1  0.213990  0.614430  0.057710  1.0
  C  C52  1  0.113870  0.057710  0.614430  1.0
  C  C53  1  0.113870  0.213990  0.057710  1.0
  C  C54  1  0.213990  0.113870  0.614430  1.0
  C  C55  1  0.614430  0.057710  0.213990  1.0
  C  C56  1  0.057710  0.614430  0.113870  1.0
  C  C57  1  0.213990  0.057710  0.113870  1.0
  C  C58  1  0.113870  0.614430  0.213990  1.0
  C  C59  1  0.057710  0.213990  0.614430  1.0
  C  C60  1  0.614430  0.113870  0.057710  1.0
  C  C61  1  0.385570  0.886130  0.786010  1.0
  C  C62  1  0.942290  0.786010  0.886130  1.0
  C  C63  1  0.886130  0.385570  0.942290  1.0
  C  C64  1  0.786010  0.942290  0.385570  1.0
  C  C65  1  0.385570  0.786010  0.942290  1.0
  C  C66  1  0.942290  0.886130  0.385570  1.0
  C  C67  1  0.886130  0.942290  0.786010  1.0
  C  C68  1  0.786010  0.385570  0.886130  1.0
  C  C69  1  0.385570  0.942290  0.886130  1.0
  C  C70  1  0.942290  0.385570  0.786010  1.0
  C  C71  1  0.886130  0.786010  0.385570  1.0
  C  C72  1  0.786010  0.886130  0.942290  1.0
  C  C73  1  0.975490  0.866830  0.732210  1.0
  C  C74  1  0.425470  0.732210  0.866830  1.0
  C  C75  1  0.732210  0.425470  0.975490  1.0
  C  C76  1  0.866830  0.975490  0.425470  1.0
  C  C77  1  0.866830  0.732210  0.975490  1.0
  C  C78  1  0.732210  0.866830  0.425470  1.0
  C  C79  1  0.425470  0.975490  0.732210  1.0
  C  C80  1  0.975490  0.425470  0.866830  1.0
  C  C81  1  0.732210  0.975490  0.866830  1.0
  C  C82  1  0.866830  0.425470  0.732210  1.0
  C  C83  1  0.975490  0.732210  0.425470  1.0
  C  C84  1  0.425470  0.866830  0.975490  1.0
  C  C85  1  0.574530  0.133170  0.267790  1.0
  C  C86  1  0.024510  0.267790  0.133170  1.0
  C  C87  1  0.133170  0.574530  0.024510  1.0
  C  C88  1  0.267790  0.024510  0.574530  1.0
  C  C89  1  0.574530  0.267790  0.024510  1.0
  C  C90  1  0.024510  0.133170  0.574530  1.0
  C  C91  1  0.133170  0.024510  0.267790  1.0
  C  C92  1  0.267790  0.574530  0.133170  1.0
  C  C93  1  0.574530  0.024510  0.133170  1.0
  C  C94  1  0.024510  0.574530  0.267790  1.0
  C  C95  1  0.133170  0.267790  0.574530  1.0
  C  C96  1  0.267790  0.133170  0.024510  1.0
  C  C97  1  0.024510  0.133170  0.267790  1.0
  C  C98  1  0.574530  0.267790  0.133170  1.0
  C  C99  1  0.267790  0.574530  0.024510  1.0
  C  C100  1  0.133170  0.024510  0.574530  1.0
  C  C101  1  0.133170  0.267790  0.024510  1.0
  C  C102  1  0.267790  0.133170  0.574530  1.0
  C  C103  1  0.574530  0.024510  0.267790  1.0
  C  C104  1  0.024510  0.574530  0.133170  1.0
  C  C105  1  0.267790  0.024510  0.133170  1.0
  C  C106  1  0.133170  0.574530  0.267790  1.0
  C  C107  1  0.024510  0.267790  0.574530  1.0
  C  C108  1  0.574530  0.133170  0.024510  1.0
  C  C109  1  0.425470  0.866830  0.732210  1.0
  C  C110  1  0.975490  0.732210  0.866830  1.0
  C  C111  1  0.866830  0.425470  0.975490  1.0
  C  C112  1  0.732210  0.975490  0.425470  1.0
  C  C113  1  0.425470  0.732210  0.975490  1.0
  C  C114  1  0.975490  0.866830  0.425470  1.0
  C  C115  1  0.866830  0.975490  0.732210  1.0
  C  C116  1  0.732210  0.425470  0.866830  1.0
  C  C117  1  0.425470  0.975490  0.866830  1.0
  C  C118  1  0.975490  0.425470  0.732210  1.0
  C  C119  1  0.866830  0.732210  0.425470  1.0
  C  C120  1  0.732210  0.866830  0.975490  1.0
  C  C121  1  0.955390  0.898830  0.678170  1.0
  C  C122  1  0.467610  0.678170  0.898830  1.0
  C  C123  1  0.678170  0.467610  0.955390  1.0
  C  C124  1  0.898830  0.955390  0.467610  1.0
  C  C125  1  0.898830  0.678170  0.955390  1.0
  C  C126  1  0.678170  0.898830  0.467610  1.0
  C  C127  1  0.467610  0.955390  0.678170  1.0
  C  C128  1  0.955390  0.467610  0.898830  1.0
  C  C129  1  0.678170  0.955390  0.898830  1.0
  C  C130  1  0.898830  0.467610  0.678170  1.0
  C  C131  1  0.955390  0.678170  0.467610  1.0
  C  C132  1  0.467610  0.898830  0.955390  1.0
  C  C133  1  0.532390  0.101170  0.321830  1.0
  C  C134  1  0.044610  0.321830  0.101170  1.0
  C  C135  1  0.101170  0.532390  0.044610  1.0
  C  C136  1  0.321830  0.044610  0.532390  1.0
  C  C137  1  0.532390  0.321830  0.044610  1.0
  C  C138  1  0.044610  0.101170  0.532390  1.0
  C  C139  1  0.101170  0.044610  0.321830  1.0
  C  C140  1  0.321830  0.532390  0.101170  1.0
  C  C141  1  0.532390  0.044610  0.101170  1.0
  C  C142  1  0.044610  0.532390  0.321830  1.0
  C  C143  1  0.101170  0.321830  0.532390  1.0
  C  C144  1  0.321830  0.101170  0.044610  1.0
  C  C145  1  0.044610  0.101170  0.321830  1.0
  C  C146  1  0.532390  0.321830  0.101170  1.0
  C  C147  1  0.321830  0.532390  0.044610  1.0
  C  C148  1  0.101170  0.044610  0.532390  1.0
  C  C149  1  0.101170  0.321830  0.044610  1.0
  C  C150  1  0.321830  0.101170  0.532390  1.0
  C  C151  1  0.532390  0.044610  0.321830  1.0
  C  C152  1  0.044610  0.532390  0.101170  1.0
  C  C153  1  0.321830  0.044610  0.101170  1.0
  C  C154  1  0.101170  0.532390  0.321830  1.0
  C  C155  1  0.044610  0.321830  0.532390  1.0
  C  C156  1  0.532390  0.101170  0.044610  1.0
  C  C157  1  0.467610  0.898830  0.678170  1.0
  C  C158  1  0.955390  0.678170  0.898830  1.0
  C  C159  1  0.898830  0.467610  0.955390  1.0
  C  C160  1  0.678170  0.955390  0.467610  1.0
  C  C161  1  0.467610  0.678170  0.955390  1.0
  C  C162  1  0.955390  0.898830  0.467610  1.0
  C  C163  1  0.898830  0.955390  0.678170  1.0
  C  C164  1  0.678170  0.467610  0.898830  1.0
  C  C165  1  0.467610  0.955390  0.898830  1.0
  C  C166  1  0.955390  0.467610  0.678170  1.0
  C  C167  1  0.898830  0.678170  0.467610  1.0
  C  C168  1  0.678170  0.898830  0.955390  1.0
  Co  Co169  1  0.945890  0.945890  0.554110  1.0
  Co  Co170  1  0.554110  0.554110  0.945890  1.0
  Co  Co171  1  0.945890  0.554110  0.945890  1.0
  Co  Co172  1  0.554110  0.945890  0.554110  1.0
  Co  Co173  1  0.554110  0.945890  0.945890  1.0
  Co  Co174  1  0.945890  0.554110  0.554110  1.0
  Co  Co175  1  0.445890  0.054110  0.445890  1.0
  Co  Co176  1  0.054110  0.445890  0.054110  1.0
  Co  Co177  1  0.445890  0.445890  0.054110  1.0
  Co  Co178  1  0.054110  0.054110  0.445890  1.0
  Co  Co179  1  0.445890  0.054110  0.054110  1.0
  Co  Co180  1  0.054110  0.445890  0.445890  1.0
  H  H181  1  0.013600  0.829000  0.829000  1.0
  H  H182  1  0.328400  0.829000  0.829000  1.0
  H  H183  1  0.829000  0.328400  0.013600  1.0
  H  H184  1  0.829000  0.013600  0.328400  1.0
  H  H185  1  0.829000  0.829000  0.013600  1.0
  H  H186  1  0.829000  0.829000  0.328400  1.0
  H  H187  1  0.328400  0.013600  0.829000  1.0
  H  H188  1  0.013600  0.328400  0.829000  1.0
  H  H189  1  0.829000  0.013600  0.829000  1.0
  H  H190  1  0.829000  0.328400  0.829000  1.0
  H  H191  1  0.013600  0.829000  0.328400  1.0
  H  H192  1  0.328400  0.829000  0.013600  1.0
  H  H193  1  0.671600  0.171000  0.171000  1.0
  H  H194  1  0.986400  0.171000  0.171000  1.0
  H  H195  1  0.171000  0.671600  0.986400  1.0
  H  H196  1  0.171000  0.986400  0.671600  1.0
  H  H197  1  0.671600  0.171000  0.986400  1.0
  H  H198  1  0.986400  0.171000  0.671600  1.0
  H  H199  1  0.171000  0.986400  0.171000  1.0
  H  H200  1  0.171000  0.671600  0.171000  1.0
  H  H201  1  0.671600  0.986400  0.171000  1.0
  H  H202  1  0.986400  0.671600  0.171000  1.0
  H  H203  1  0.171000  0.171000  0.671600  1.0
  H  H204  1  0.171000  0.171000  0.986400  1.0
  H  H205  1  0.951100  0.870500  0.870500  1.0
  H  H206  1  0.307900  0.870500  0.870500  1.0
  H  H207  1  0.870500  0.307900  0.951100  1.0
  H  H208  1  0.870500  0.951100  0.307900  1.0
  H  H209  1  0.870500  0.870500  0.951100  1.0
  H  H210  1  0.870500  0.870500  0.307900  1.0
  H  H211  1  0.307900  0.951100  0.870500  1.0
  H  H212  1  0.951100  0.307900  0.870500  1.0
  H  H213  1  0.870500  0.951100  0.870500  1.0
  H  H214  1  0.870500  0.307900  0.870500  1.0
  H  H215  1  0.951100  0.870500  0.307900  1.0
  H  H216  1  0.307900  0.870500  0.951100  1.0
  H  H217  1  0.692100  0.129500  0.129500  1.0
  H  H218  1  0.048900  0.129500  0.129500  1.0
  H  H219  1  0.129500  0.692100  0.048900  1.0
  H  H220  1  0.129500  0.048900  0.692100  1.0
  H  H221  1  0.692100  0.129500  0.048900  1.0
  H  H222  1  0.048900  0.129500  0.692100  1.0
  H  H223  1  0.129500  0.048900  0.129500  1.0
  H  H224  1  0.129500  0.692100  0.129500  1.0
  H  H225  1  0.692100  0.048900  0.129500  1.0
  H  H226  1  0.048900  0.692100  0.129500  1.0
  H  H227  1  0.129500  0.129500  0.692100  1.0
  H  H228  1  0.129500  0.129500  0.048900  1.0
  H  H229  1  0.013100  0.830700  0.731900  1.0
  H  H230  1  0.424300  0.731900  0.830700  1.0
  H  H231  1  0.731900  0.424300  0.013100  1.0
  H  H232  1  0.830700  0.013100  0.424300  1.0
  H  H233  1  0.830700  0.731900  0.013100  1.0
  H  H234  1  0.731900  0.830700  0.424300  1.0
  H  H235  1  0.424300  0.013100  0.731900  1.0
  H  H236  1  0.013100  0.424300  0.830700  1.0
  H  H237  1  0.731900  0.013100  0.830700  1.0
  H  H238  1  0.830700  0.424300  0.731900  1.0
  H  H239  1  0.013100  0.731900  0.424300  1.0
  H  H240  1  0.424300  0.830700  0.013100  1.0
  H  H241  1  0.575700  0.169300  0.268100  1.0
  H  H242  1  0.986900  0.268100  0.169300  1.0
  H  H243  1  0.169300  0.575700  0.986900  1.0
  H  H244  1  0.268100  0.986900  0.575700  1.0
  H  H245  1  0.575700  0.268100  0.986900  1.0
  H  H246  1  0.986900  0.169300  0.575700  1.0
  H  H247  1  0.169300  0.986900  0.268100  1.0
  H  H248  1  0.268100  0.575700  0.169300  1.0
  H  H249  1  0.575700  0.986900  0.169300  1.0
  H  H250  1  0.986900  0.575700  0.268100  1.0
  H  H251  1  0.169300  0.268100  0.575700  1.0
  H  H252  1  0.268100  0.169300  0.986900  1.0
  H  H253  1  0.986900  0.169300  0.268100  1.0
  H  H254  1  0.575700  0.268100  0.169300  1.0
  H  H255  1  0.268100  0.575700  0.986900  1.0
  H  H256  1  0.169300  0.986900  0.575700  1.0
  H  H257  1  0.169300  0.268100  0.986900  1.0
  H  H258  1  0.268100  0.169300  0.575700  1.0
  H  H259  1  0.575700  0.986900  0.268100  1.0
  H  H260  1  0.986900  0.575700  0.169300  1.0
  H  H261  1  0.268100  0.986900  0.169300  1.0
  H  H262  1  0.169300  0.575700  0.268100  1.0
  H  H263  1  0.986900  0.268100  0.575700  1.0
  H  H264  1  0.575700  0.169300  0.986900  1.0
  H  H265  1  0.424300  0.830700  0.731900  1.0
  H  H266  1  0.013100  0.731900  0.830700  1.0
  H  H267  1  0.830700  0.424300  0.013100  1.0
  H  H268  1  0.731900  0.013100  0.424300  1.0
  H  H269  1  0.424300  0.731900  0.013100  1.0
  H  H270  1  0.013100  0.830700  0.424300  1.0
  H  H271  1  0.830700  0.013100  0.731900  1.0
  H  H272  1  0.731900  0.424300  0.830700  1.0
  H  H273  1  0.424300  0.013100  0.830700  1.0
  H  H274  1  0.013100  0.424300  0.731900  1.0
  H  H275  1  0.830700  0.731900  0.424300  1.0
  H  H276  1  0.731900  0.830700  0.013100  1.0
  Na  Na277  1  0.060400  0.753600  0.651000  0.17
  Na  Na278  1  0.535000  0.651000  0.753600  0.17
  Na  Na279  1  0.651000  0.535000  0.060400  0.17
  Na  Na280  1  0.753600  0.060400  0.535000  0.17
  Na  Na281  1  0.753600  0.651000  0.060400  0.17
  Na  Na282  1  0.651000  0.753600  0.535000  0.17
  Na  Na283  1  0.535000  0.060400  0.651000  0.17
  Na  Na284  1  0.060400  0.535000  0.753600  0.17
  Na  Na285  1  0.651000  0.060400  0.753600  0.17
  Na  Na286  1  0.753600  0.535000  0.651000  0.17
  Na  Na287  1  0.060400  0.651000  0.535000  0.17
  Na  Na288  1  0.535000  0.753600  0.060400  0.17
  Na  Na289  1  0.465000  0.246400  0.349000  0.17
  Na  Na290  1  0.939600  0.349000  0.246400  0.17
  Na  Na291  1  0.246400  0.465000  0.939600  0.17
  Na  Na292  1  0.349000  0.939600  0.465000  0.17
  Na  Na293  1  0.465000  0.349000  0.939600  0.17
  Na  Na294  1  0.939600  0.246400  0.465000  0.17
  Na  Na295  1  0.246400  0.939600  0.349000  0.17
  Na  Na296  1  0.349000  0.465000  0.246400  0.17
  Na  Na297  1  0.465000  0.939600  0.246400  0.17
  Na  Na298  1  0.939600  0.465000  0.349000  0.17
  Na  Na299  1  0.246400  0.349000  0.465000  0.17
  Na  Na300  1  0.349000  0.246400  0.939600  0.17
  Na  Na301  1  0.939600  0.246400  0.349000  0.17
  Na  Na302  1  0.465000  0.349000  0.246400  0.17
  Na  Na303  1  0.349000  0.465000  0.939600  0.17
  Na  Na304  1  0.246400  0.939600  0.465000  0.17
  Na  Na305  1  0.246400  0.349000  0.939600  0.17
  Na  Na306  1  0.349000  0.246400  0.465000  0.17
  Na  Na307  1  0.465000  0.939600  0.349000  0.17
  Na  Na308  1  0.939600  0.465000  0.246400  0.17
  Na  Na309  1  0.349000  0.939600  0.246400  0.17
  Na  Na310  1  0.246400  0.465000  0.349000  0.17
  Na  Na311  1  0.939600  0.349000  0.465000  0.17
  Na  Na312  1  0.465000  0.246400  0.939600  0.17
  Na  Na313  1  0.535000  0.753600  0.651000  0.17
  Na  Na314  1  0.060400  0.651000  0.753600  0.17
  Na  Na315  1  0.753600  0.535000  0.060400  0.17
  Na  Na316  1  0.651000  0.060400  0.535000  0.17
  Na  Na317  1  0.535000  0.651000  0.060400  0.17
  Na  Na318  1  0.060400  0.753600  0.535000  0.17
  Na  Na319  1  0.753600  0.060400  0.651000  0.17
  Na  Na320  1  0.651000  0.535000  0.753600  0.17
  Na  Na321  1  0.535000  0.060400  0.753600  0.17
  Na  Na322  1  0.060400  0.535000  0.651000  0.17
  Na  Na323  1  0.753600  0.651000  0.535000  0.17
  Na  Na324  1  0.651000  0.753600  0.060400  0.17
  O  O325  1  0.986460  0.879920  0.625540  1.0
  O  O326  1  0.508080  0.625540  0.879920  1.0
  O  O327  1  0.625540  0.508080  0.986460  1.0
  O  O328  1  0.879920  0.986460  0.508080  1.0
  O  O329  1  0.879920  0.625540  0.986460  1.0
  O  O330  1  0.625540  0.879920  0.508080  1.0
  O  O331  1  0.508080  0.986460  0.625540  1.0
  O  O332  1  0.986460  0.508080  0.879920  1.0
  O  O333  1  0.625540  0.986460  0.879920  1.0
  O  O334  1  0.879920  0.508080  0.625540  1.0
  O  O335  1  0.986460  0.625540  0.508080  1.0
  O  O336  1  0.508080  0.879920  0.986460  1.0
  O  O337  1  0.491920  0.120080  0.374460  1.0
  O  O338  1  0.013540  0.374460  0.120080  1.0
  O  O339  1  0.120080  0.491920  0.013540  1.0
  O  O340  1  0.374460  0.013540  0.491920  1.0
  O  O341  1  0.491920  0.374460  0.013540  1.0
  O  O342  1  0.013540  0.120080  0.491920  1.0
  O  O343  1  0.120080  0.013540  0.374460  1.0
  O  O344  1  0.374460  0.491920  0.120080  1.0
  O  O345  1  0.491920  0.013540  0.120080  1.0
  O  O346  1  0.013540  0.491920  0.374460  1.0
  O  O347  1  0.120080  0.374460  0.491920  1.0
  O  O348  1  0.374460  0.120080  0.013540  1.0
  O  O349  1  0.013540  0.120080  0.374460  1.0
  O  O350  1  0.491920  0.374460  0.120080  1.0
  O  O351  1  0.374460  0.491920  0.013540  1.0
  O  O352  1  0.120080  0.013540  0.491920  1.0
  O  O353  1  0.120080  0.374460  0.013540  1.0
  O  O354  1  0.374460  0.120080  0.491920  1.0
  O  O355  1  0.491920  0.013540  0.374460  1.0
  O  O356  1  0.013540  0.491920  0.120080  1.0
  O  O357  1  0.374460  0.013540  0.120080  1.0
  O  O358  1  0.120080  0.491920  0.374460  1.0
  O  O359  1  0.013540  0.374460  0.491920  1.0
  O  O360  1  0.491920  0.120080  0.013540  1.0
  O  O361  1  0.508080  0.879920  0.625540  1.0
  O  O362  1  0.986460  0.625540  0.879920  1.0
  O  O363  1  0.879920  0.508080  0.986460  1.0
  O  O364  1  0.625540  0.986460  0.508080  1.0
  O  O365  1  0.508080  0.625540  0.986460  1.0
  O  O366  1  0.986460  0.879920  0.508080  1.0
  O  O367  1  0.879920  0.986460  0.625540  1.0
  O  O368  1  0.625540  0.508080  0.879920  1.0
  O  O369  1  0.508080  0.986460  0.879920  1.0
  O  O370  1  0.986460  0.508080  0.625540  1.0
  O  O371  1  0.879920  0.625540  0.508080  1.0
  O  O372  1  0.625540  0.879920  0.986460  1.0
  O  O373  1  0.121200  0.878800  0.769600  1.0
  O  O374  1  0.230400  0.769600  0.878800  1.0
  O  O375  1  0.769600  0.230400  0.121200  1.0
  O  O376  1  0.878800  0.121200  0.230400  1.0
  O  O377  1  0.878800  0.769600  0.121200  1.0
  O  O378  1  0.769600  0.878800  0.230400  1.0
  O  O379  1  0.230400  0.121200  0.769600  1.0
  O  O380  1  0.121200  0.230400  0.878800  1.0
  O  O381  1  0.769600  0.121200  0.878800  1.0
  O  O382  1  0.878800  0.230400  0.769600  1.0
  O  O383  1  0.121200  0.769600  0.230400  1.0
  O  O384  1  0.230400  0.878800  0.121200  1.0
  O  O385  1  0.769600  0.121200  0.230400  1.0
  O  O386  1  0.878800  0.230400  0.121200  1.0
  O  O387  1  0.121200  0.769600  0.878800  1.0
  O  O388  1  0.230400  0.878800  0.769600  1.0
  O  O389  1  0.769600  0.230400  0.878800  1.0
  O  O390  1  0.878800  0.121200  0.769600  1.0
  O  O391  1  0.121200  0.878800  0.230400  1.0
  O  O392  1  0.230400  0.769600  0.121200  1.0
  O  O393  1  0.769600  0.878800  0.121200  1.0
  O  O394  1  0.878800  0.769600  0.230400  1.0
  O  O395  1  0.121200  0.230400  0.769600  1.0
  O  O396  1  0.230400  0.121200  0.878800  1.0
  O  O397  1  0.154800  0.845200  0.666000  1.0
  O  O398  1  0.334000  0.666000  0.845200  1.0
  O  O399  1  0.666000  0.334000  0.154800  1.0
  O  O400  1  0.845200  0.154800  0.334000  1.0
  O  O401  1  0.845200  0.666000  0.154800  1.0
  O  O402  1  0.666000  0.845200  0.334000  1.0
  O  O403  1  0.334000  0.154800  0.666000  1.0
  O  O404  1  0.154800  0.334000  0.845200  1.0
  O  O405  1  0.666000  0.154800  0.845200  1.0
  O  O406  1  0.845200  0.334000  0.666000  1.0
  O  O407  1  0.154800  0.666000  0.334000  1.0
  O  O408  1  0.334000  0.845200  0.154800  1.0
  O  O409  1  0.666000  0.154800  0.334000  1.0
  O  O410  1  0.845200  0.334000  0.154800  1.0
  O  O411  1  0.154800  0.666000  0.845200  1.0
  O  O412  1  0.334000  0.845200  0.666000  1.0
  O  O413  1  0.666000  0.334000  0.845200  1.0
  O  O414  1  0.845200  0.154800  0.666000  1.0
  O  O415  1  0.154800  0.845200  0.334000  1.0
  O  O416  1  0.334000  0.666000  0.154800  1.0
  O  O417  1  0.666000  0.845200  0.154800  1.0
  O  O418  1  0.845200  0.666000  0.334000  1.0
  O  O419  1  0.154800  0.334000  0.666000  1.0
  O  O420  1  0.334000  0.154800  0.845200  1.0
  O  O421  1  0.899200  0.744000  0.744000  0.17
  O  O422  1  0.612800  0.744000  0.744000  0.17
  O  O423  1  0.744000  0.612800  0.899200  0.17
  O  O424  1  0.744000  0.899200  0.612800  0.17
  O  O425  1  0.744000  0.744000  0.899200  0.17
  O  O426  1  0.744000  0.744000  0.612800  0.17
  O  O427  1  0.612800  0.899200  0.744000  0.17
  O  O428  1  0.899200  0.612800  0.744000  0.17
  O  O429  1  0.744000  0.899200  0.744000  0.17
  O  O430  1  0.744000  0.612800  0.744000  0.17
  O  O431  1  0.899200  0.744000  0.612800  0.17
  O  O432  1  0.612800  0.744000  0.899200  0.17
  O  O433  1  0.387200  0.256000  0.256000  0.17
  O  O434  1  0.100800  0.256000  0.256000  0.17
  O  O435  1  0.256000  0.387200  0.100800  0.17
  O  O436  1  0.256000  0.100800  0.387200  0.17
  O  O437  1  0.387200  0.256000  0.100800  0.17
  O  O438  1  0.100800  0.256000  0.387200  0.17
  O  O439  1  0.256000  0.100800  0.256000  0.17
  O  O440  1  0.256000  0.387200  0.256000  0.17
  O  O441  1  0.387200  0.100800  0.256000  0.17
  O  O442  1  0.100800  0.387200  0.256000  0.17
  O  O443  1  0.256000  0.256000  0.387200  0.17
  O  O444  1  0.256000  0.256000  0.100800  0.17
  O  O445  1  0.900700  0.695300  0.793900  0.25
  O  O446  1  0.610100  0.793900  0.695300  0.25
  O  O447  1  0.793900  0.610100  0.900700  0.25
  O  O448  1  0.695300  0.900700  0.610100  0.25
  O  O449  1  0.695300  0.793900  0.900700  0.25
  O  O450  1  0.793900  0.695300  0.610100  0.25
  O  O451  1  0.610100  0.900700  0.793900  0.25
  O  O452  1  0.900700  0.610100  0.695300  0.25
  O  O453  1  0.793900  0.900700  0.695300  0.25
  O  O454  1  0.695300  0.610100  0.793900  0.25
  O  O455  1  0.900700  0.793900  0.610100  0.25
  O  O456  1  0.610100  0.695300  0.900700  0.25
  O  O457  1  0.389900  0.304700  0.206100  0.25
  O  O458  1  0.099300  0.206100  0.304700  0.25
  O  O459  1  0.304700  0.389900  0.099300  0.25
  O  O460  1  0.206100  0.099300  0.389900  0.25
  O  O461  1  0.389900  0.206100  0.099300  0.25
  O  O462  1  0.099300  0.304700  0.389900  0.25
  O  O463  1  0.304700  0.099300  0.206100  0.25
  O  O464  1  0.206100  0.389900  0.304700  0.25
  O  O465  1  0.389900  0.099300  0.304700  0.25
  O  O466  1  0.099300  0.389900  0.206100  0.25
  O  O467  1  0.304700  0.206100  0.389900  0.25
  O  O468  1  0.206100  0.304700  0.099300  0.25
  O  O469  1  0.099300  0.304700  0.206100  0.25
  O  O470  1  0.389900  0.206100  0.304700  0.25
  O  O471  1  0.206100  0.389900  0.099300  0.25
  O  O472  1  0.304700  0.099300  0.389900  0.25
  O  O473  1  0.304700  0.206100  0.099300  0.25
  O  O474  1  0.206100  0.304700  0.389900  0.25
  O  O475  1  0.389900  0.099300  0.206100  0.25
  O  O476  1  0.099300  0.389900  0.304700  0.25
  O  O477  1  0.206100  0.099300  0.304700  0.25
  O  O478  1  0.304700  0.389900  0.206100  0.25
  O  O479  1  0.099300  0.206100  0.389900  0.25
  O  O480  1  0.389900  0.304700  0.099300  0.25
  O  O481  1  0.610100  0.695300  0.793900  0.25
  O  O482  1  0.900700  0.793900  0.695300  0.25
  O  O483  1  0.695300  0.610100  0.900700  0.25
  O  O484  1  0.793900  0.900700  0.610100  0.25
  O  O485  1  0.610100  0.793900  0.900700  0.25
  O  O486  1  0.900700  0.695300  0.610100  0.25
  O  O487  1  0.695300  0.900700  0.793900  0.25
  O  O488  1  0.793900  0.610100  0.695300  0.25
  O  O489  1  0.610100  0.900700  0.695300  0.25
  O  O490  1  0.900700  0.610100  0.793900  0.25
  O  O491  1  0.695300  0.793900  0.610100  0.25
  O  O492  1  0.793900  0.695300  0.900700  0.25
  O  O493  1  0.944800  0.762000  0.703600  0.25
  O  O494  1  0.589600  0.703600  0.762000  0.25
  O  O495  1  0.703600  0.589600  0.944800  0.25
  O  O496  1  0.762000  0.944800  0.589600  0.25
  O  O497  1  0.762000  0.703600  0.944800  0.25
  O  O498  1  0.703600  0.762000  0.589600  0.25
  O  O499  1  0.589600  0.944800  0.703600  0.25
  O  O500  1  0.944800  0.589600  0.762000  0.25
  O  O501  1  0.703600  0.944800  0.762000  0.25
  O  O502  1  0.762000  0.589600  0.703600  0.25
  O  O503  1  0.944800  0.703600  0.589600  0.25
  O  O504  1  0.589600  0.762000  0.944800  0.25
  O  O505  1  0.410400  0.238000  0.296400  0.25
  O  O506  1  0.055200  0.296400  0.238000  0.25
  O  O507  1  0.238000  0.410400  0.055200  0.25
  O  O508  1  0.296400  0.055200  0.410400  0.25
  O  O509  1  0.410400  0.296400  0.055200  0.25
  O  O510  1  0.055200  0.238000  0.410400  0.25
  O  O511  1  0.238000  0.055200  0.296400  0.25
  O  O512  1  0.296400  0.410400  0.238000  0.25
  O  O513  1  0.410400  0.055200  0.238000  0.25
  O  O514  1  0.055200  0.410400  0.296400  0.25
  O  O515  1  0.238000  0.296400  0.410400  0.25
  O  O516  1  0.296400  0.238000  0.055200  0.25
  O  O517  1  0.055200  0.238000  0.296400  0.25
  O  O518  1  0.410400  0.296400  0.238000  0.25
  O  O519  1  0.296400  0.410400  0.055200  0.25
  O  O520  1  0.238000  0.055200  0.410400  0.25
  O  O521  1  0.238000  0.296400  0.055200  0.25
  O  O522  1  0.296400  0.238000  0.410400  0.25
  O  O523  1  0.410400  0.055200  0.296400  0.25
  O  O524  1  0.055200  0.410400  0.238000  0.25
  O  O525  1  0.296400  0.055200  0.238000  0.25
  O  O526  1  0.238000  0.410400  0.296400  0.25
  O  O527  1  0.055200  0.296400  0.410400  0.25
  O  O528  1  0.410400  0.238000  0.055200  0.25
  O  O529  1  0.589600  0.762000  0.703600  0.25
  O  O530  1  0.944800  0.703600  0.762000  0.25
  O  O531  1  0.762000  0.589600  0.944800  0.25
  O  O532  1  0.703600  0.944800  0.589600  0.25
  O  O533  1  0.589600  0.703600  0.944800  0.25
  O  O534  1  0.944800  0.762000  0.589600  0.25
  O  O535  1  0.762000  0.944800  0.703600  0.25
  O  O536  1  0.703600  0.589600  0.762000  0.25
  O  O537  1  0.589600  0.944800  0.762000  0.25
  O  O538  1  0.944800  0.589600  0.703600  0.25
  O  O539  1  0.762000  0.703600  0.589600  0.25
  O  O540  1  0.703600  0.762000  0.944800  0.25
  O  O541  1  0.955000  0.045000  0.955000  0.25
  O  O542  1  0.045000  0.955000  0.045000  0.25
  O  O543  1  0.045000  0.955000  0.955000  0.25
  O  O544  1  0.955000  0.045000  0.045000  0.25
  O  O545  1  0.955000  0.955000  0.045000  0.25
  O  O546  1  0.045000  0.045000  0.955000  0.25
  O  O547  1  0.152800  0.719000  0.719000  0.25
  O  O548  1  0.409200  0.719000  0.719000  0.25
  O  O549  1  0.719000  0.409200  0.152800  0.25
  O  O550  1  0.719000  0.152800  0.409200  0.25
  O  O551  1  0.719000  0.719000  0.152800  0.25
  O  O552  1  0.719000  0.719000  0.409200  0.25
  O  O553  1  0.409200  0.152800  0.719000  0.25
  O  O554  1  0.152800  0.409200  0.719000  0.25
  O  O555  1  0.719000  0.152800  0.719000  0.25
  O  O556  1  0.719000  0.409200  0.719000  0.25
  O  O557  1  0.152800  0.719000  0.409200  0.25
  O  O558  1  0.409200  0.719000  0.152800  0.25
  O  O559  1  0.590800  0.281000  0.281000  0.25
  O  O560  1  0.847200  0.281000  0.281000  0.25
  O  O561  1  0.281000  0.590800  0.847200  0.25
  O  O562  1  0.281000  0.847200  0.590800  0.25
  O  O563  1  0.590800  0.281000  0.847200  0.25
  O  O564  1  0.847200  0.281000  0.590800  0.25
  O  O565  1  0.281000  0.847200  0.281000  0.25
  O  O566  1  0.281000  0.590800  0.281000  0.25
  O  O567  1  0.590800  0.847200  0.281000  0.25
  O  O568  1  0.847200  0.590800  0.281000  0.25
  O  O569  1  0.281000  0.281000  0.590800  0.25
  O  O570  1  0.281000  0.281000  0.847200  0.25
  O  O571  1  0.000000  1.000000  0.513600  0.5
  O  O572  1  0.486400  0.513600  0.000000  0.5
  O  O573  1  0.513600  0.486400  0.000000  0.5
  O  O574  1  0.000000  1.000000  0.486400  0.5
  O  O575  1  0.000000  0.513600  0.000000  0.5
  O  O576  1  0.513600  0.000000  0.486400  0.5
  O  O577  1  0.486400  1.000000  0.513600  0.5
  O  O578  1  0.000000  0.486400  0.000000  0.5
  O  O579  1  0.513600  0.000000  0.000000  0.5
  O  O580  1  0.000000  0.486400  0.513600  0.5
  O  O581  1  0.000000  0.513600  0.486400  0.5
  O  O582  1  0.486400  0.000000  0.000000  0.5
  O  O583  1  0.983700  0.016300  0.808500  0.5
  O  O584  1  0.191500  0.808500  0.016300  0.5
  O  O585  1  0.808500  0.191500  0.983700  0.5
  O  O586  1  0.016300  0.983700  0.191500  0.5
  O  O587  1  0.016300  0.808500  0.983700  0.5
  O  O588  1  0.808500  0.016300  0.191500  0.5
  O  O589  1  0.191500  0.983700  0.808500  0.5
  O  O590  1  0.983700  0.191500  0.016300  0.5
  O  O591  1  0.808500  0.983700  0.016300  0.5
  O  O592  1  0.016300  0.191500  0.808500  0.5
  O  O593  1  0.983700  0.808500  0.191500  0.5
  O  O594  1  0.191500  0.016300  0.983700  0.5
  O  O595  1  0.808500  0.983700  0.191500  0.5
  O  O596  1  0.016300  0.191500  0.983700  0.5
  O  O597  1  0.983700  0.808500  0.016300  0.5
  O  O598  1  0.191500  0.016300  0.808500  0.5
  O  O599  1  0.808500  0.191500  0.016300  0.5
  O  O600  1  0.016300  0.983700  0.808500  0.5
  O  O601  1  0.983700  0.016300  0.191500  0.5
  O  O602  1  0.191500  0.808500  0.983700  0.5
  O  O603  1  0.808500  0.016300  0.983700  0.5
  O  O604  1  0.016300  0.808500  0.191500  0.5
  O  O605  1  0.983700  0.191500  0.808500  0.5
  O  O606  1  0.191500  0.983700  0.016300  0.5
  O  O607  1  0.011900  0.668100  0.747100  0.5
  O  O608  1  0.572900  0.747100  0.668100  0.5
  O  O609  1  0.747100  0.572900  0.011900  0.5
  O  O610  1  0.668100  0.011900  0.572900  0.5
  O  O611  1  0.668100  0.747100  0.011900  0.5
  O  O612  1  0.747100  0.668100  0.572900  0.5
  O  O613  1  0.572900  0.011900  0.747100  0.5
  O  O614  1  0.011900  0.572900  0.668100  0.5
  O  O615  1  0.747100  0.011900  0.668100  0.5
  O  O616  1  0.668100  0.572900  0.747100  0.5
  O  O617  1  0.011900  0.747100  0.572900  0.5
  O  O618  1  0.572900  0.668100  0.011900  0.5
  O  O619  1  0.427100  0.331900  0.252900  0.5
  O  O620  1  0.988100  0.252900  0.331900  0.5
  O  O621  1  0.331900  0.427100  0.988100  0.5
  O  O622  1  0.252900  0.988100  0.427100  0.5
  O  O623  1  0.427100  0.252900  0.988100  0.5
  O  O624  1  0.988100  0.331900  0.427100  0.5
  O  O625  1  0.331900  0.988100  0.252900  0.5
  O  O626  1  0.252900  0.427100  0.331900  0.5
  O  O627  1  0.427100  0.988100  0.331900  0.5
  O  O628  1  0.988100  0.427100  0.252900  0.5
  O  O629  1  0.331900  0.252900  0.427100  0.5
  O  O630  1  0.252900  0.331900  0.988100  0.5
  O  O631  1  0.988100  0.331900  0.252900  0.5
  O  O632  1  0.427100  0.252900  0.331900  0.5
  O  O633  1  0.252900  0.427100  0.988100  0.5
  O  O634  1  0.331900  0.988100  0.427100  0.5
  O  O635  1  0.331900  0.252900  0.988100  0.5
  O  O636  1  0.252900  0.331900  0.427100  0.5
  O  O637  1  0.427100  0.988100  0.252900  0.5
  O  O638  1  0.988100  0.427100  0.331900  0.5
  O  O639  1  0.252900  0.988100  0.331900  0.5
  O  O640  1  0.331900  0.427100  0.252900  0.5
  O  O641  1  0.988100  0.252900  0.427100  0.5
  O  O642  1  0.427100  0.331900  0.988100  0.5
  O  O643  1  0.572900  0.668100  0.747100  0.5
  O  O644  1  0.011900  0.747100  0.668100  0.5
  O  O645  1  0.668100  0.572900  0.011900  0.5
  O  O646  1  0.747100  0.011900  0.572900  0.5
  O  O647  1  0.572900  0.747100  0.011900  0.5
  O  O648  1  0.011900  0.668100  0.572900  0.5
  O  O649  1  0.668100  0.011900  0.747100  0.5
  O  O650  1  0.747100  0.572900  0.668100  0.5
  O  O651  1  0.572900  0.011900  0.668100  0.5
  O  O652  1  0.011900  0.572900  0.747100  0.5
  O  O653  1  0.668100  0.747100  0.572900  0.5
  O  O654  1  0.747100  0.668100  0.011900  0.5
  O  O655  1  0.143000  0.682400  0.682400  0.5
  O  O656  1  0.492200  0.682400  0.682400  0.5
  O  O657  1  0.682400  0.492200  0.143000  0.5
  O  O658  1  0.682400  0.143000  0.492200  0.5
  O  O659  1  0.682400  0.682400  0.143000  0.5
  O  O660  1  0.682400  0.682400  0.492200  0.5
  O  O661  1  0.492200  0.143000  0.682400  0.5
  O  O662  1  0.143000  0.492200  0.682400  0.5
  O  O663  1  0.682400  0.143000  0.682400  0.5
  O  O664  1  0.682400  0.492200  0.682400  0.5
  O  O665  1  0.143000  0.682400  0.492200  0.5
  O  O666  1  0.492200  0.682400  0.143000  0.5
  O  O667  1  0.507800  0.317600  0.317600  0.5
  O  O668  1  0.857000  0.317600  0.317600  0.5
  O  O669  1  0.317600  0.507800  0.857000  0.5
  O  O670  1  0.317600  0.857000  0.507800  0.5
  O  O671  1  0.507800  0.317600  0.857000  0.5
  O  O672  1  0.857000  0.317600  0.507800  0.5
  O  O673  1  0.317600  0.857000  0.317600  0.5
  O  O674  1  0.317600  0.507800  0.317600  0.5
  O  O675  1  0.507800  0.857000  0.317600  0.5
  O  O676  1  0.857000  0.507800  0.317600  0.5
  O  O677  1  0.317600  0.317600  0.507800  0.5
  O  O678  1  0.317600  0.317600  0.857000  0.5
  Rb  Rb679  1  0.826410  0.826410  0.826410  1.0
  Rb  Rb680  1  0.520770  0.826410  0.826410  1.0
  Rb  Rb681  1  0.826410  0.520770  0.826410  1.0
  Rb  Rb682  1  0.826410  0.826410  0.520770  1.0
  Rb  Rb683  1  0.479230  0.173590  0.173590  1.0
  Rb  Rb684  1  0.173590  0.173590  0.173590  1.0
  Rb  Rb685  1  0.173590  0.479230  0.173590  1.0
  Rb  Rb686  1  0.173590  0.173590  0.479230  1.0
  Rb  Rb687  1  0.941100  0.941100  0.941100  0.25
  Rb  Rb688  1  0.176700  0.941100  0.941100  0.25
  Rb  Rb689  1  0.941100  0.176700  0.941100  0.25
  Rb  Rb690  1  0.941100  0.941100  0.176700  0.25
  Rb  Rb691  1  0.823300  0.058900  0.058900  0.25
  Rb  Rb692  1  0.058900  0.058900  0.058900  0.25
  Rb  Rb693  1  0.058900  0.823300  0.058900  0.25
  Rb  Rb694  1  0.058900  0.058900  0.823300  0.25
  Rb  Rb695  1  0.022040  0.977960  0.697940  0.5
  Rb  Rb696  1  0.302060  0.697940  0.977960  0.5
  Rb  Rb697  1  0.697940  0.302060  0.022040  0.5
  Rb  Rb698  1  0.977960  0.022040  0.302060  0.5
  Rb  Rb699  1  0.977960  0.697940  0.022040  0.5
  Rb  Rb700  1  0.697940  0.977960  0.302060  0.5
  Rb  Rb701  1  0.302060  0.022040  0.697940  0.5
  Rb  Rb702  1  0.022040  0.302060  0.977960  0.5
  Rb  Rb703  1  0.697940  0.022040  0.977960  0.5
  Rb  Rb704  1  0.977960  0.302060  0.697940  0.5
  Rb  Rb705  1  0.022040  0.697940  0.302060  0.5
  Rb  Rb706  1  0.302060  0.977960  0.022040  0.5
  Rb  Rb707  1  0.697940  0.022040  0.302060  0.5
  Rb  Rb708  1  0.977960  0.302060  0.022040  0.5
  Rb  Rb709  1  0.022040  0.697940  0.977960  0.5
  Rb  Rb710  1  0.302060  0.977960  0.697940  0.5
  Rb  Rb711  1  0.697940  0.302060  0.977960  0.5
  Rb  Rb712  1  0.977960  0.022040  0.697940  0.5
  Rb  Rb713  1  0.022040  0.977960  0.302060  0.5
  Rb  Rb714  1  0.302060  0.697940  0.022040  0.5
  Rb  Rb715  1  0.697940  0.977960  0.022040  0.5
  Rb  Rb716  1  0.977960  0.697940  0.302060  0.5
  Rb  Rb717  1  0.022040  0.302060  0.697940  0.5
  Rb  Rb718  1  0.302060  0.022040  0.977960  0.5
