# generated using pymatgen
data_CuH13(C3O)5
_symmetry_space_group_name_H-M   'P 1'
_cell_length_a   26.68700000
_cell_length_b   26.71400000
_cell_length_c   28.01200000
_cell_angle_alpha   67.56500000
_cell_angle_beta   69.25700000
_cell_angle_gamma   76.22100000
_symmetry_Int_Tables_number   1
_chemical_formula_structural   CuH13(C3O)5
_chemical_formula_sum   'Cu24 H312 C360 O120'
_cell_volume   17139.19510814
_cell_formula_units_Z   24
loop_
 _symmetry_equiv_pos_site_id
 _symmetry_equiv_pos_as_xyz
  1  'x, y, z'
loop_
 _atom_site_type_symbol
 _atom_site_label
 _atom_site_symmetry_multiplicity
 _atom_site_fract_x
 _atom_site_fract_y
 _atom_site_fract_z
 _atom_site_occupancy
  Cu  Cu1  1  0.528300  0.213970  0.161100  1.0
  Cu  Cu2  1  0.471700  0.786030  0.838900  1.0
  Cu  Cu3  1  0.513160  0.167250  0.264970  1.0
  Cu  Cu4  1  0.486840  0.832750  0.735030  1.0
  Cu  Cu5  1  0.180460  0.101960  0.701610  1.0
  Cu  Cu6  1  0.819540  0.898040  0.298390  1.0
  Cu  Cu7  1  0.266490  0.074420  0.629450  1.0
  Cu  Cu8  1  0.733510  0.925580  0.370550  1.0
  Cu  Cu9  1  0.557780  0.198320  0.662960  1.0
  Cu  Cu10  1  0.442220  0.801680  0.337040  1.0
  Cu  Cu11  1  0.555570  0.148100  0.599540  1.0
  Cu  Cu12  1  0.444430  0.851900  0.400460  1.0
  Cu  Cu13  1  0.064440  0.495220  0.671020  1.0
  Cu  Cu14  1  0.935560  0.504780  0.328980  1.0
  Cu  Cu15  1  0.060570  0.482210  0.769620  1.0
  Cu  Cu16  1  0.939430  0.517790  0.230380  1.0
  Cu  Cu17  1  0.046730  0.154630  0.203870  1.0
  Cu  Cu18  1  0.953270  0.845370  0.796130  1.0
  Cu  Cu19  1  0.027360  0.249280  0.132950  1.0
  Cu  Cu20  1  0.972640  0.750720  0.867050  1.0
  Cu  Cu21  1  0.321120  0.446080  0.052750  1.0
  Cu  Cu22  1  0.678880  0.553920  0.947250  1.0
  Cu  Cu23  1  0.235900  0.472060  0.018730  1.0
  Cu  Cu24  1  0.764100  0.527940  0.981270  1.0
  H  H25  1  0.758800  0.031900  0.049700  1
  H  H26  1  0.241200  0.968100  0.950300  1
  H  H27  1  0.785400  0.145000  0.986600  1
  H  H28  1  0.214600  0.855000  0.013400  1
  H  H29  1  0.757400  0.172300  0.033000  1
  H  H30  1  0.242600  0.827700  0.967000  1
  H  H31  1  0.726200  0.132400  0.026100  1
  H  H32  1  0.273800  0.867600  0.973900  1
  H  H33  1  0.865100  0.108000  0.020100  1
  H  H34  1  0.134900  0.892000  0.979900  1
  H  H35  1  0.858600  0.071300  0.082000  1
  H  H36  1  0.141400  0.928700  0.918000  1
  H  H37  1  0.838000  0.135200  0.066700  1
  H  H38  1  0.162000  0.864800  0.933300  1
  H  H39  1  0.817400  0.046700  0.009300  1
  H  H40  1  0.182600  0.953300  0.990700  1
  H  H41  1  0.758700  0.032600  0.048900  1
  H  H42  1  0.241300  0.967400  0.951100  1
  H  H43  1  0.810300  0.008800  0.070900  1
  H  H44  1  0.189700  0.991200  0.929100  1
  H  H45  1  0.460400  0.097400  0.061300  1
  H  H46  1  0.539600  0.902600  0.938700  1
  H  H47  1  0.444800  0.967000  0.068500  1
  H  H48  1  0.555200  0.033000  0.931500  1
  H  H49  1  0.403700  0.974400  0.123700  1
  H  H50  1  0.596300  0.025600  0.876300  1
  H  H51  1  0.457700  0.932600  0.124500  1
  H  H52  1  0.542300  0.067400  0.875500  1
  H  H53  1  0.448100  0.067500  0.030700  1
  H  H54  1  0.551900  0.932500  0.969300  1
  H  H55  1  0.464700  0.097600  0.061500  1
  H  H56  1  0.535300  0.902400  0.938500  1
  H  H57  1  0.407800  0.074000  0.086600  1
  H  H58  1  0.592200  0.926000  0.913400  1
  H  H59  1  0.531500  0.003300  0.028600  1
  H  H60  1  0.468500  0.996700  0.971400  1
  H  H61  1  0.547900  0.969100  0.082900  1
  H  H62  1  0.452100  0.030900  0.917100  1
  H  H63  1  0.550200  0.033600  0.057900  1
  H  H64  1  0.449800  0.966400  0.942100  1
  H  H65  1  0.383800  0.164700  0.192700  1
  H  H66  1  0.616200  0.835300  0.807300  1
  H  H67  1  0.353500  0.225400  0.184800  1
  H  H68  1  0.646500  0.774600  0.815200  1
  H  H69  1  0.376200  0.202600  0.135000  1
  H  H70  1  0.623800  0.797400  0.865000  1
  H  H71  1  0.303500  0.131400  0.270200  1
  H  H72  1  0.696500  0.868600  0.729800  1
  H  H73  1  0.244900  0.145100  0.261500  1
  H  H74  1  0.755100  0.854900  0.738500  1
  H  H75  1  0.273400  0.192300  0.260000  1
  H  H76  1  0.726600  0.807700  0.740000  1
  H  H77  1  0.341600  0.092400  0.195600  1
  H  H78  1  0.658400  0.907600  0.804400  1
  H  H79  1  0.332500  0.126300  0.137700  1
  H  H80  1  0.667500  0.873700  0.862300  1
  H  H81  1  0.282600  0.103300  0.188700  1
  H  H82  1  0.717400  0.896700  0.811300  1
  H  H83  1  0.102100  0.773500  0.487700  1
  H  H84  1  0.897900  0.226500  0.512300  1
  H  H85  1  0.003600  0.800600  0.508600  1
  H  H86  1  0.996400  0.199400  0.491400  1
  H  H87  1  0.967100  0.793200  0.569600  1
  H  H88  1  0.032900  0.206800  0.430400  1
  H  H89  1  0.993500  0.740800  0.550900  1
  H  H90  1  0.006500  0.259200  0.449100  1
  H  H91  1  0.020100  0.779800  0.500700  1
  H  H92  1  0.979900  0.220200  0.499300  1
  H  H93  1  0.977400  0.760300  0.559100  1
  H  H94  1  0.022600  0.239700  0.440900  1
  H  H95  1  0.027800  0.718600  0.540200  1
  H  H96  1  0.972200  0.281400  0.459800  1
  H  H97  1  0.035000  0.856800  0.519700  1
  H  H98  1  0.965000  0.143200  0.480300  1
  H  H99  1  0.052200  0.846900  0.572200  1
  H  H100  1  0.947800  0.153100  0.427800  1
  H  H101  1  0.992400  0.838900  0.578400  1
  H  H102  1  0.007600  0.161100  0.421600  1
  H  H103  1  0.112500  0.792100  0.491500  1
  H  H104  1  0.887500  0.207900  0.508500  1
  H  H105  1  0.120600  0.731000  0.531000  1
  H  H106  1  0.879400  0.269000  0.469000  1
  H  H107  1  0.130400  0.780700  0.543900  1
  H  H108  1  0.869600  0.219300  0.456100  1
  H  H109  1  0.601700  0.351900  0.133300  1.0
  H  H110  1  0.398300  0.648100  0.866700  1.0
  H  H111  1  0.633900  0.424200  0.136900  1.0
  H  H112  1  0.366100  0.575800  0.863100  1.0
  H  H113  1  0.629900  0.427800  0.220400  1.0
  H  H114  1  0.370100  0.572200  0.779600  1.0
  H  H115  1  0.561500  0.287000  0.296500  1.0
  H  H116  1  0.438500  0.713000  0.703500  1.0
  H  H117  1  0.603900  0.439400  0.389500  1.0
  H  H118  1  0.396100  0.560600  0.610500  1.0
  H  H119  1  0.600200  0.437400  0.474900  1.0
  H  H120  1  0.399800  0.562600  0.525100  1.0
  H  H121  1  0.585600  0.357000  0.548600  1.0
  H  H122  1  0.414400  0.643000  0.451400  1.0
  H  H123  1  0.578400  0.280400  0.451400  1.0
  H  H124  1  0.421600  0.719600  0.548600  1.0
  H  H125  1  0.391200  0.257900  0.708900  1.0
  H  H126  1  0.608800  0.742100  0.291100  1.0
  H  H127  1  0.246000  0.219700  0.727000  1.0
  H  H128  1  0.754000  0.780300  0.273000  1.0
  H  H129  1  0.383200  0.150800  0.641900  1.0
  H  H130  1  0.616800  0.849200  0.358100  1.0
  H  H131  1  0.224400  0.350300  0.746600  1.0
  H  H132  1  0.775600  0.649700  0.253400  1.0
  H  H133  1  0.218500  0.306900  0.722800  1.0
  H  H134  1  0.781500  0.693100  0.277200  1.0
  H  H135  1  0.264600  0.346600  0.689600  1.0
  H  H136  1  0.735400  0.653400  0.310400  1.0
  H  H137  1  0.231200  0.276600  0.831700  1.0
  H  H138  1  0.768800  0.723400  0.168300  1.0
  H  H139  1  0.274700  0.223900  0.830200  1.0
  H  H140  1  0.725300  0.776100  0.169800  1.0
  H  H141  1  0.224100  0.233300  0.808500  1.0
  H  H142  1  0.775900  0.766700  0.191500  1.0
  H  H143  1  0.301400  0.337400  0.781400  1.0
  H  H144  1  0.698600  0.662600  0.218600  1.0
  H  H145  1  0.342200  0.335000  0.724300  1.0
  H  H146  1  0.657800  0.665000  0.275700  1.0
  H  H147  1  0.347100  0.286700  0.778600  1.0
  H  H148  1  0.652900  0.713300  0.221400  1.0
  H  H149  1  0.107600  0.245600  0.602500  1.0
  H  H150  1  0.892400  0.754400  0.397500  1.0
  H  H151  1  0.083800  0.321600  0.534000  1.0
  H  H152  1  0.916200  0.678400  0.466000  1.0
  H  H153  1  0.138300  0.338500  0.444500  1.0
  H  H154  1  0.861700  0.661500  0.555500  1.0
  H  H155  1  0.240300  0.203300  0.491800  1.0
  H  H156  1  0.759700  0.796700  0.508200  1.0
  H  H157  1  0.239000  0.355900  0.270700  1.0
  H  H158  1  0.761000  0.644100  0.729300  1.0
  H  H159  1  0.293800  0.368800  0.181700  1.0
  H  H160  1  0.706200  0.631200  0.818300  1.0
  H  H161  1  0.378200  0.317000  0.164400  1.0
  H  H162  1  0.621800  0.683000  0.835600  1.0
  H  H163  1  0.353000  0.239300  0.325200  1.0
  H  H164  1  0.647000  0.760700  0.674800  1.0
  H  H165  1  0.690500  0.141900  0.100900  1.0
  H  H166  1  0.309500  0.858100  0.899100  1.0
  H  H167  1  0.798600  0.018500  0.157500  1.0
  H  H168  1  0.201400  0.981500  0.842500  1.0
  H  H169  1  0.660100  0.061900  0.261800  1.0
  H  H170  1  0.339900  0.938100  0.738200  1.0
  H  H171  1  0.815800  0.156900  0.996400  1.0
  H  H172  1  0.184200  0.843100  0.003600  1.0
  H  H173  1  0.807900  0.164600  0.052600  1.0
  H  H174  1  0.192100  0.835400  0.947400  1.0
  H  H175  1  0.756600  0.172000  0.032700  1.0
  H  H176  1  0.243400  0.828000  0.967300  1.0
  H  H177  1  0.786200  0.076900  0.994600  1.0
  H  H178  1  0.213800  0.923100  0.005400  1.0
  H  H179  1  0.726700  0.091300  0.030800  1.0
  H  H180  1  0.273300  0.908700  0.969200  1.0
  H  H181  1  0.865500  0.065500  0.024900  1.0
  H  H182  1  0.134500  0.934500  0.975100  1.0
  H  H183  1  0.839500  0.020300  0.080300  1.0
  H  H184  1  0.160500  0.979700  0.919700  1.0
  H  H185  1  0.858800  0.072100  0.081300  1.0
  H  H186  1  0.141200  0.927900  0.918700  1.0
  H  H187  1  0.071800  0.008500  0.698200  1.0
  H  H188  1  0.928200  0.991500  0.301800  1.0
  H  H189  1  0.020800  0.959900  0.682000  1.0
  H  H190  1  0.979200  0.040100  0.318000  1.0
  H  H191  1  0.058400  0.923700  0.611200  1.0
  H  H192  1  0.941600  0.076300  0.388800  1.0
  H  H193  1  0.198100  0.984600  0.572600  1.0
  H  H194  1  0.801900  0.015400  0.427400  1.0
  H  H195  1  0.133100  0.889900  0.445500  1.0
  H  H196  1  0.866900  0.110100  0.554500  1.0
  H  H197  1  0.177300  0.854900  0.374300  1.0
  H  H198  1  0.822700  0.145100  0.625700  1.0
  H  H199  1  0.271500  0.836200  0.348600  1.0
  H  H200  1  0.728500  0.163800  0.651400  1.0
  H  H201  1  0.277100  0.887400  0.465300  1.0
  H  H202  1  0.722900  0.112600  0.534700  1.0
  H  H203  1  0.468000  0.014600  0.285900  1.0
  H  H204  1  0.532000  0.985400  0.714100  1.0
  H  H205  1  0.457800  0.934100  0.193500  1.0
  H  H206  1  0.542200  0.065900  0.806500  1.0
  H  H207  1  0.481700  0.093600  0.127100  1.0
  H  H208  1  0.518300  0.906400  0.872900  1.0
  H  H209  1  0.490300  0.066200  0.018100  1.0
  H  H210  1  0.509700  0.933800  0.981900  1.0
  H  H211  1  0.522800  0.073900  0.052700  1.0
  H  H212  1  0.477200  0.926100  0.947300  1.0
  H  H213  1  0.515000  0.967500  0.046800  1.0
  H  H214  1  0.485000  0.032500  0.953200  1.0
  H  H215  1  0.503300  0.932000  0.109400  1.0
  H  H216  1  0.496700  0.068000  0.890600  1.0
  H  H217  1  0.549200  0.971900  0.081500  1.0
  H  H218  1  0.450800  0.028100  0.918500  1.0
  H  H219  1  0.418800  0.003900  0.063000  1.0
  H  H220  1  0.581200  0.996100  0.937000  1.0
  H  H221  1  0.389900  0.035200  0.106200  1.0
  H  H222  1  0.610100  0.964800  0.893800  1.0
  H  H223  1  0.405900  0.970500  0.126300  1.0
  H  H224  1  0.594100  0.029500  0.873700  1.0
  H  H225  1  0.104200  0.330200  0.676300  1.0
  H  H226  1  0.895800  0.669800  0.323700  1.0
  H  H227  1  0.132000  0.236800  0.692400  1.0
  H  H228  1  0.868000  0.763200  0.307600  1.0
  H  H229  1  0.137300  0.179800  0.778400  1.0
  H  H230  1  0.862700  0.820200  0.221600  1.0
  H  H231  1  0.087100  0.309600  0.832000  1.0
  H  H232  1  0.912900  0.690400  0.168000  1.0
  H  H233  1  0.147100  0.069800  0.944300  1.0
  H  H234  1  0.852900  0.930200  0.055700  1.0
  H  H235  1  0.144200  0.014700  0.033100  1.0
  H  H236  1  0.855800  0.985300  0.966900  1.0
  H  H237  1  0.112100  0.053100  0.102400  1.0
  H  H238  1  0.887900  0.946900  0.897600  1.0
  H  H239  1  0.085700  0.201600  0.994200  1.0
  H  H240  1  0.914300  0.798400  0.005800  1.0
  H  H241  1  0.208900  0.165700  0.185300  1.0
  H  H242  1  0.791100  0.834300  0.814700  1.0
  H  H243  1  0.316700  0.274900  0.124500  1.0
  H  H244  1  0.683300  0.725100  0.875500  1.0
  H  H245  1  0.173800  0.319500  0.090300  1.0
  H  H246  1  0.826200  0.680500  0.909700  1.0
  H  H247  1  0.321100  0.087200  0.217700  1.0
  H  H248  1  0.678900  0.912800  0.782300  1.0
  H  H249  1  0.301100  0.109400  0.165000  1.0
  H  H250  1  0.698900  0.890600  0.835000  1.0
  H  H251  1  0.258700  0.108000  0.222500  1.0
  H  H252  1  0.741300  0.892000  0.777500  1.0
  H  H253  1  0.319400  0.151200  0.263900  1.0
  H  H254  1  0.680600  0.848800  0.736100  1.0
  H  H255  1  0.257600  0.173200  0.266200  1.0
  H  H256  1  0.742400  0.826800  0.733800  1.0
  H  H257  1  0.301700  0.215100  0.239000  1.0
  H  H258  1  0.698300  0.784900  0.761000  1.0
  H  H259  1  0.388200  0.150000  0.177000  1.0
  H  H260  1  0.611800  0.850000  0.823000  1.0
  H  H261  1  0.372400  0.214400  0.153200  1.0
  H  H262  1  0.627600  0.785600  0.846800  1.0
  H  H263  1  0.371900  0.175400  0.122000  1.0
  H  H264  1  0.628100  0.824600  0.878000  1.0
  H  H265  1  0.445900  0.435100  0.905300  1.0
  H  H266  1  0.554100  0.564900  0.094700  1.0
  H  H267  1  0.498900  0.433400  0.819000  1.0
  H  H268  1  0.501100  0.566600  0.181000  1.0
  H  H269  1  0.457600  0.444000  0.754100  1.0
  H  H270  1  0.542400  0.556000  0.245900  1.0
  H  H271  1  0.310500  0.457900  0.861700  1.0
  H  H272  1  0.689500  0.542100  0.138300  1.0
  H  H273  1  0.373800  0.472700  0.629400  1.0
  H  H274  1  0.626200  0.527300  0.370600  1.0
  H  H275  1  0.327700  0.488200  0.567000  1.0
  H  H276  1  0.672300  0.511800  0.433000  1.0
  H  H277  1  0.233400  0.495700  0.594400  1.0
  H  H278  1  0.766600  0.504300  0.405600  1.0
  H  H279  1  0.231200  0.472400  0.746800  1.0
  H  H280  1  0.768800  0.527600  0.253200  1.0
  H  H281  1  0.061500  0.666500  0.607700  1.0
  H  H282  1  0.938500  0.333500  0.392300  1.0
  H  H283  1  0.020600  0.801700  0.652600  1.0
  H  H284  1  0.979400  0.198300  0.347400  1.0
  H  H285  1  0.025000  0.651700  0.765400  1.0
  H  H286  1  0.975000  0.348300  0.234600  1.0
  H  H287  1  0.092900  0.713600  0.530100  1.0
  H  H288  1  0.907100  0.286400  0.469900  1.0
  H  H289  1  0.130700  0.748900  0.534800  1.0
  H  H290  1  0.869300  0.251100  0.465200  1.0
  H  H291  1  0.061600  0.854900  0.515600  1.0
  H  H292  1  0.938400  0.145100  0.484400  1.0
  H  H293  1  0.090000  0.831500  0.562800  1.0
  H  H294  1  0.910000  0.168500  0.437200  1.0
  H  H295  1  0.026100  0.848700  0.576700  1.0
  H  H296  1  0.973900  0.151300  0.423300  1.0
  H  H297  1  0.871800  0.235500  0.136400  1.0
  H  H298  1  0.128200  0.764500  0.863600  1.0
  H  H299  1  0.760100  0.129400  0.205200  1.0
  H  H300  1  0.239900  0.870600  0.794800  1.0
  H  H301  1  0.816200  0.066100  0.254300  1.0
  H  H302  1  0.183800  0.933900  0.745700  1.0
  H  H303  1  0.900200  0.087500  0.244500  1.0
  H  H304  1  0.099800  0.912500  0.755500  1.0
  H  H305  1  0.754200  0.358300  0.060700  1.0
  H  H306  1  0.245800  0.641700  0.939300  1.0
  H  H307  1  0.631600  0.393500  0.995100  1.0
  H  H308  1  0.368400  0.606500  0.004900  1.0
  H  H309  1  0.614900  0.302200  0.035200  1.0
  H  H310  1  0.385100  0.697800  0.964800  1.0
  H  H311  1  0.667900  0.239000  0.088000  1.0
  H  H312  1  0.332100  0.761000  0.912000  1.0
  H  H313  1  0.896900  0.501300  0.693300  1.0
  H  H314  1  0.103100  0.498700  0.306700  1.0
  H  H315  1  0.750800  0.525600  0.798500  1.0
  H  H316  1  0.249200  0.474400  0.201500  1.0
  H  H317  1  0.887300  0.506000  0.839200  1.0
  H  H318  1  0.112700  0.494000  0.160800  1.0
  H  H319  1  0.792300  0.460200  0.662600  1.0
  H  H320  1  0.207700  0.539800  0.337400  1.0
  H  H321  1  0.795600  0.430400  0.723200  1.0
  H  H322  1  0.204400  0.569600  0.276800  1.0
  H  H323  1  0.848200  0.451900  0.675400  1.0
  H  H324  1  0.151800  0.548100  0.324600  1.0
  H  H325  1  0.797500  0.559100  0.618800  1.0
  H  H326  1  0.202500  0.440900  0.381200  1.0
  H  H327  1  0.853700  0.552000  0.630700  1.0
  H  H328  1  0.146300  0.448000  0.369300  1.0
  H  H329  1  0.804800  0.594700  0.650200  1.0
  H  H330  1  0.195200  0.405300  0.349800  1.0
  H  H331  1  0.716700  0.526000  0.692400  1.0
  H  H332  1  0.283300  0.474000  0.307600  1.0
  H  H333  1  0.722600  0.560900  0.725200  1.0
  H  H334  1  0.277400  0.439100  0.274800  1.0
  H  H335  1  0.719000  0.496800  0.753300  1.0
  H  H336  1  0.281000  0.503200  0.246700  1.0
  C  C337  1  0.761600  0.139500  0.023570  1
  C  C338  1  0.238400  0.860500  0.976430  1
  C  C339  1  0.842000  0.102400  0.057400  1
  C  C340  1  0.158000  0.897600  0.942600  1
  C  C341  1  0.793900  0.040100  0.046500  1
  C  C342  1  0.206100  0.959900  0.953500  1
  C  C343  1  0.441800  0.967800  0.104100  1
  C  C344  1  0.558200  0.032200  0.895900  1
  C  C345  1  0.445800  0.068100  0.066200  1
  C  C346  1  0.554200  0.931900  0.933800  1
  C  C347  1  0.530700  0.004000  0.063600  1
  C  C348  1  0.469300  0.996000  0.936400  1
  C  C349  1  0.359600  0.193000  0.174200  1
  C  C350  1  0.640400  0.807000  0.825800  1
  C  C351  1  0.279500  0.159000  0.250920  1
  C  C352  1  0.720500  0.841000  0.749080  1
  C  C353  1  0.316600  0.118600  0.176800  1
  C  C354  1  0.683400  0.881400  0.823200  1
  C  C355  1  0.015600  0.756700  0.538400  1
  C  C356  1  0.984400  0.243300  0.461600  1
  C  C357  1  0.030500  0.834720  0.557700  1
  C  C358  1  0.969500  0.165280  0.442300  1
  C  C359  1  0.108520  0.769100  0.529190  1
  C  C360  1  0.891480  0.230900  0.470810  1
  C  C361  1  0.557700  0.269200  0.210400  1.0
  C  C362  1  0.442300  0.730800  0.789600  1.0
  C  C363  1  0.578600  0.312660  0.214600  1.0
  C  C364  1  0.421400  0.687340  0.785400  1.0
  C  C365  1  0.600110  0.353400  0.167160  1.0
  C  C366  1  0.399890  0.646600  0.832840  1.0
  C  C367  1  0.619230  0.396330  0.169300  1.0
  C  C368  1  0.380770  0.603670  0.830700  1.0
  C  C369  1  0.616850  0.398490  0.218900  1.0
  C  C370  1  0.383150  0.601510  0.781100  1.0
  C  C371  1  0.595300  0.357700  0.266300  1.0
  C  C372  1  0.404700  0.642300  0.733700  1.0
  C  C373  1  0.576220  0.314830  0.264130  1.0
  C  C374  1  0.423780  0.685170  0.735870  1.0
  C  C375  1  0.594800  0.360100  0.317300  1.0
  C  C376  1  0.405200  0.639900  0.682700  1.0
  C  C377  1  0.593300  0.359400  0.361700  1.0
  C  C378  1  0.406700  0.640600  0.638300  1.0
  C  C379  1  0.591500  0.360100  0.412400  1.0
  C  C380  1  0.408500  0.639900  0.587600  1.0
  C  C381  1  0.598000  0.406800  0.419400  1.0
  C  C382  1  0.402000  0.593200  0.580600  1.0
  C  C383  1  0.595800  0.405600  0.470200  1.0
  C  C384  1  0.404200  0.594400  0.529800  1.0
  C  C385  1  0.587100  0.357800  0.513900  1.0
  C  C386  1  0.412900  0.642200  0.486100  1.0
  C  C387  1  0.580610  0.311100  0.506900  1.0
  C  C388  1  0.419390  0.688900  0.493100  1.0
  C  C389  1  0.582830  0.312300  0.456200  1.0
  C  C390  1  0.417170  0.687700  0.543800  1.0
  C  C391  1  0.570500  0.260900  0.558800  1.0
  C  C392  1  0.429500  0.739100  0.441200  1.0
  C  C393  1  0.454900  0.193100  0.656000  1.0
  C  C394  1  0.545100  0.806900  0.344000  1.0
  C  C395  1  0.396070  0.203410  0.672160  1.0
  C  C396  1  0.603930  0.796590  0.327840  1.0
  C  C397  1  0.370490  0.238260  0.702260  1.0
  C  C398  1  0.629510  0.761740  0.297740  1.0
  C  C399  1  0.314560  0.244310  0.722690  1.0
  C  C400  1  0.685440  0.755690  0.277310  1.0
  C  C401  1  0.284210  0.215530  0.713010  1.0
  C  C402  1  0.715790  0.784470  0.286990  1.0
  C  C403  1  0.309800  0.180690  0.682900  1.0
  C  C404  1  0.690200  0.819310  0.317100  1.0
  C  C405  1  0.365730  0.174630  0.662480  1.0
  C  C406  1  0.634270  0.825370  0.337520  1.0
  C  C407  1  0.277700  0.145500  0.675400  1.0
  C  C408  1  0.722300  0.854500  0.324600  1.0
  C  C409  1  0.283060  0.283230  0.754700  1.0
  C  C410  1  0.716940  0.716770  0.245300  1.0
  C  C411  1  0.244130  0.325560  0.725800  1.0
  C  C412  1  0.755870  0.674440  0.274200  1.0
  C  C413  1  0.250300  0.251400  0.811390  1.0
  C  C414  1  0.749700  0.748600  0.188610  1.0
  C  C415  1  0.321940  0.313300  0.760200  1.0
  C  C416  1  0.678060  0.686700  0.239800  1.0
  C  C417  1  0.191000  0.169500  0.596700  1.0
  C  C418  1  0.809000  0.830500  0.403300  1.0
  C  C419  1  0.176180  0.217320  0.553540  1.0
  C  C420  1  0.823820  0.782680  0.446460  1.0
  C  C421  1  0.129690  0.252460  0.566100  1.0
  C  C422  1  0.870310  0.747540  0.433900  1.0
  C  C423  1  0.115590  0.297630  0.525460  1.0
  C  C424  1  0.884410  0.702370  0.474540  1.0
  C  C425  1  0.147960  0.307650  0.472270  1.0
  C  C426  1  0.852040  0.692350  0.527730  1.0
  C  C427  1  0.194440  0.272510  0.459710  1.0
  C  C428  1  0.805560  0.727490  0.540290  1.0
  C  C429  1  0.208550  0.227340  0.500340  1.0
  C  C430  1  0.791450  0.772660  0.499660  1.0
  C  C431  1  0.228400  0.280600  0.404900  1.0
  C  C432  1  0.771600  0.719400  0.595100  1.0
  C  C433  1  0.254300  0.286200  0.363100  1.0
  C  C434  1  0.745700  0.713800  0.636900  1.0
  C  C435  1  0.290830  0.296300  0.306350  1.0
  C  C436  1  0.709170  0.703700  0.693650  1.0
  C  C437  1  0.273250  0.334830  0.263700  1.0
  C  C438  1  0.726750  0.665170  0.736300  1.0
  C  C439  1  0.305800  0.342530  0.210850  1.0
  C  C440  1  0.694200  0.657470  0.789150  1.0
  C  C441  1  0.355920  0.311700  0.200580  1.0
  C  C442  1  0.644080  0.688300  0.799420  1.0
  C  C443  1  0.373500  0.273270  0.243200  1.0
  C  C444  1  0.626500  0.726730  0.756800  1.0
  C  C445  1  0.340950  0.265560  0.296080  1.0
  C  C446  1  0.659050  0.734440  0.703920  1.0
  C  C447  1  0.429600  0.242500  0.229500  1.0
  C  C448  1  0.570400  0.757500  0.770500  1.0
  C  C449  1  0.613200  0.139800  0.193500  1.0
  C  C450  1  0.386800  0.860200  0.806500  1.0
  C  C451  1  0.667570  0.107130  0.182800  1.0
  C  C452  1  0.332430  0.892870  0.817200  1.0
  C  C453  1  0.701000  0.114370  0.130310  1.0
  C  C454  1  0.299000  0.885630  0.869690  1.0
  C  C455  1  0.749820  0.081350  0.120900  1.0
  C  C456  1  0.250180  0.918650  0.879100  1.0
  C  C457  1  0.765210  0.041080  0.164000  1.0
  C  C458  1  0.234790  0.958920  0.836000  1.0
  C  C459  1  0.731770  0.033840  0.216490  1.0
  C  C460  1  0.268230  0.966160  0.783510  1.0
  C  C461  1  0.682950  0.066860  0.225900  1.0
  C  C462  1  0.317050  0.933140  0.774100  1.0
  C  C463  1  0.251500  0.010700  0.740100  1.0
  C  C464  1  0.748500  0.989300  0.259900  1.0
  C  C465  1  0.786410  0.090730  0.062670  1.0
  C  C466  1  0.213590  0.909270  0.937330  1.0
  C  C467  1  0.792200  0.151530  0.033400  1.0
  C  C468  1  0.207800  0.848470  0.966600  1.0
  C  C469  1  0.762400  0.070900  0.031700  1.0
  C  C470  1  0.237600  0.929100  0.968300  1.0
  C  C471  1  0.842600  0.059300  0.062300  1.0
  C  C472  1  0.157400  0.940700  0.937700  1.0
  C  C473  1  0.172200  0.032700  0.649200  1.0
  C  C474  1  0.827800  0.967300  0.350800  1.0
  C  C475  1  0.139800  0.001150  0.636900  1.0
  C  C476  1  0.860200  0.998850  0.363100  1.0
  C  C477  1  0.087100  0.993800  0.669420  1.0
  C  C478  1  0.912900  0.006200  0.330580  1.0
  C  C479  1  0.056760  0.964900  0.659800  1.0
  C  C480  1  0.943240  0.035100  0.340200  1.0
  C  C481  1  0.079100  0.943410  0.617700  1.0
  C  C482  1  0.920900  0.056590  0.382300  1.0
  C  C483  1  0.131800  0.950750  0.585300  1.0
  C  C484  1  0.868200  0.049250  0.414700  1.0
  C  C485  1  0.162120  0.979620  0.594800  1.0
  C  C486  1  0.837880  0.020380  0.405200  1.0
  C  C487  1  0.153900  0.930800  0.541900  1.0
  C  C488  1  0.846100  0.069200  0.458100  1.0
  C  C489  1  0.174600  0.913200  0.505000  1.0
  C  C490  1  0.825400  0.086800  0.495000  1.0
  C  C491  1  0.200900  0.891940  0.462080  1.0
  C  C492  1  0.799100  0.108060  0.537920  1.0
  C  C493  1  0.171280  0.882300  0.435100  1.0
  C  C494  1  0.828720  0.117700  0.564900  1.0
  C  C495  1  0.197600  0.861500  0.392800  1.0
  C  C496  1  0.802400  0.138500  0.607200  1.0
  C  C497  1  0.253500  0.850370  0.377490  1.0
  C  C498  1  0.746500  0.149630  0.622510  1.0
  C  C499  1  0.283120  0.860000  0.404500  1.0
  C  C500  1  0.716880  0.140000  0.595500  1.0
  C  C501  1  0.256800  0.880790  0.446800  1.0
  C  C502  1  0.743200  0.119210  0.553200  1.0
  C  C503  1  0.657400  0.151900  0.610400  1.0
  C  C504  1  0.342600  0.848100  0.389600  1.0
  C  C505  1  0.489800  0.111000  0.208800  1.0
  C  C506  1  0.510200  0.889000  0.791200  1.0
  C  C507  1  0.475900  0.061620  0.207300  1.0
  C  C508  1  0.524100  0.938380  0.792700  1.0
  C  C509  1  0.468460  0.014400  0.251940  1.0
  C  C510  1  0.531540  0.985600  0.748060  1.0
  C  C511  1  0.461700  0.966900  0.246800  1.0
  C  C512  1  0.538300  0.033100  0.753200  1.0
  C  C513  1  0.462400  0.966600  0.197000  1.0
  C  C514  1  0.537600  0.033400  0.803000  1.0
  C  C515  1  0.469800  0.013800  0.152450  1.0
  C  C516  1  0.530200  0.986200  0.847550  1.0
  C  C517  1  0.476590  0.061300  0.157600  1.0
  C  C518  1  0.523410  0.938700  0.842400  1.0
  C  C519  1  0.545800  0.087800  0.705200  1.0
  C  C520  1  0.454200  0.912200  0.294800  1.0
  C  C521  1  0.472000  0.013400  0.097150  1.0
  C  C522  1  0.528000  0.986600  0.902850  1.0
  C  C523  1  0.487800  0.067600  0.053400  1.0
  C  C524  1  0.512200  0.932400  0.946600  1.0
  C  C525  1  0.513600  0.967000  0.082400  1.0
  C  C526  1  0.486400  0.033000  0.917600  1.0
  C  C527  1  0.416700  0.005000  0.098200  1.0
  C  C528  1  0.583300  0.995000  0.901800  1.0
  C  C529  1  0.078700  0.389400  0.740400  1.0
  C  C530  1  0.921300  0.610600  0.259600  1.0
  C  C531  1  0.093050  0.328680  0.752600  1.0
  C  C532  1  0.906950  0.671320  0.247400  1.0
  C  C533  1  0.106400  0.307000  0.711200  1.0
  C  C534  1  0.893600  0.693000  0.288800  1.0
  C  C535  1  0.122900  0.251600  0.720800  1.0
  C  C536  1  0.877100  0.748400  0.279200  1.0
  C  C537  1  0.126100  0.217710  0.771800  1.0
  C  C538  1  0.873900  0.782290  0.228200  1.0
  C  C539  1  0.112700  0.239400  0.813300  1.0
  C  C540  1  0.887300  0.760600  0.186700  1.0
  C  C541  1  0.096220  0.294800  0.803700  1.0
  C  C542  1  0.903780  0.705200  0.196300  1.0
  C  C543  1  0.114300  0.202400  0.866200  1.0
  C  C544  1  0.885700  0.797600  0.133800  1.0
  C  C545  1  0.114800  0.175300  0.908800  1.0
  C  C546  1  0.885200  0.824700  0.091200  1.0
  C  C547  1  0.116600  0.140900  0.960940  1.0
  C  C548  1  0.883400  0.859100  0.039060  1.0
  C  C549  1  0.134000  0.085400  0.972480  1.0
  C  C550  1  0.866000  0.914600  0.027520  1.0
  C  C551  1  0.132300  0.052640  0.025200  1.0
  C  C552  1  0.867700  0.947360  0.974800  1.0
  C  C553  1  0.113200  0.075400  0.066350  1.0
  C  C554  1  0.886800  0.924600  0.933650  1.0
  C  C555  1  0.095800  0.131000  0.054800  1.0
  C  C556  1  0.904200  0.869000  0.945200  1.0
  C  C557  1  0.097500  0.163680  0.002100  1.0
  C  C558  1  0.902500  0.836320  0.997900  1.0
  C  C559  1  0.075900  0.154000  0.098500  1.0
  C  C560  1  0.924100  0.846000  0.901500  1.0
  C  C561  1  0.128700  0.225200  0.151900  1.0
  C  C562  1  0.871300  0.774800  0.848100  1.0
  C  C563  1  0.183480  0.240600  0.138640  1.0
  C  C564  1  0.816520  0.759400  0.861360  1.0
  C  C565  1  0.218720  0.201320  0.164220  1.0
  C  C566  1  0.781280  0.798680  0.835780  1.0
  C  C567  1  0.268360  0.214120  0.158930  1.0
  C  C568  1  0.731640  0.785880  0.841070  1.0
  C  C569  1  0.282760  0.266200  0.128070  1.0
  C  C570  1  0.717240  0.733800  0.871930  1.0
  C  C571  1  0.247520  0.305480  0.102490  1.0
  C  C572  1  0.752480  0.694520  0.897510  1.0
  C  C573  1  0.197880  0.292680  0.107780  1.0
  C  C574  1  0.802120  0.707320  0.892220  1.0
  C  C575  1  0.259100  0.362900  0.075700  1.0
  C  C576  1  0.740900  0.637100  0.924300  1.0
  C  C577  1  0.305650  0.171610  0.189890  1.0
  C  C578  1  0.694350  0.828390  0.810110  1.0
  C  C579  1  0.295700  0.113840  0.199600  1.0
  C  C580  1  0.704300  0.886160  0.800400  1.0
  C  C581  1  0.295100  0.178400  0.244700  1.0
  C  C582  1  0.704900  0.821600  0.755300  1.0
  C  C583  1  0.364880  0.178500  0.157600  1.0
  C  C584  1  0.635120  0.821500  0.842400  1.0
  C  C585  1  0.338600  0.448000  0.948800  1.0
  C  C586  1  0.661400  0.552000  0.051200  1.0
  C  C587  1  0.373200  0.446640  0.891630  1.0
  C  C588  1  0.626800  0.553360  0.108370  1.0
  C  C589  1  0.429200  0.439370  0.878900  1.0
  C  C590  1  0.570800  0.560630  0.121100  1.0
  C  C591  1  0.460620  0.438390  0.827700  1.0
  C  C592  1  0.539380  0.561610  0.172300  1.0
  C  C593  1  0.436100  0.444690  0.789090  1.0
  C  C594  1  0.563900  0.555310  0.210910  1.0
  C  C595  1  0.380200  0.451960  0.801800  1.0
  C  C596  1  0.619800  0.548040  0.198200  1.0
  C  C597  1  0.348720  0.452930  0.853000  1.0
  C  C598  1  0.651280  0.547070  0.147000  1.0
  C  C599  1  0.354200  0.460400  0.762600  1.0
  C  C600  1  0.645800  0.539600  0.237400  1.0
  C  C601  1  0.333800  0.463500  0.731900  1.0
  C  C602  1  0.666200  0.536500  0.268100  1.0
  C  C603  1  0.306800  0.471100  0.694000  1.0
  C  C604  1  0.693200  0.528900  0.306000  1.0
  C  C605  1  0.335520  0.475790  0.640600  1.0
  C  C606  1  0.664480  0.524210  0.359400  1.0
  C  C607  1  0.308100  0.484970  0.603470  1.0
  C  C608  1  0.691900  0.515030  0.396530  1.0
  C  C609  1  0.252100  0.489460  0.619800  1.0
  C  C610  1  0.747900  0.510540  0.380200  1.0
  C  C611  1  0.223440  0.484780  0.673200  1.0
  C  C612  1  0.776560  0.515220  0.326800  1.0
  C  C613  1  0.250800  0.475600  0.710320  1.0
  C  C614  1  0.749200  0.524400  0.289680  1.0
  C  C615  1  0.162200  0.487300  0.688300  1.0
  C  C616  1  0.837800  0.512700  0.311700  1.0
  C  C617  1  0.053700  0.589000  0.696700  1.0
  C  C618  1  0.946300  0.411000  0.303300  1.0
  C  C619  1  0.044680  0.650160  0.688660  1.0
  C  C620  1  0.955320  0.349840  0.311340  1.0
  C  C621  1  0.051030  0.682800  0.635100  1.0
  C  C622  1  0.948970  0.317200  0.364900  1.0
  C  C623  1  0.042050  0.739260  0.621670  1.0
  C  C624  1  0.957950  0.260740  0.378330  1.0
  C  C625  1  0.026740  0.763070  0.661800  1.0
  C  C626  1  0.973260  0.236930  0.338200  1.0
  C  C627  1  0.020390  0.730400  0.715370  1.0
  C  C628  1  0.979610  0.269600  0.284630  1.0
  C  C629  1  0.029360  0.673970  0.728800  1.0
  C  C630  1  0.970640  0.326030  0.271200  1.0
  C  C631  1  0.999300  0.246800  0.241400  1.0
  C  C632  1  0.000700  0.753200  0.758600  1.0
  C  C633  1  0.049080  0.774620  0.562370  1.0
  C  C634  1  0.950920  0.225380  0.437630  1.0
  C  C635  1  0.098100  0.750500  0.525410  1.0
  C  C636  1  0.901900  0.249500  0.474590  1.0
  C  C637  1  0.057500  0.832700  0.553600  1.0
  C  C638  1  0.942500  0.167300  0.446400  1.0
  C  C639  1  0.998800  0.777600  0.546400  1.0
  C  C640  1  0.001200  0.222400  0.453600  1.0
  C  C641  1  0.946100  0.177700  0.184500  1.0
  C  C642  1  0.053900  0.822300  0.815500  1.0
  C  C643  1  0.893920  0.163530  0.189500  1.0
  C  C644  1  0.106080  0.836470  0.810500  1.0
  C  C645  1  0.860560  0.201130  0.160330  1.0
  C  C646  1  0.139440  0.798870  0.839670  1.0
  C  C647  1  0.810680  0.188420  0.166180  1.0
  C  C648  1  0.189320  0.811580  0.833820  1.0
  C  C649  1  0.794160  0.138120  0.201200  1.0
  C  C650  1  0.205840  0.861880  0.798800  1.0
  C  C651  1  0.827520  0.100520  0.230380  1.0
  C  C652  1  0.172480  0.899480  0.769620  1.0
  C  C653  1  0.877400  0.113230  0.224530  1.0
  C  C654  1  0.122600  0.886770  0.775470  1.0
  C  C655  1  0.776600  0.226100  0.135500  1.0
  C  C656  1  0.223400  0.773900  0.864500  1.0
  C  C657  1  0.749500  0.254300  0.110200  1.0
  C  C658  1  0.250500  0.745700  0.889800  1.0
  C  C659  1  0.715990  0.292670  0.079310  1.0
  C  C660  1  0.284010  0.707330  0.920690  1.0
  C  C661  1  0.725900  0.346880  0.055500  1.0
  C  C662  1  0.274100  0.653120  0.944500  1.0
  C  C663  1  0.694440  0.384450  0.024140  1.0
  C  C664  1  0.305560  0.615550  0.975860  1.0
  C  C665  1  0.653070  0.367810  0.016580  1.0
  C  C666  1  0.346930  0.632190  0.983420  1.0
  C  C667  1  0.643160  0.313600  0.040390  1.0
  C  C668  1  0.356840  0.686400  0.959610  1.0
  C  C669  1  0.674620  0.276030  0.071750  1.0
  C  C670  1  0.325380  0.723970  0.928250  1.0
  C  C671  1  0.296700  0.554000  0.000200  1.0
  C  C672  1  0.703300  0.446000  0.999800  1.0
  C  C673  1  0.962100  0.495400  0.747400  1.0
  C  C674  1  0.037900  0.504600  0.252600  1.0
  C  C675  1  0.900970  0.502280  0.764200  1.0
  C  C676  1  0.099030  0.497720  0.235800  1.0
  C  C677  1  0.875820  0.505200  0.727260  1.0
  C  C678  1  0.124180  0.494800  0.272740  1.0
  C  C679  1  0.819850  0.513890  0.740050  1.0
  C  C680  1  0.180150  0.486110  0.259950  1.0
  C  C681  1  0.789040  0.519650  0.789770  1.0
  C  C682  1  0.210960  0.480350  0.210230  1.0
  C  C683  1  0.814190  0.516720  0.826710  1.0
  C  C684  1  0.185810  0.483280  0.173290  1.0
  C  C685  1  0.870200  0.508040  0.813920  1.0
  C  C686  1  0.129800  0.491960  0.186080  1.0
  C  C687  1  0.217800  0.474700  0.123000  1.0
  C  C688  1  0.782200  0.525300  0.877000  1.0
  C  C689  1  0.794180  0.514440  0.698730  1.0
  C  C690  1  0.205820  0.485560  0.301270  1.0
  C  C691  1  0.808900  0.459300  0.689100  1.0
  C  C692  1  0.191100  0.540700  0.310900  1.0
  C  C693  1  0.814400  0.559100  0.644760  1.0
  C  C694  1  0.185600  0.440900  0.355240  1.0
  C  C695  1  0.732570  0.525500  0.719300  1.0
  C  C696  1  0.267430  0.474500  0.280700  1.0
  O  O697  1  0.556690  0.269920  0.167550  1.0
  O  O698  1  0.443310  0.730080  0.832450  1.0
  O  O699  1  0.542020  0.231050  0.258850  1.0
  O  O700  1  0.457980  0.768950  0.741150  1.0
  O  O701  1  0.572800  0.263300  0.598400  1.0
  O  O702  1  0.427200  0.736700  0.401600  1.0
  O  O703  1  0.559960  0.221150  0.547810  1.0
  O  O704  1  0.440040  0.778850  0.452190  1.0
  O  O705  1  0.480080  0.214510  0.671270  1.0
  O  O706  1  0.519920  0.785490  0.328730  1.0
  O  O707  1  0.476780  0.164160  0.625200  1.0
  O  O708  1  0.523220  0.835840  0.374800  1.0
  O  O709  1  0.227900  0.146300  0.702320  1.0
  O  O710  1  0.772100  0.853700  0.297680  1.0
  O  O711  1  0.302440  0.119750  0.643100  1.0
  O  O712  1  0.697560  0.880250  0.356900  1.0
  O  O713  1  0.160330  0.162020  0.644900  1.0
  O  O714  1  0.839670  0.837980  0.355100  1.0
  O  O715  1  0.234800  0.141460  0.581780  1.0
  O  O716  1  0.765200  0.858540  0.418220  1.0
  O  O717  1  0.455260  0.249150  0.183550  1.0
  O  O718  1  0.544740  0.750850  0.816450  1.0
  O  O719  1  0.441140  0.208790  0.273110  1.0
  O  O720  1  0.558860  0.791210  0.726890  1.0
  O  O721  1  0.600150  0.172550  0.152000  1.0
  O  O722  1  0.399850  0.827450  0.848000  1.0
  O  O723  1  0.585610  0.132570  0.243100  1.0
  O  O724  1  0.414390  0.867430  0.756900  1.0
  O  O725  1  0.209600  0.039850  0.752350  1.0
  O  O726  1  0.790400  0.960150  0.247650  1.0
  O  O727  1  0.280940  0.013330  0.690800  1.0
  O  O728  1  0.719060  0.986670  0.309200  1.0
  O  O729  1  0.148080  0.053820  0.684500  1.0
  O  O730  1  0.851920  0.946180  0.315500  1.0
  O  O731  1  0.221450  0.032010  0.621380  1.0
  O  O732  1  0.778550  0.967990  0.378620  1.0
  O  O733  1  0.634170  0.175100  0.646800  1.0
  O  O734  1  0.365830  0.824900  0.353200  1.0
  O  O735  1  0.633910  0.138600  0.587260  1.0
  O  O736  1  0.366090  0.861400  0.412740  1.0
  O  O737  1  0.500150  0.150060  0.166210  1.0
  O  O738  1  0.499850  0.849940  0.833790  1.0
  O  O739  1  0.486020  0.110100  0.254800  1.0
  O  O740  1  0.513980  0.889900  0.745200  1.0
  O  O741  1  0.544880  0.128100  0.715600  1.0
  O  O742  1  0.455120  0.871900  0.284400  1.0
  O  O743  1  0.551610  0.081430  0.660600  1.0
  O  O744  1  0.448390  0.918570  0.339400  1.0
  O  O745  1  0.528990  0.257050  0.076220  1.0
  O  O746  1  0.471010  0.742950  0.923780  1.0
  O  O747  1  0.504220  0.122850  0.348440  1.0
  O  O748  1  0.495780  0.877150  0.651560  1.0
  O  O749  1  0.547980  0.234940  0.723420  1.0
  O  O750  1  0.452020  0.765060  0.276580  1.0
  O  O751  1  0.567860  0.115160  0.535090  1.0
  O  O752  1  0.432140  0.884840  0.464910  1.0
  O  O753  1  0.105720  0.106120  0.766900  1.0
  O  O754  1  0.894280  0.893880  0.233100  1.0
  O  O755  1  0.334040  0.058710  0.566340  1.0
  O  O756  1  0.665960  0.941290  0.433660  1.0
  O  O757  1  0.301940  0.372650  0.077380  1.0
  O  O758  1  0.698060  0.627350  0.922620  1.0
  O  O759  1  0.227090  0.395130  0.051530  1.0
  O  O760  1  0.772910  0.604870  0.948470  1.0
  O  O761  1  0.114310  0.182040  0.185500  1.0
  O  O762  1  0.885690  0.817960  0.814500  1.0
  O  O763  1  0.100600  0.261430  0.121820  1.0
  O  O764  1  0.899400  0.738570  0.878180  1.0
  O  O765  1  0.076370  0.126070  0.144600  1.0
  O  O766  1  0.923630  0.873930  0.855400  1.0
  O  O767  1  0.057510  0.205130  0.084680  1.0
  O  O768  1  0.942490  0.794870  0.915320  1.0
  O  O769  1  0.075900  0.415200  0.695300  1.0
  O  O770  1  0.924100  0.584800  0.304700  1.0
  O  O771  1  0.067560  0.404930  0.780600  1.0
  O  O772  1  0.932440  0.595070  0.219400  1.0
  O  O773  1  0.141400  0.494000  0.653500  1.0
  O  O774  1  0.858600  0.506000  0.346500  1.0
  O  O775  1  0.139600  0.481560  0.738000  1.0
  O  O776  1  0.860400  0.518440  0.262000  1.0
  O  O777  1  0.360610  0.441630  0.981880  1.0
  O  O778  1  0.639390  0.558370  0.018120  1.0
  O  O779  1  0.287740  0.458950  0.953270  1.0
  O  O780  1  0.712260  0.541050  0.046730  1.0
  O  O781  1  0.327320  0.523380  0.024290  1.0
  O  O782  1  0.672680  0.476620  0.975710  1.0
  O  O783  1  0.256820  0.544470  0.992490  1.0
  O  O784  1  0.743180  0.455530  0.007510  1.0
  O  O785  1  0.975610  0.142550  0.209890  1.0
  O  O786  1  0.024390  0.857450  0.790110  1.0
  O  O787  1  0.958550  0.224470  0.151810  1.0
  O  O788  1  0.041450  0.775530  0.848190  1.0
  O  O789  1  0.015320  0.194200  0.254000  1.0
  O  O790  1  0.984680  0.805800  0.746000  1.0
  O  O791  1  0.000210  0.277030  0.193200  1.0
  O  O792  1  0.999790  0.722970  0.806800  1.0
  O  O793  1  0.056920  0.573600  0.660900  1.0
  O  O794  1  0.943080  0.426400  0.339100  1.0
  O  O795  1  0.054600  0.561460  0.745500  1.0
  O  O796  1  0.945400  0.438540  0.254500  1.0
  O  O797  1  0.987670  0.495860  0.699200  1.0
  O  O798  1  0.012330  0.504140  0.300800  1.0
  O  O799  1  0.982410  0.486740  0.785400  1.0
  O  O800  1  0.017590  0.513260  0.214600  1.0
  O  O801  1  0.268180  0.457050  0.118780  1.0
  O  O802  1  0.731820  0.542950  0.881220  1.0
  O  O803  1  0.197250  0.482160  0.087120  1.0
  O  O804  1  0.802750  0.517840  0.912880  1.0
  O  O805  1  0.066290  0.513310  0.589270  1.0
  O  O806  1  0.933710  0.486690  0.410730  1.0
  O  O807  1  0.052500  0.473790  0.851610  1.0
  O  O808  1  0.947500  0.526210  0.148390  1.0
  O  O809  1  0.066640  0.083380  0.267230  1.0
  O  O810  1  0.933360  0.916620  0.732770  1.0
  O  O811  1  0.010000  0.322180  0.069970  1.0
  O  O812  1  0.990000  0.677820  0.930030  1.0
  O  O813  1  0.390270  0.427380  0.085930  1.0
  O  O814  1  0.609730  0.572620  0.914070  1.0
  O  O815  1  0.171960  0.499160  0.980480  1.0
  O  O816  1  0.828040  0.500840  0.019520  1.0
