# generated using pymatgen
data_H32PdC32N9O22
_symmetry_space_group_name_H-M   'P 1'
_cell_length_a   17.03360000
_cell_length_b   17.03360000
_cell_length_c   17.57840000
_cell_angle_alpha   90.00000000
_cell_angle_beta   90.00000000
_cell_angle_gamma   90.00000000
_symmetry_Int_Tables_number   1
_chemical_formula_structural   H32PdC32N9O22
_chemical_formula_sum   'H128 Pd4 C128 N36 O88'
_cell_volume   5100.25900947
_cell_formula_units_Z   4
loop_
 _symmetry_equiv_pos_site_id
 _symmetry_equiv_pos_as_xyz
  1  'x, y, z'
loop_
 _atom_site_type_symbol
 _atom_site_label
 _atom_site_symmetry_multiplicity
 _atom_site_fract_x
 _atom_site_fract_y
 _atom_site_fract_z
 _atom_site_occupancy
  H  H1  1  0.293500  0.382400  0.457800  1.0
  H  H2  1  0.206500  0.117600  0.457800  1.0
  H  H3  1  0.117600  0.293500  0.457800  1.0
  H  H4  1  0.382400  0.206500  0.457800  1.0
  H  H5  1  0.706500  0.617600  0.542200  1.0
  H  H6  1  0.793500  0.882400  0.542200  1.0
  H  H7  1  0.882400  0.706500  0.542200  1.0
  H  H8  1  0.617600  0.793500  0.542200  1.0
  H  H9  1  0.339900  0.507600  0.466000  1.0
  H  H10  1  0.160100  0.992400  0.466000  1.0
  H  H11  1  0.992400  0.339900  0.466000  1.0
  H  H12  1  0.507600  0.160100  0.466000  1.0
  H  H13  1  0.660100  0.492400  0.534000  1.0
  H  H14  1  0.839900  0.007600  0.534000  1.0
  H  H15  1  0.007600  0.660100  0.534000  1.0
  H  H16  1  0.492400  0.839900  0.534000  1.0
  H  H17  1  0.367200  0.562700  0.582600  1.0
  H  H18  1  0.132800  0.937300  0.582600  1.0
  H  H19  1  0.937300  0.367200  0.582600  1.0
  H  H20  1  0.562700  0.132800  0.582600  1.0
  H  H21  1  0.632800  0.437300  0.417400  1.0
  H  H22  1  0.867200  0.062700  0.417400  1.0
  H  H23  1  0.062700  0.632800  0.417400  1.0
  H  H24  1  0.437300  0.867200  0.417400  1.0
  H  H25  1  0.289500  0.366500  0.680700  1.0
  H  H26  1  0.210500  0.133500  0.680700  1.0
  H  H27  1  0.133500  0.289500  0.680700  1.0
  H  H28  1  0.366500  0.210500  0.680700  1.0
  H  H29  1  0.710500  0.633500  0.319300  1.0
  H  H30  1  0.789500  0.866500  0.319300  1.0
  H  H31  1  0.866500  0.710500  0.319300  1.0
  H  H32  1  0.633500  0.789500  0.319300  1.0
  H  H33  1  0.366900  0.513100  0.859500  1.0
  H  H34  1  0.133100  0.986900  0.859500  1.0
  H  H35  1  0.986900  0.366900  0.859500  1.0
  H  H36  1  0.513100  0.133100  0.859500  1.0
  H  H37  1  0.633100  0.486900  0.140500  1.0
  H  H38  1  0.866900  0.013100  0.140500  1.0
  H  H39  1  0.013100  0.633100  0.140500  1.0
  H  H40  1  0.486900  0.866900  0.140500  1.0
  H  H41  1  0.304300  0.580700  0.858500  1.0
  H  H42  1  0.195700  0.919300  0.858500  1.0
  H  H43  1  0.919300  0.304300  0.858500  1.0
  H  H44  1  0.580700  0.195700  0.858500  1.0
  H  H45  1  0.695700  0.419300  0.141500  1.0
  H  H46  1  0.804300  0.080700  0.141500  1.0
  H  H47  1  0.080700  0.695700  0.141500  1.0
  H  H48  1  0.419300  0.804300  0.141500  1.0
  H  H49  1  0.279100  0.501800  0.951900  1.0
  H  H50  1  0.220900  0.998200  0.951900  1.0
  H  H51  1  0.998200  0.279100  0.951900  1.0
  H  H52  1  0.501800  0.220900  0.951900  1.0
  H  H53  1  0.720900  0.498200  0.048100  1.0
  H  H54  1  0.779100  0.001800  0.048100  1.0
  H  H55  1  0.001800  0.720900  0.048100  1.0
  H  H56  1  0.498200  0.779100  0.048100  1.0
  H  H57  1  0.280800  0.428800  0.897800  1.0
  H  H58  1  0.219200  0.071200  0.897800  1.0
  H  H59  1  0.071200  0.280800  0.897800  1.0
  H  H60  1  0.428800  0.219200  0.897800  1.0
  H  H61  1  0.719200  0.571200  0.102200  1.0
  H  H62  1  0.780800  0.928800  0.102200  1.0
  H  H63  1  0.928800  0.719200  0.102200  1.0
  H  H64  1  0.571200  0.780800  0.102200  1.0
  H  H65  1  0.115400  0.469400  0.796000  1.0
  H  H66  1  0.384600  0.030600  0.796000  1.0
  H  H67  1  0.030600  0.115400  0.796000  1.0
  H  H68  1  0.469400  0.384600  0.796000  1.0
  H  H69  1  0.884600  0.530600  0.204000  1.0
  H  H70  1  0.615400  0.969400  0.204000  1.0
  H  H71  1  0.969400  0.884600  0.204000  1.0
  H  H72  1  0.530600  0.615400  0.204000  1.0
  H  H73  1  0.142200  0.556800  0.800500  1.0
  H  H74  1  0.357800  0.943200  0.800500  1.0
  H  H75  1  0.943200  0.142200  0.800500  1.0
  H  H76  1  0.556800  0.357800  0.800500  1.0
  H  H77  1  0.857800  0.443200  0.199500  1.0
  H  H78  1  0.642200  0.056800  0.199500  1.0
  H  H79  1  0.056800  0.857800  0.199500  1.0
  H  H80  1  0.443200  0.642200  0.199500  1.0
  H  H81  1  0.191500  0.523400  0.715100  1.0
  H  H82  1  0.308500  0.976600  0.715100  1.0
  H  H83  1  0.976600  0.191500  0.715100  1.0
  H  H84  1  0.523400  0.308500  0.715100  1.0
  H  H85  1  0.808500  0.476600  0.284900  1.0
  H  H86  1  0.691500  0.023400  0.284900  1.0
  H  H87  1  0.023400  0.808500  0.284900  1.0
  H  H88  1  0.476600  0.691500  0.284900  1.0
  H  H89  1  0.200700  0.437100  0.743000  1.0
  H  H90  1  0.299300  0.062900  0.743000  1.0
  H  H91  1  0.062900  0.200700  0.743000  1.0
  H  H92  1  0.437100  0.299300  0.743000  1.0
  H  H93  1  0.799300  0.562900  0.257000  1.0
  H  H94  1  0.700700  0.937100  0.257000  1.0
  H  H95  1  0.937100  0.799300  0.257000  1.0
  H  H96  1  0.562900  0.700700  0.257000  1.0
  H  H97  1  0.196500  0.358200  0.984800  1.0
  H  H98  1  0.303500  0.141800  0.984800  1.0
  H  H99  1  0.141800  0.196500  0.984800  1.0
  H  H100  1  0.358200  0.303500  0.984800  1.0
  H  H101  1  0.803500  0.641800  0.015200  1.0
  H  H102  1  0.696500  0.858200  0.015200  1.0
  H  H103  1  0.858200  0.803500  0.015200  1.0
  H  H104  1  0.641800  0.696500  0.015200  1.0
  H  H105  1  0.189200  0.378700  0.206500  1.0
  H  H106  1  0.310800  0.121300  0.206500  1.0
  H  H107  1  0.121300  0.189200  0.206500  1.0
  H  H108  1  0.378700  0.310800  0.206500  1.0
  H  H109  1  0.810800  0.621300  0.793500  1.0
  H  H110  1  0.689200  0.878700  0.793500  1.0
  H  H111  1  0.878700  0.810800  0.793500  1.0
  H  H112  1  0.621300  0.689200  0.793500  1.0
  H  H113  1  0.126200  0.497100  0.194900  1.0
  H  H114  1  0.373800  0.002900  0.194900  1.0
  H  H115  1  0.002900  0.126200  0.194900  1.0
  H  H116  1  0.497100  0.373800  0.194900  1.0
  H  H117  1  0.873800  0.502900  0.805100  1.0
  H  H118  1  0.626200  0.997100  0.805100  1.0
  H  H119  1  0.997100  0.873800  0.805100  1.0
  H  H120  1  0.502900  0.626200  0.805100  1.0
  H  H121  1  0.101400  0.547700  0.075200  1.0
  H  H122  1  0.398600  0.952300  0.075200  1.0
  H  H123  1  0.952300  0.101400  0.075200  1.0
  H  H124  1  0.547700  0.398600  0.075200  1.0
  H  H125  1  0.898600  0.452300  0.924800  1.0
  H  H126  1  0.601400  0.047700  0.924800  1.0
  H  H127  1  0.047700  0.898600  0.924800  1.0
  H  H128  1  0.452300  0.601400  0.924800  1.0
  Pd  Pd129  1  0.250000  0.250000  0.101720  1
  Pd  Pd130  1  0.750000  0.750000  0.898280  1
  Pd  Pd131  1  0.250000  0.250000  0.564460  1
  Pd  Pd132  1  0.750000  0.750000  0.435540  1
  C  C133  1  0.302700  0.404500  0.505300  1.0
  C  C134  1  0.197300  0.095500  0.505300  1.0
  C  C135  1  0.095500  0.302700  0.505300  1.0
  C  C136  1  0.404500  0.197300  0.505300  1.0
  C  C137  1  0.697300  0.595500  0.494700  1.0
  C  C138  1  0.802700  0.904500  0.494700  1.0
  C  C139  1  0.904500  0.697300  0.494700  1.0
  C  C140  1  0.595500  0.802700  0.494700  1.0
  C  C141  1  0.330700  0.479100  0.510200  1.0
  C  C142  1  0.169300  0.020900  0.510200  1.0
  C  C143  1  0.020900  0.330700  0.510200  1.0
  C  C144  1  0.479100  0.169300  0.510200  1.0
  C  C145  1  0.669300  0.520900  0.489800  1.0
  C  C146  1  0.830700  0.979100  0.489800  1.0
  C  C147  1  0.979100  0.669300  0.489800  1.0
  C  C148  1  0.520900  0.830700  0.489800  1.0
  C  C149  1  0.345500  0.512700  0.579500  1.0
  C  C150  1  0.154500  0.987300  0.579500  1.0
  C  C151  1  0.987300  0.345500  0.579500  1.0
  C  C152  1  0.512700  0.154500  0.579500  1.0
  C  C153  1  0.654500  0.487300  0.420500  1.0
  C  C154  1  0.845500  0.012700  0.420500  1.0
  C  C155  1  0.012700  0.654500  0.420500  1.0
  C  C156  1  0.487300  0.845500  0.420500  1.0
  C  C157  1  0.327800  0.471500  0.644200  1.0
  C  C158  1  0.172200  0.028500  0.644200  1.0
  C  C159  1  0.028500  0.327800  0.644200  1.0
  C  C160  1  0.471500  0.172200  0.644200  1.0
  C  C161  1  0.672200  0.528500  0.355800  1.0
  C  C162  1  0.827800  0.971500  0.355800  1.0
  C  C163  1  0.971500  0.672200  0.355800  1.0
  C  C164  1  0.528500  0.827800  0.355800  1.0
  C  C165  1  0.300100  0.395500  0.637100  1.0
  C  C166  1  0.199900  0.104500  0.637100  1.0
  C  C167  1  0.104500  0.300100  0.637100  1.0
  C  C168  1  0.395500  0.199900  0.637100  1.0
  C  C169  1  0.699900  0.604500  0.362900  1.0
  C  C170  1  0.800100  0.895500  0.362900  1.0
  C  C171  1  0.895500  0.699900  0.362900  1.0
  C  C172  1  0.604500  0.800100  0.362900  1.0
  C  C173  1  0.346900  0.500700  0.723100  1.0
  C  C174  1  0.153100  0.999300  0.723100  1.0
  C  C175  1  0.999300  0.346900  0.723100  1.0
  C  C176  1  0.500700  0.153100  0.723100  1.0
  C  C177  1  0.653100  0.499300  0.276900  1.0
  C  C178  1  0.846900  0.000700  0.276900  1.0
  C  C179  1  0.000700  0.653100  0.276900  1.0
  C  C180  1  0.499300  0.846900  0.276900  1.0
  C  C181  1  0.311900  0.524800  0.850500  1.0
  C  C182  1  0.188100  0.975200  0.850500  1.0
  C  C183  1  0.975200  0.311900  0.850500  1.0
  C  C184  1  0.524800  0.188100  0.850500  1.0
  C  C185  1  0.688100  0.475200  0.149500  1.0
  C  C186  1  0.811900  0.024800  0.149500  1.0
  C  C187  1  0.024800  0.688100  0.149500  1.0
  C  C188  1  0.475200  0.811900  0.149500  1.0
  C  C189  1  0.266900  0.483900  0.900900  1.0
  C  C190  1  0.233100  0.016100  0.900900  1.0
  C  C191  1  0.016100  0.266900  0.900900  1.0
  C  C192  1  0.483900  0.233100  0.900900  1.0
  C  C193  1  0.733100  0.516100  0.099100  1.0
  C  C194  1  0.766900  0.983900  0.099100  1.0
  C  C195  1  0.983900  0.733100  0.099100  1.0
  C  C196  1  0.516100  0.766900  0.099100  1.0
  C  C197  1  0.160100  0.503000  0.806300  1.0
  C  C198  1  0.339900  0.997000  0.806300  1.0
  C  C199  1  0.997000  0.160100  0.806300  1.0
  C  C200  1  0.503000  0.339900  0.806300  1.0
  C  C201  1  0.839900  0.497000  0.193700  1.0
  C  C202  1  0.660100  0.003000  0.193700  1.0
  C  C203  1  0.003000  0.839900  0.193700  1.0
  C  C204  1  0.497000  0.660100  0.193700  1.0
  C  C205  1  0.206500  0.491500  0.758400  1.0
  C  C206  1  0.293500  0.008500  0.758400  1.0
  C  C207  1  0.008500  0.206500  0.758400  1.0
  C  C208  1  0.491500  0.293500  0.758400  1.0
  C  C209  1  0.793500  0.508500  0.241600  1.0
  C  C210  1  0.706500  0.991500  0.241600  1.0
  C  C211  1  0.991500  0.793500  0.241600  1.0
  C  C212  1  0.508500  0.706500  0.241600  1.0
  C  C213  1  0.126100  0.483900  0.937900  1.0
  C  C214  1  0.373900  0.016100  0.937900  1.0
  C  C215  1  0.016100  0.126100  0.937900  1.0
  C  C216  1  0.483900  0.373900  0.937900  1.0
  C  C217  1  0.873900  0.516100  0.062100  1.0
  C  C218  1  0.626100  0.983900  0.062100  1.0
  C  C219  1  0.983900  0.873900  0.062100  1.0
  C  C220  1  0.516100  0.626100  0.062100  1.0
  C  C221  1  0.147200  0.457600  0.017000  1.0
  C  C222  1  0.352800  0.042400  0.017000  1.0
  C  C223  1  0.042400  0.147200  0.017000  1.0
  C  C224  1  0.457600  0.352800  0.017000  1.0
  C  C225  1  0.852800  0.542400  0.983000  1.0
  C  C226  1  0.647200  0.957600  0.983000  1.0
  C  C227  1  0.957600  0.852800  0.983000  1.0
  C  C228  1  0.542400  0.647200  0.983000  1.0
  C  C229  1  0.182200  0.387000  0.027600  1.0
  C  C230  1  0.317800  0.113000  0.027600  1.0
  C  C231  1  0.113000  0.182200  0.027600  1.0
  C  C232  1  0.387000  0.317800  0.027600  1.0
  C  C233  1  0.817800  0.613000  0.972400  1.0
  C  C234  1  0.682200  0.887000  0.972400  1.0
  C  C235  1  0.887000  0.817800  0.972400  1.0
  C  C236  1  0.613000  0.682200  0.972400  1.0
  C  C237  1  0.177700  0.398200  0.158300  1.0
  C  C238  1  0.322300  0.101800  0.158300  1.0
  C  C239  1  0.101800  0.177700  0.158300  1.0
  C  C240  1  0.398200  0.322300  0.158300  1.0
  C  C241  1  0.822300  0.601800  0.841700  1.0
  C  C242  1  0.677700  0.898200  0.841700  1.0
  C  C243  1  0.898200  0.822300  0.841700  1.0
  C  C244  1  0.601800  0.677700  0.841700  1.0
  C  C245  1  0.140900  0.469300  0.151700  1.0
  C  C246  1  0.359100  0.030700  0.151700  1.0
  C  C247  1  0.030700  0.140900  0.151700  1.0
  C  C248  1  0.469300  0.359100  0.151700  1.0
  C  C249  1  0.859100  0.530700  0.848300  1.0
  C  C250  1  0.640900  0.969300  0.848300  1.0
  C  C251  1  0.969300  0.859100  0.848300  1.0
  C  C252  1  0.530700  0.640900  0.848300  1.0
  C  C253  1  0.125900  0.499200  0.080400  1.0
  C  C254  1  0.374100  0.000800  0.080400  1.0
  C  C255  1  0.000800  0.125900  0.080400  1.0
  C  C256  1  0.499200  0.374100  0.080400  1.0
  C  C257  1  0.874100  0.500800  0.919600  1.0
  C  C258  1  0.625900  0.999200  0.919600  1.0
  C  C259  1  0.999200  0.874100  0.919600  1.0
  C  C260  1  0.500800  0.625900  0.919600  1.0
  N  N261  1  0.250000  0.250000  0.334300  1
  N  N262  1  0.750000  0.750000  0.665700  1
  N  N263  1  0.250000  0.250000  0.830300  1
  N  N264  1  0.750000  0.750000  0.169700  1
  N  N265  1  0.288200  0.362500  0.568300  1.0
  N  N266  1  0.211800  0.137500  0.568300  1.0
  N  N267  1  0.137500  0.288200  0.568300  1.0
  N  N268  1  0.362500  0.211800  0.568300  1.0
  N  N269  1  0.711800  0.637500  0.431700  1.0
  N  N270  1  0.788200  0.862500  0.431700  1.0
  N  N271  1  0.862500  0.711800  0.431700  1.0
  N  N272  1  0.637500  0.788200  0.431700  1.0
  N  N273  1  0.197600  0.355900  0.097000  1.0
  N  N274  1  0.302400  0.144100  0.097000  1.0
  N  N275  1  0.144100  0.197600  0.097000  1.0
  N  N276  1  0.355900  0.302400  0.097000  1.0
  N  N277  1  0.802400  0.644100  0.903000  1.0
  N  N278  1  0.697600  0.855900  0.903000  1.0
  N  N279  1  0.855900  0.802400  0.903000  1.0
  N  N280  1  0.644100  0.697600  0.903000  1.0
  N  N281  1  0.181700  0.491900  0.888200  1.0
  N  N282  1  0.318300  0.008100  0.888200  1.0
  N  N283  1  0.008100  0.181700  0.888200  1.0
  N  N284  1  0.491900  0.318300  0.888200  1.0
  N  N285  1  0.818300  0.508100  0.111800  1.0
  N  N286  1  0.681700  0.991900  0.111800  1.0
  N  N287  1  0.991900  0.818300  0.111800  1.0
  N  N288  1  0.508100  0.681700  0.111800  1.0
  N  N289  1  0.292000  0.505200  0.771900  1.0
  N  N290  1  0.208000  0.994800  0.771900  1.0
  N  N291  1  0.994800  0.292000  0.771900  1.0
  N  N292  1  0.505200  0.208000  0.771900  1.0
  N  N293  1  0.708000  0.494800  0.228100  1.0
  N  N294  1  0.792000  0.005200  0.228100  1.0
  N  N295  1  0.005200  0.708000  0.228100  1.0
  N  N296  1  0.494800  0.792000  0.228100  1.0
  O  O297  1  0.250000  0.250000  0.394500  1
  O  O298  1  0.750000  0.750000  0.605500  1
  O  O299  1  0.250000  0.250000  0.273800  1
  O  O300  1  0.750000  0.750000  0.726200  1
  O  O301  1  0.543300  0.498500  0.651100  1
  O  O302  1  0.956700  0.001500  0.651100  1
  O  O303  1  0.001500  0.543300  0.651100  1
  O  O304  1  0.498500  0.956700  0.651100  1
  O  O305  1  0.456700  0.501500  0.348900  1
  O  O306  1  0.043300  0.998500  0.348900  1
  O  O307  1  0.998500  0.456700  0.348900  1
  O  O308  1  0.501500  0.043300  0.348900  1
  O  O309  1  0.133000  0.521600  0.566500  1
  O  O310  1  0.367000  0.978400  0.566500  1
  O  O311  1  0.978400  0.133000  0.566500  1
  O  O312  1  0.521600  0.367000  0.566500  1
  O  O313  1  0.867000  0.478400  0.433500  1
  O  O314  1  0.633000  0.021600  0.433500  1
  O  O315  1  0.021600  0.867000  0.433500  1
  O  O316  1  0.478400  0.633000  0.433500  1
  O  O317  1  0.218000  0.590000  0.321000  1
  O  O318  1  0.282000  0.910000  0.321000  1
  O  O319  1  0.910000  0.218000  0.321000  1
  O  O320  1  0.590000  0.282000  0.321000  1
  O  O321  1  0.782000  0.410000  0.679000  1
  O  O322  1  0.718000  0.090000  0.679000  1
  O  O323  1  0.090000  0.782000  0.679000  1
  O  O324  1  0.410000  0.718000  0.679000  1
  O  O325  1  0.324500  0.488300  0.264300  1
  O  O326  1  0.175500  0.011700  0.264300  1
  O  O327  1  0.011700  0.324500  0.264300  1
  O  O328  1  0.488300  0.175500  0.264300  1
  O  O329  1  0.675500  0.511700  0.735700  1
  O  O330  1  0.824500  0.988300  0.735700  1
  O  O331  1  0.988300  0.675500  0.735700  1
  O  O332  1  0.511700  0.824500  0.735700  1
  O  O333  1  0.192500  0.652000  0.577000  1
  O  O334  1  0.307500  0.848000  0.577000  1
  O  O335  1  0.848000  0.192500  0.577000  1
  O  O336  1  0.652000  0.307500  0.577000  1
  O  O337  1  0.807500  0.348000  0.423000  1
  O  O338  1  0.692500  0.152000  0.423000  1
  O  O339  1  0.152000  0.807500  0.423000  1
  O  O340  1  0.348000  0.692500  0.423000  1
  O  O341  1  0.525800  0.640400  0.583500  1
  O  O342  1  0.974200  0.859600  0.583500  1
  O  O343  1  0.859600  0.525800  0.583500  1
  O  O344  1  0.640400  0.974200  0.583500  1
  O  O345  1  0.474200  0.359600  0.416500  1
  O  O346  1  0.025800  0.140400  0.416500  1
  O  O347  1  0.140400  0.474200  0.416500  1
  O  O348  1  0.359600  0.025800  0.416500  1
  O  O349  1  0.149800  0.720100  0.946000  1
  O  O350  1  0.350200  0.779900  0.946000  1
  O  O351  1  0.779900  0.149800  0.946000  1
  O  O352  1  0.720100  0.350200  0.946000  1
  O  O353  1  0.850200  0.279900  0.054000  1
  O  O354  1  0.649800  0.220100  0.054000  1
  O  O355  1  0.220100  0.850200  0.054000  1
  O  O356  1  0.279900  0.649800  0.054000  1
  O  O357  1  0.012600  0.659900  0.902800  1
  O  O358  1  0.487400  0.840100  0.902800  1
  O  O359  1  0.840100  0.012600  0.902800  1
  O  O360  1  0.659900  0.487400  0.902800  1
  O  O361  1  0.987400  0.340100  0.097200  1
  O  O362  1  0.512600  0.159900  0.097200  1
  O  O363  1  0.159900  0.987400  0.097200  1
  O  O364  1  0.340100  0.512600  0.097200  1
  O  O365  1  0.250000  0.250000  0.894900  1
  O  O366  1  0.750000  0.750000  0.105100  1
  O  O367  1  0.250000  0.250000  0.765300  1
  O  O368  1  0.750000  0.750000  0.234700  1
  O  O369  1  0.414400  0.517100  0.738000  1.0
  O  O370  1  0.085600  0.982900  0.738000  1.0
  O  O371  1  0.982900  0.414400  0.738000  1.0
  O  O372  1  0.517100  0.085600  0.738000  1.0
  O  O373  1  0.585600  0.482900  0.262000  1.0
  O  O374  1  0.914400  0.017100  0.262000  1.0
  O  O375  1  0.017100  0.585600  0.262000  1.0
  O  O376  1  0.482900  0.914400  0.262000  1.0
  O  O377  1  0.058100  0.493200  0.922300  1.0
  O  O378  1  0.441900  0.006800  0.922300  1.0
  O  O379  1  0.006800  0.058100  0.922300  1.0
  O  O380  1  0.493200  0.441900  0.922300  1.0
  O  O381  1  0.941900  0.506800  0.077700  1.0
  O  O382  1  0.558100  0.993200  0.077700  1.0
  O  O383  1  0.993200  0.941900  0.077700  1.0
  O  O384  1  0.506800  0.558100  0.077700  1.0
