# generated using pymatgen
data_P2H83PtC106NCl5
_symmetry_space_group_name_H-M   'P 1'
_cell_length_a   12.89400000
_cell_length_b   14.45950000
_cell_length_c   19.99900000
_cell_angle_alpha   104.93810000
_cell_angle_beta   97.90820000
_cell_angle_gamma   99.87940000
_symmetry_Int_Tables_number   1
_chemical_formula_structural   P2H83PtC106NCl5
_chemical_formula_sum   'P4 H166 Pt2 C212 N2 Cl10'
_cell_volume   3483.85235008
_cell_formula_units_Z   2
loop_
 _symmetry_equiv_pos_site_id
 _symmetry_equiv_pos_as_xyz
  1  'x, y, z'
loop_
 _atom_site_type_symbol
 _atom_site_label
 _atom_site_symmetry_multiplicity
 _atom_site_fract_x
 _atom_site_fract_y
 _atom_site_fract_z
 _atom_site_occupancy
  P  P1  1  0.718320  0.827730  0.877600  1.0
  P  P2  1  0.281680  0.172270  0.122400  1.0
  P  P3  1  0.801100  0.863640  0.667680  1.0
  P  P4  1  0.198900  0.136360  0.332320  1.0
  H  H5  1  0.843800  0.191400  0.787400  1
  H  H6  1  0.156200  0.808600  0.212600  1
  H  H7  1  0.812500  0.172900  0.857000  1
  H  H8  1  0.187500  0.827100  0.143000  1
  H  H9  1  0.791800  0.320300  0.895200  1
  H  H10  1  0.208200  0.679700  0.104800  1
  H  H11  1  0.805700  0.332300  0.818800  1
  H  H12  1  0.194300  0.667700  0.181200  1
  H  H13  1  0.663900  0.466900  0.801700  1
  H  H14  1  0.336100  0.533100  0.198300  1
  H  H15  1  0.770000  0.485500  0.768800  1
  H  H16  1  0.230000  0.514500  0.231200  1
  H  H17  1  0.664200  0.518100  0.671300  1
  H  H18  1  0.335800  0.481900  0.328700  1
  H  H19  1  0.665900  0.596600  0.744500  1
  H  H20  1  0.334100  0.403400  0.255500  1
  H  H21  1  0.999200  0.100800  0.247200  1
  H  H22  1  0.000800  0.899200  0.752800  1
  H  H23  1  0.823800  0.102700  0.265000  1
  H  H24  1  0.176200  0.897300  0.735000  1
  H  H25  1  0.789700  0.146400  0.379700  1
  H  H26  1  0.210300  0.853600  0.620300  1
  H  H27  1  0.930800  0.188100  0.476500  1
  H  H28  1  0.069200  0.811900  0.523500  1
  H  H29  1  0.106100  0.186200  0.458600  1
  H  H30  1  0.893900  0.813800  0.541400  1
  H  H31  1  0.026700  0.635200  0.285400  1
  H  H32  1  0.973300  0.364800  0.714600  1
  H  H33  1  0.886800  0.717700  0.276200  1
  H  H34  1  0.113200  0.282300  0.723800  1
  H  H35  1  0.724700  0.661800  0.308000  1
  H  H36  1  0.275300  0.338200  0.692000  1
  H  H37  1  0.702600  0.523400  0.349000  1
  H  H38  1  0.297400  0.476600  0.651000  1
  H  H39  1  0.842600  0.440900  0.358200  1
  H  H40  1  0.157400  0.559100  0.641800  1
  H  H41  1  0.800500  0.598100  0.624000  1
  H  H42  1  0.199500  0.401900  0.376000  1
  H  H43  1  0.688200  0.546300  0.512900  1
  H  H44  1  0.311800  0.453700  0.487100  1
  H  H45  1  0.705200  0.407000  0.428100  1
  H  H46  1  0.294800  0.593000  0.571900  1
  H  H47  1  0.834400  0.319500  0.454200  1
  H  H48  1  0.165600  0.680500  0.545800  1
  H  H49  1  0.946700  0.371300  0.565300  1
  H  H50  1  0.053300  0.628700  0.434700  1
  H  H51  1  0.267000  0.048100  0.751900  1
  H  H52  1  0.733000  0.951900  0.248100  1
  H  H53  1  0.154300  0.148800  0.797800  1
  H  H54  1  0.845700  0.851200  0.202200  1
  H  H55  1  0.225100  0.314400  0.857800  1
  H  H56  1  0.774900  0.685600  0.142200  1
  H  H57  1  0.408600  0.379400  0.872000  1
  H  H58  1  0.591400  0.620600  0.128000  1
  H  H59  1  0.521300  0.278700  0.826200  1
  H  H60  1  0.478700  0.721300  0.173800  1
  H  H61  1  0.252200  0.511900  0.838700  1.0
  H  H62  1  0.747800  0.488100  0.161300  1.0
  H  H63  1  0.203900  0.760700  0.964200  1.0
  H  H64  1  0.796100  0.239300  0.035800  1.0
  H  H65  1  0.455000  0.645500  0.015500  1.0
  H  H66  1  0.545000  0.354500  0.984500  1.0
  H  H67  1  0.984400  0.411500  0.764000  1.0
  H  H68  1  0.015600  0.588500  0.236000  1.0
  H  H69  1  0.106400  0.309700  0.769100  1.0
  H  H70  1  0.893600  0.690300  0.230900  1.0
  H  H71  1  0.224700  0.294300  0.690000  1.0
  H  H72  1  0.775300  0.705700  0.310000  1.0
  H  H73  1  0.221000  0.380600  0.605800  1.0
  H  H74  1  0.779000  0.619400  0.394200  1.0
  H  H75  1  0.099000  0.482300  0.600700  1.0
  H  H76  1  0.901000  0.517700  0.399300  1.0
  H  H77  1  0.895700  0.648000  0.608200  1.0
  H  H78  1  0.104300  0.352000  0.391800  1.0
  H  H79  1  0.777600  0.612300  0.500500  1.0
  H  H80  1  0.222400  0.387700  0.499500  1.0
  H  H81  1  0.696100  0.449500  0.438400  1.0
  H  H82  1  0.303900  0.550500  0.561600  1.0
  H  H83  1  0.732700  0.322300  0.484000  1.0
  H  H84  1  0.267300  0.677700  0.516000  1.0
  H  H85  1  0.850800  0.358000  0.591600  1.0
  H  H86  1  0.149200  0.642000  0.408400  1.0
  H  H87  1  0.712500  0.933100  0.211200  1.0
  H  H88  1  0.287500  0.066900  0.788800  1.0
  H  H89  1  0.802100  0.813700  0.159600  1.0
  H  H90  1  0.197900  0.186300  0.840400  1.0
  H  H91  1  0.720300  0.647400  0.130900  1.0
  H  H92  1  0.279700  0.352600  0.869100  1.0
  H  H93  1  0.548900  0.600600  0.153800  1.0
  H  H94  1  0.451100  0.399400  0.846200  1.0
  H  H95  1  0.459300  0.720000  0.205400  1.0
  H  H96  1  0.540700  0.280000  0.794600  1.0
  H  H97  1  0.540600  0.111600  0.282300  1.0
  H  H98  1  0.459400  0.888400  0.717700  1.0
  H  H99  1  0.584100  0.215500  0.397300  1.0
  H  H100  1  0.415900  0.784500  0.602700  1.0
  H  H101  1  0.625200  0.156600  0.491500  1.0
  H  H102  1  0.374800  0.843400  0.508500  1.0
  H  H103  1  0.636400  0.994500  0.472100  1.0
  H  H104  1  0.363600  0.005500  0.527900  1.0
  H  H105  1  0.592100  0.884900  0.357600  1.0
  H  H106  1  0.407900  0.115100  0.642400  1.0
  H  H107  1  0.890900  0.731400  0.894400  1.0
  H  H108  1  0.109100  0.268600  0.105600  1.0
  H  H109  1  0.921400  0.602900  0.938600  1.0
  H  H110  1  0.078600  0.397100  0.061400  1.0
  H  H111  1  0.784800  0.515100  0.977500  1.0
  H  H112  1  0.215200  0.484900  0.022500  1.0
  H  H113  1  0.617000  0.552700  0.969600  1.0
  H  H114  1  0.383000  0.447300  0.030400  1.0
  H  H115  1  0.583200  0.680200  0.923800  1.0
  H  H116  1  0.416800  0.319800  0.076200  1.0
  H  H117  1  0.862800  0.013500  0.901300  1.0
  H  H118  1  0.137200  0.986500  0.098700  1.0
  H  H119  1  0.956600  0.140200  0.001900  1.0
  H  H120  1  0.043400  0.859800  0.998100  1.0
  H  H121  1  0.941400  0.129300  0.114000  1.0
  H  H122  1  0.058600  0.870700  0.886000  1.0
  H  H123  1  0.828100  0.993300  0.127700  1.0
  H  H124  1  0.171900  0.006700  0.872300  1.0
  H  H125  1  0.734300  0.865800  0.028500  1.0
  H  H126  1  0.265700  0.134200  0.971500  1.0
  H  H127  1  0.527100  0.700300  0.791900  1.0
  H  H128  1  0.472900  0.299700  0.208100  1.0
  H  H129  1  0.345200  0.704000  0.774800  1.0
  H  H130  1  0.654800  0.296000  0.225200  1.0
  H  H131  1  0.284000  0.831300  0.841700  1.0
  H  H132  1  0.716000  0.168700  0.158300  1.0
  H  H133  1  0.407000  0.961800  0.925200  1.0
  H  H134  1  0.593000  0.038200  0.074800  1.0
  H  H135  1  0.589200  0.958700  0.944300  1.0
  H  H136  1  0.410800  0.041300  0.055700  1.0
  H  H137  1  0.639200  0.695900  0.654400  1.0
  H  H138  1  0.360800  0.304100  0.345600  1.0
  H  H139  1  0.502700  0.590100  0.564700  1.0
  H  H140  1  0.497300  0.409900  0.435300  1.0
  H  H141  1  0.477900  0.612500  0.453900  1.0
  H  H142  1  0.522100  0.387500  0.546100  1.0
  H  H143  1  0.591200  0.740000  0.430600  1.0
  H  H144  1  0.408800  0.260000  0.569400  1.0
  H  H145  1  0.728500  0.844900  0.519100  1.0
  H  H146  1  0.271500  0.155100  0.480900  1.0
  H  H147  1  0.014500  0.909500  0.748400  1.0
  H  H148  1  0.985500  0.090500  0.251600  1.0
  H  H149  1  0.179600  0.870100  0.732000  1.0
  H  H150  1  0.820400  0.129900  0.268000  1.0
  H  H151  1  0.193900  0.763900  0.625100  1.0
  H  H152  1  0.806100  0.236100  0.374900  1.0
  H  H153  1  0.043200  0.697100  0.534600  1.0
  H  H154  1  0.956800  0.302900  0.465400  1.0
  H  H155  1  0.878100  0.736600  0.550900  1.0
  H  H156  1  0.121900  0.263400  0.449100  1.0
  H  H157  1  0.636800  0.965000  0.636800  1.0
  H  H158  1  0.363200  0.035000  0.363200  1.0
  H  H159  1  0.635100  0.119400  0.620100  1.0
  H  H160  1  0.364900  0.880600  0.379900  1.0
  H  H161  1  0.792300  0.226200  0.625400  1.0
  H  H162  1  0.207700  0.773800  0.374600  1.0
  H  H163  1  0.956300  0.182200  0.648300  1.0
  H  H164  1  0.043700  0.817800  0.351700  1.0
  H  H165  1  0.962600  0.030700  0.666500  1.0
  H  H166  1  0.037400  0.969300  0.333500  1.0
  H  H167  1  0.965500  0.087800  0.531900  1.0
  H  H168  1  0.034500  0.912200  0.468100  1.0
  H  H169  1  0.037100  0.079400  0.472200  1.0
  H  H170  1  0.962900  0.920600  0.527800  1.0
  Pt  Pt171  1  0.768544  0.843545  0.773985  1.0
  Pt  Pt172  1  0.231456  0.156455  0.226015  1.0
  C  C173  1  0.865900  0.213600  0.839400  1
  C  C174  1  0.134100  0.786400  0.160600  1
  C  C175  1  0.839900  0.316100  0.860500  1
  C  C176  1  0.160100  0.683900  0.139500  1
  C  C177  1  0.691000  0.463100  0.757300  1
  C  C178  1  0.309000  0.536900  0.242700  1
  C  C179  1  0.640300  0.526800  0.717100  1
  C  C180  1  0.359700  0.473200  0.282900  1
  C  C181  1  0.069100  0.143300  0.351200  1
  C  C182  1  0.930900  0.856700  0.648800  1
  C  C183  1  0.985300  0.118500  0.293700  1
  C  C184  1  0.014700  0.881500  0.706300  1
  C  C185  1  0.881100  0.119700  0.304300  1
  C  C186  1  0.118900  0.880300  0.695700  1
  C  C187  1  0.860900  0.145600  0.372400  1
  C  C188  1  0.139100  0.854400  0.627600  1
  C  C189  1  0.944700  0.170400  0.429900  1
  C  C190  1  0.055300  0.829600  0.570100  1
  C  C191  1  0.048800  0.169300  0.419300  1
  C  C192  1  0.951200  0.830700  0.580700  1
  C  C193  1  0.947800  0.530300  0.322700  1
  C  C194  1  0.052200  0.469700  0.677300  1
  C  C195  1  0.960900  0.612500  0.298300  1
  C  C196  1  0.039100  0.387500  0.701700  1
  C  C197  1  0.877800  0.661500  0.292800  1
  C  C198  1  0.122200  0.338500  0.707200  1
  C  C199  1  0.781500  0.628300  0.311700  1
  C  C200  1  0.218500  0.371700  0.688300  1
  C  C201  1  0.768400  0.546100  0.336100  1
  C  C202  1  0.231600  0.453900  0.663900  1
  C  C203  1  0.851500  0.497100  0.341500  1
  C  C204  1  0.148500  0.502900  0.658500  1
  C  C205  1  0.884200  0.489500  0.605100  1
  C  C206  1  0.115800  0.510500  0.394900  1
  C  C207  1  0.807400  0.541500  0.589500  1
  C  C208  1  0.192600  0.458500  0.410500  1
  C  C209  1  0.740700  0.510800  0.523600  1
  C  C210  1  0.259300  0.489200  0.476400  1
  C  C211  1  0.750800  0.428000  0.473100  1
  C  C212  1  0.249200  0.572000  0.526900  1
  C  C213  1  0.827500  0.376100  0.488700  1
  C  C214  1  0.172500  0.623900  0.511300  1
  C  C215  1  0.894300  0.406800  0.554600  1
  C  C216  1  0.105700  0.593200  0.445400  1
  C  C217  1  0.404800  0.154000  0.784700  1
  C  C218  1  0.595200  0.846000  0.215300  1
  C  C219  1  0.295800  0.115400  0.776300  1
  C  C220  1  0.704200  0.884600  0.223700  1
  C  C221  1  0.228800  0.175200  0.803500  1
  C  C222  1  0.771200  0.824800  0.196500  1
  C  C223  1  0.270900  0.273500  0.839200  1
  C  C224  1  0.729100  0.726500  0.160800  1
  C  C225  1  0.379900  0.312100  0.847600  1
  C  C226  1  0.620100  0.687900  0.152400  1
  C  C227  1  0.446800  0.252300  0.820400  1
  C  C228  1  0.553200  0.747700  0.179600  1
  C  C229  1  0.274600  0.564800  0.880800  1.0
  C  C230  1  0.725400  0.435200  0.119200  1.0
  C  C231  1  0.211700  0.634700  0.893000  1.0
  C  C232  1  0.788300  0.365300  0.107000  1.0
  C  C233  1  0.244100  0.711200  0.954100  1.0
  C  C234  1  0.755900  0.288800  0.045900  1.0
  C  C235  1  0.335000  0.715200  0.000500  1.0
  C  C236  1  0.665000  0.284800  0.999500  1.0
  C  C237  1  0.392000  0.642300  0.983400  1.0
  C  C238  1  0.608000  0.357700  0.016600  1.0
  C  C239  1  0.119200  0.627300  0.841400  1.0
  C  C240  1  0.880800  0.372700  0.158600  1.0
  C  C241  1  0.046500  0.616900  0.794300  1.0
  C  C242  1  0.953500  0.383100  0.205700  1.0
  C  C243  1  0.963100  0.600000  0.733800  1.0
  C  C244  1  0.036900  0.400000  0.266200  1.0
  C  C245  1  0.959900  0.524800  0.676000  1.0
  C  C246  1  0.040100  0.475200  0.324000  1.0
  C  C247  1  0.893000  0.667500  0.742600  1.0
  C  C248  1  0.107000  0.332500  0.257400  1.0
  C  C249  1  0.844300  0.732400  0.757200  1.0
  C  C250  1  0.155700  0.267600  0.242800  1.0
  C  C251  1  0.370800  0.792100  0.066100  1.0
  C  C252  1  0.629200  0.207900  0.933900  1.0
  C  C253  1  0.401500  0.851100  0.123500  1.0
  C  C254  1  0.598500  0.148900  0.876500  1.0
  C  C255  1  0.432900  0.919600  0.192000  1.0
  C  C256  1  0.567100  0.080400  0.808000  1.0
  C  C257  1  0.521600  0.916200  0.236600  1.0
  C  C258  1  0.478400  0.083800  0.763400  1.0
  C  C259  1  0.365500  0.988100  0.206800  1.0
  C  C260  1  0.634500  0.011900  0.793200  1.0
  C  C261  1  0.690900  0.952300  0.786400  1.0
  C  C262  1  0.309100  0.047700  0.213600  1.0
  C  C263  1  0.030200  0.456500  0.681900  1.0
  C  C264  1  0.969800  0.543500  0.318100  1.0
  C  C265  1  0.032400  0.405200  0.731900  1.0
  C  C266  1  0.967600  0.594800  0.268100  1.0
  C  C267  1  0.104900  0.344800  0.734900  1.0
  C  C268  1  0.895100  0.655200  0.265100  1.0
  C  C269  1  0.175200  0.335600  0.688000  1.0
  C  C270  1  0.824800  0.664400  0.312000  1.0
  C  C271  1  0.173000  0.386900  0.638000  1.0
  C  C272  1  0.827000  0.613100  0.362000  1.0
  C  C273  1  0.100500  0.447300  0.634900  1.0
  C  C274  1  0.899500  0.552700  0.365100  1.0
  C  C275  1  0.884400  0.506300  0.610000  1.0
  C  C276  1  0.115600  0.493700  0.390000  1.0
  C  C277  1  0.862600  0.581900  0.583000  1.0
  C  C278  1  0.137400  0.418100  0.417000  1.0
  C  C279  1  0.792500  0.560700  0.519000  1.0
  C  C280  1  0.207500  0.439300  0.481000  1.0
  C  C281  1  0.744100  0.464000  0.482100  1.0
  C  C282  1  0.255900  0.536000  0.517900  1.0
  C  C283  1  0.765800  0.388400  0.509200  1.0
  C  C284  1  0.234200  0.611600  0.490800  1.0
  C  C285  1  0.836000  0.409600  0.573100  1.0
  C  C286  1  0.164000  0.590400  0.426900  1.0
  C  C287  1  0.577500  0.837800  0.213100  1.0
  C  C288  1  0.422500  0.162200  0.786900  1.0
  C  C289  1  0.679300  0.865600  0.199500  1.0
  C  C290  1  0.320700  0.134400  0.800500  1.0
  C  C291  1  0.732500  0.794700  0.168900  1.0
  C  C292  1  0.267500  0.205300  0.831100  1.0
  C  C293  1  0.683900  0.695900  0.151900  1.0
  C  C294  1  0.316100  0.304100  0.848100  1.0
  C  C295  1  0.582100  0.668100  0.165500  1.0
  C  C296  1  0.417900  0.331900  0.834500  1.0
  C  C297  1  0.528900  0.739000  0.196100  1.0
  C  C298  1  0.471100  0.261000  0.803900  1.0
  C  C299  1  0.557700  0.986300  0.307800  1.0
  C  C300  1  0.442300  0.013700  0.692200  1.0
  C  C301  1  0.558200  0.086000  0.320600  1.0
  C  C302  1  0.441800  0.914000  0.679400  1.0
  C  C303  1  0.584400  0.147900  0.389300  1.0
  C  C304  1  0.415600  0.852100  0.610700  1.0
  C  C305  1  0.610300  0.114000  0.444800  1.0
  C  C306  1  0.389700  0.886000  0.555200  1.0
  C  C307  1  0.615000  0.017600  0.433100  1.0
  C  C308  1  0.385000  0.982400  0.566900  1.0
  C  C309  1  0.588700  0.951800  0.364800  1.0
  C  C310  1  0.411300  0.048200  0.635200  1.0
  C  C311  1  0.734500  0.719500  0.905400  1.0
  C  C312  1  0.265500  0.280500  0.094600  1.0
  C  C313  1  0.834900  0.695300  0.909700  1.0
  C  C314  1  0.165100  0.304700  0.090300  1.0
  C  C315  1  0.853100  0.619400  0.936000  1.0
  C  C316  1  0.146900  0.380600  0.064000  1.0
  C  C317  1  0.771700  0.566900  0.958700  1.0
  C  C318  1  0.228300  0.433100  0.041300  1.0
  C  C319  1  0.672400  0.589400  0.954200  1.0
  C  C320  1  0.327600  0.410600  0.045800  1.0
  C  C321  1  0.652300  0.665300  0.927300  1.0
  C  C322  1  0.347700  0.334700  0.072700  1.0
  C  C323  1  0.788700  0.927400  0.955200  1.0
  C  C324  1  0.211300  0.072600  0.044800  1.0
  C  C325  1  0.855400  0.009000  0.947000  1.0
  C  C326  1  0.144600  0.991000  0.053000  1.0
  C  C327  1  0.911600  0.084300  0.007200  1.0
  C  C328  1  0.088400  0.915700  0.992800  1.0
  C  C329  1  0.902200  0.078200  0.073700  1.0
  C  C330  1  0.097800  0.921800  0.926300  1.0
  C  C331  1  0.835400  0.997200  0.081800  1.0
  C  C332  1  0.164600  0.002800  0.918200  1.0
  C  C333  1  0.779200  0.921500  0.022800  1.0
  C  C334  1  0.220800  0.078500  0.977200  1.0
  C  C335  1  0.576000  0.828800  0.871000  1.0
  C  C336  1  0.424000  0.171200  0.129000  1.0
  C  C337  1  0.503200  0.753300  0.819800  1.0
  C  C338  1  0.496800  0.246700  0.180200  1.0
  C  C339  1  0.394800  0.756000  0.809700  1.0
  C  C340  1  0.605200  0.244000  0.190300  1.0
  C  C341  1  0.358400  0.831200  0.848600  1.0
  C  C342  1  0.641600  0.168800  0.151400  1.0
  C  C343  1  0.431200  0.907900  0.898600  1.0
  C  C344  1  0.568800  0.092100  0.101400  1.0
  C  C345  1  0.539800  0.906200  0.909800  1.0
  C  C346  1  0.460200  0.093800  0.090200  1.0
  C  C347  1  0.697300  0.780900  0.595600  1.0
  C  C348  1  0.302700  0.219100  0.404400  1.0
  C  C349  1  0.629800  0.705100  0.608700  1.0
  C  C350  1  0.370200  0.294900  0.391300  1.0
  C  C351  1  0.548500  0.642300  0.555400  1.0
  C  C352  1  0.451500  0.357700  0.444600  1.0
  C  C353  1  0.534100  0.655300  0.490100  1.0
  C  C354  1  0.465900  0.344700  0.509900  1.0
  C  C355  1  0.601200  0.731000  0.476200  1.0
  C  C356  1  0.398800  0.269000  0.523800  1.0
  C  C357  1  0.682400  0.793200  0.528700  1.0
  C  C358  1  0.317600  0.206800  0.471300  1.0
  C  C359  1  0.930800  0.826800  0.651200  1.0
  C  C360  1  0.069200  0.173200  0.348800  1.0
  C  C361  1  0.020300  0.866400  0.705000  1.0
  C  C362  1  0.979700  0.133600  0.295000  1.0
  C  C363  1  0.118400  0.843000  0.695200  1.0
  C  C364  1  0.881600  0.157000  0.304800  1.0
  C  C365  1  0.126900  0.779900  0.631700  1.0
  C  C366  1  0.873100  0.220100  0.368300  1.0
  C  C367  1  0.037300  0.740300  0.578000  1.0
  C  C368  1  0.962700  0.259700  0.422000  1.0
  C  C369  1  0.939300  0.763700  0.587700  1.0
  C  C370  1  0.060700  0.236300  0.412300  1.0
  C  C371  1  0.800200  0.982500  0.653200  1.0
  C  C372  1  0.199800  0.017500  0.346800  1.0
  C  C373  1  0.702100  0.008900  0.639400  1.0
  C  C374  1  0.297900  0.991100  0.360600  1.0
  C  C375  1  0.701600  0.100700  0.629300  1.0
  C  C376  1  0.298400  0.899300  0.370700  1.0
  C  C377  1  0.794300  0.164100  0.632500  1.0
  C  C378  1  0.205700  0.835900  0.367500  1.0
  C  C379  1  0.891600  0.137800  0.646200  1.0
  C  C380  1  0.108400  0.862200  0.353800  1.0
  C  C381  1  0.895500  0.048000  0.656800  1.0
  C  C382  1  0.104500  0.952000  0.343200  1.0
  C  C383  1  0.021600  0.055900  0.512800  1.0
  C  C384  1  0.978400  0.944100  0.487200  1.0
  N  N385  1  0.363300  0.567100  0.923900  1.0
  N  N386  1  0.636700  0.432900  0.076100  1.0
  Cl  Cl387  1  0.986000  0.168800  0.855500  1
  Cl  Cl388  1  0.014000  0.831200  0.144500  1
  Cl  Cl389  1  0.969300  0.395900  0.898600  1
  Cl  Cl390  1  0.030700  0.604100  0.101400  1
  Cl  Cl391  1  0.653200  0.339500  0.699700  1
  Cl  Cl392  1  0.346800  0.660500  0.300300  1
  Cl  Cl393  1  0.496100  0.496800  0.701300  1
  Cl  Cl394  1  0.503900  0.503200  0.298700  1
  Cl  Cl395  1  0.141300  0.091900  0.579600  1.0
  Cl  Cl396  1  0.858700  0.908100  0.420400  1.0
