# generated using pymatgen
data_Zn2P2H126PdC103N6Cl3O4
_symmetry_space_group_name_H-M   'P 1'
_cell_length_a   12.44340000
_cell_length_b   17.47690309
_cell_length_c   25.37410000
_cell_angle_alpha   96.83060988
_cell_angle_beta   90.00000000
_cell_angle_gamma   110.85447263
_symmetry_Int_Tables_number   1
_chemical_formula_structural   Zn2P2H126PdC103N6Cl3O4
_chemical_formula_sum   'Zn4 P4 H252 Pd2 C206 N12 Cl6 O8'
_cell_volume   5114.71625866
_cell_formula_units_Z   2
loop_
 _symmetry_equiv_pos_site_id
 _symmetry_equiv_pos_as_xyz
  1  'x, y, z'
loop_
 _atom_site_type_symbol
 _atom_site_label
 _atom_site_symmetry_multiplicity
 _atom_site_fract_x
 _atom_site_fract_y
 _atom_site_fract_z
 _atom_site_occupancy
  C  C1  1  0.066300  0.000000  0.750000  1
  C  C2  1  0.933700  0.000000  0.250000  1
  C  C3  1  0.011810  0.999620  0.691000  1
  C  C4  1  0.012190  0.000380  0.809000  1
  C  C5  1  0.988190  0.000380  0.309000  1
  C  C6  1  0.987810  0.999620  0.191000  1
  C  C7  1  0.885400  0.815800  0.676400  1.0
  C  C8  1  0.069600  0.184200  0.823600  1.0
  C  C9  1  0.114600  0.184200  0.323600  1.0
  C  C10  1  0.930400  0.815800  0.176400  1.0
  C  C11  1  0.922400  0.749400  0.679800  1.0
  C  C12  1  0.173000  0.250600  0.820200  1.0
  C  C13  1  0.077600  0.250600  0.320200  1.0
  C  C14  1  0.827000  0.749400  0.179800  1.0
  C  C15  1  0.955200  0.719200  0.629400  1.0
  C  C16  1  0.236000  0.280800  0.870600  1.0
  C  C17  1  0.044800  0.280800  0.370600  1.0
  C  C18  1  0.764000  0.719200  0.129400  1.0
  C  C19  1  0.959400  0.751200  0.581400  1.0
  C  C20  1  0.208200  0.248800  0.918600  1.0
  C  C21  1  0.040600  0.248800  0.418600  1.0
  C  C22  1  0.791800  0.751200  0.081400  1.0
  C  C23  1  0.934200  0.818200  0.587800  1.0
  C  C24  1  0.116000  0.181800  0.912200  1.0
  C  C25  1  0.065800  0.181800  0.412200  1.0
  C  C26  1  0.884000  0.818200  0.087800  1.0
  C  C27  1  0.897300  0.849600  0.635000  1.0
  C  C28  1  0.047700  0.150400  0.865000  1.0
  C  C29  1  0.102700  0.150400  0.365000  1.0
  C  C30  1  0.952300  0.849600  0.135000  1.0
  C  C31  1  0.863600  0.807200  0.791000  1.0
  C  C32  1  0.056400  0.192800  0.709000  1.0
  C  C33  1  0.136400  0.192800  0.209000  1.0
  C  C34  1  0.943600  0.807200  0.291000  1.0
  C  C35  1  0.804700  0.721400  0.791200  1.0
  C  C36  1  0.083300  0.278600  0.708800  1.0
  C  C37  1  0.195300  0.278600  0.208800  1.0
  C  C38  1  0.916700  0.721400  0.291200  1.0
  C  C39  1  0.825700  0.678800  0.829600  1.0
  C  C40  1  0.146900  0.321200  0.670400  1.0
  C  C41  1  0.174300  0.321200  0.170400  1.0
  C  C42  1  0.853100  0.678800  0.329600  1.0
  C  C43  1  0.896100  0.720200  0.869100  1.0
  C  C44  1  0.175900  0.279800  0.630900  1.0
  C  C45  1  0.103900  0.279800  0.130900  1.0
  C  C46  1  0.824100  0.720200  0.369100  1.0
  C  C47  1  0.939400  0.801200  0.876700  1.0
  C  C48  1  0.138200  0.198800  0.623300  1.0
  C  C49  1  0.060600  0.198800  0.123300  1.0
  C  C50  1  0.861800  0.801200  0.376700  1.0
  C  C51  1  0.922500  0.846600  0.834800  1.0
  C  C52  1  0.075900  0.153400  0.665200  1.0
  C  C53  1  0.077500  0.153400  0.165200  1.0
  C  C54  1  0.924100  0.846600  0.334800  1.0
  C  C55  1  0.681600  0.815200  0.729700  1.0
  C  C56  1  0.866400  0.184800  0.770300  1.0
  C  C57  1  0.318400  0.184800  0.270300  1.0
  C  C58  1  0.133600  0.815200  0.229700  1.0
  C  C59  1  0.618600  0.790800  0.681800  1.0
  C  C60  1  0.827800  0.209200  0.818200  1.0
  C  C61  1  0.381400  0.209200  0.318200  1.0
  C  C62  1  0.172200  0.790800  0.181800  1.0
  C  C63  1  0.499800  0.768200  0.680600  1.0
  C  C64  1  0.731600  0.231800  0.819400  1.0
  C  C65  1  0.500200  0.231800  0.319400  1.0
  C  C66  1  0.268400  0.768200  0.180600  1.0
  C  C67  1  0.500500  0.787800  0.770200  1.0
  C  C68  1  0.712700  0.212200  0.729800  1.0
  C  C69  1  0.499500  0.212200  0.229800  1.0
  C  C70  1  0.287300  0.787800  0.270200  1.0
  C  C71  1  0.617700  0.812600  0.775300  1.0
  C  C72  1  0.805100  0.187400  0.724700  1.0
  C  C73  1  0.382300  0.187400  0.224700  1.0
  C  C74  1  0.194900  0.812600  0.275300  1.0
  C  C75  1  0.306000  0.927600  0.713600  1.0
  C  C76  1  0.378400  0.072400  0.786400  1.0
  C  C77  1  0.694000  0.072400  0.286400  1.0
  C  C78  1  0.621600  0.927600  0.213600  1.0
  C  C79  1  0.343500  0.004000  0.696000  1.0
  C  C80  1  0.339500  0.996000  0.804000  1.0
  C  C81  1  0.656500  0.996000  0.304000  1.0
  C  C82  1  0.660500  0.004000  0.196000  1.0
  C  C83  1  0.301900  0.923600  0.768800  1.0
  C  C84  1  0.378300  0.076400  0.731200  1.0
  C  C85  1  0.698100  0.076400  0.231200  1.0
  C  C86  1  0.621700  0.923600  0.268800  1.0
  C  C87  1  0.235500  0.829200  0.831800  1.0
  C  C88  1  0.406300  0.170800  0.668200  1.0
  C  C89  1  0.764500  0.170800  0.168200  1.0
  C  C90  1  0.593700  0.829200  0.331800  1.0
  C  C91  1  0.196700  0.751600  0.851600  1.0
  C  C92  1  0.445100  0.248400  0.648400  1.0
  C  C93  1  0.803300  0.248400  0.148400  1.0
  C  C94  1  0.554900  0.751600  0.351600  1.0
  C  C95  1  0.172300  0.755000  0.906600  1.0
  C  C96  1  0.417300  0.245000  0.593400  1.0
  C  C97  1  0.827700  0.245000  0.093400  1.0
  C  C98  1  0.582700  0.755000  0.406600  1.0
  C  C99  1  0.128100  0.686400  0.931200  1.0
  C  C100  1  0.441700  0.313600  0.568800  1.0
  C  C101  1  0.871900  0.313600  0.068800  1.0
  C  C102  1  0.558300  0.686400  0.431200  1.0
  C  C103  1  0.102100  0.689400  0.990600  1.0
  C  C104  1  0.412700  0.310600  0.509400  1.0
  C  C105  1  0.897900  0.310600  0.009400  1.0
  C  C106  1  0.587300  0.689400  0.490600  1.0
  C  C107  1  0.175700  0.655600  0.018500  1.0
  C  C108  1  0.520100  0.344400  0.481500  1.0
  C  C109  1  0.824300  0.344400  0.981500  1.0
  C  C110  1  0.479900  0.655600  0.518500  1.0
  C  C111  1  0.125600  0.774800  0.016100  1.0
  C  C112  1  0.350800  0.225200  0.483900  1.0
  C  C113  1  0.874400  0.225200  0.983900  1.0
  C  C114  1  0.649200  0.774800  0.516100  1.0
  C  C115  1  0.981200  0.640600  0.997300  1.0
  C  C116  1  0.340600  0.359400  0.502700  1.0
  C  C117  1  0.018800  0.359400  0.002700  1.0
  C  C118  1  0.659400  0.640600  0.497300  1.0
  C  C119  1  0.106800  0.611000  0.899000  1.0
  C  C120  1  0.495800  0.389000  0.601000  1.0
  C  C121  1  0.893200  0.389000  0.101000  1.0
  C  C122  1  0.504200  0.611000  0.399000  1.0
  C  C123  1  0.126300  0.601600  0.845600  1.0
  C  C124  1  0.524700  0.398400  0.654400  1.0
  C  C125  1  0.873700  0.398400  0.154400  1.0
  C  C126  1  0.475300  0.601600  0.345600  1.0
  C  C127  1  0.099800  0.515400  0.813400  1.0
  C  C128  1  0.584400  0.484600  0.686600  1.0
  C  C129  1  0.900200  0.484600  0.186600  1.0
  C  C130  1  0.415600  0.515400  0.313400  1.0
  C  C131  1  0.009500  0.503000  0.769000  1.0
  C  C132  1  0.506500  0.497000  0.731000  1.0
  C  C133  1  0.990500  0.497000  0.231000  1.0
  C  C134  1  0.493500  0.503000  0.269000  1.0
  C  C135  1  0.050900  0.446200  0.848700  1.0
  C  C136  1  0.604700  0.553800  0.651300  1.0
  C  C137  1  0.949100  0.553800  0.151300  1.0
  C  C138  1  0.395300  0.446200  0.348700  1.0
  C  C139  1  0.211000  0.509200  0.790800  1.0
  C  C140  1  0.701800  0.490800  0.709200  1.0
  C  C141  1  0.789000  0.490800  0.209200  1.0
  C  C142  1  0.298200  0.509200  0.290800  1.0
  C  C143  1  0.175200  0.675200  0.820000  1.0
  C  C144  1  0.500000  0.324800  0.680000  1.0
  C  C145  1  0.824800  0.324800  0.180000  1.0
  C  C146  1  0.500000  0.675200  0.320000  1.0
  C  C147  1  0.217100  0.693600  0.606500  1.0
  C  C148  1  0.523500  0.306400  0.893500  1.0
  C  C149  1  0.782900  0.306400  0.393500  1.0
  C  C150  1  0.476500  0.693600  0.106500  1.0
  C  C151  1  0.191600  0.626800  0.563900  1.0
  C  C152  1  0.564800  0.373200  0.936100  1.0
  C  C153  1  0.808400  0.373200  0.436100  1.0
  C  C154  1  0.435200  0.626800  0.063900  1.0
  C  C155  1  0.165100  0.539000  0.576900  1.0
  C  C156  1  0.626100  0.461000  0.923100  1.0
  C  C157  1  0.834900  0.461000  0.423100  1.0
  C  C158  1  0.373900  0.539000  0.076900  1.0
  C  C159  1  0.056900  0.513000  0.609100  1.0
  C  C160  1  0.543900  0.487000  0.890900  1.0
  C  C161  1  0.943100  0.487000  0.390900  1.0
  C  C162  1  0.456100  0.513000  0.109100  1.0
  C  C163  1  0.144200  0.476200  0.526800  1.0
  C  C164  1  0.668000  0.523800  0.973200  1.0
  C  C165  1  0.855800  0.523800  0.473200  1.0
  C  C166  1  0.332000  0.476200  0.026800  1.0
  C  C167  1  0.267500  0.534400  0.608900  1.0
  C  C168  1  0.733100  0.465600  0.891100  1.0
  C  C169  1  0.732500  0.465600  0.391100  1.0
  C  C170  1  0.266900  0.534400  0.108900  1.0
  C  C171  1  0.193100  0.644000  0.512500  1.0
  C  C172  1  0.549100  0.356000  0.987500  1.0
  C  C173  1  0.806900  0.356000  0.487500  1.0
  C  C174  1  0.450900  0.644000  0.012500  1.0
  C  C175  1  0.219900  0.724400  0.497700  1.0
  C  C176  1  0.495500  0.275600  0.002300  1.0
  C  C177  1  0.780100  0.275600  0.502300  1.0
  C  C178  1  0.504500  0.724400  0.997700  1.0
  C  C179  1  0.218100  0.740800  0.439300  1.0
  C  C180  1  0.477300  0.259200  0.060700  1.0
  C  C181  1  0.781900  0.259200  0.560700  1.0
  C  C182  1  0.522700  0.740800  0.939300  1.0
  C  C183  1  0.102500  0.746800  0.425800  1.0
  C  C184  1  0.355700  0.253200  0.074200  1.0
  C  C185  1  0.897500  0.253200  0.574200  1.0
  C  C186  1  0.644300  0.746800  0.925800  1.0
  C  C187  1  0.236000  0.671600  0.401600  1.0
  C  C188  1  0.564400  0.328400  0.098400  1.0
  C  C189  1  0.764000  0.328400  0.598400  1.0
  C  C190  1  0.435600  0.671600  0.901600  1.0
  C  C191  1  0.314900  0.821200  0.431600  1.0
  C  C192  1  0.493700  0.178800  0.068400  1.0
  C  C193  1  0.685100  0.178800  0.568400  1.0
  C  C194  1  0.506300  0.821200  0.931600  1.0
  C  C195  1  0.241000  0.786600  0.538700  1.0
  C  C196  1  0.454400  0.213400  0.961300  1.0
  C  C197  1  0.759000  0.213400  0.461300  1.0
  C  C198  1  0.545600  0.786600  0.038700  1.0
  C  C199  1  0.241300  0.774600  0.592200  1.0
  C  C200  1  0.466700  0.225400  0.907800  1.0
  C  C201  1  0.758700  0.225400  0.407800  1.0
  C  C202  1  0.533300  0.774600  0.092200  1.0
  C  C203  1  0.264600  0.846600  0.629700  1.0
  C  C204  1  0.418000  0.153400  0.870300  1.0
  C  C205  1  0.735400  0.153400  0.370300  1.0
  C  C206  1  0.582000  0.846600  0.129700  1.0
  Cl  Cl207  1  0.681100  0.000000  0.750000  1
  Cl  Cl208  1  0.318900  0.000000  0.250000  1
  Cl  Cl209  1  0.763100  0.000600  0.835300  1
  Cl  Cl210  1  0.762500  0.999400  0.664700  1
  Cl  Cl211  1  0.236900  0.999400  0.164700  1
  Cl  Cl212  1  0.237500  0.000600  0.335300  1
  H  H213  1  0.112600  0.040000  0.779300  1
  H  H214  1  0.072600  0.960000  0.720700  1
  H  H215  1  0.887400  0.960000  0.220700  1
  H  H216  1  0.927400  0.040000  0.279300  1
  H  H217  1  0.100300  0.015400  0.716200  1
  H  H218  1  0.084900  0.984600  0.783800  1
  H  H219  1  0.899700  0.984600  0.283800  1
  H  H220  1  0.915100  0.015400  0.216200  1
  H  H221  1  0.065000  0.944800  0.754500  1
  H  H222  1  0.120200  0.055200  0.745500  1
  H  H223  1  0.935000  0.055200  0.245500  1
  H  H224  1  0.879800  0.944800  0.254500  1
  H  H225  1  0.090800  0.016800  0.705500  1
  H  H226  1  0.074000  0.983200  0.794500  1
  H  H227  1  0.909200  0.983200  0.294500  1
  H  H228  1  0.926000  0.016800  0.205500  1
  H  H229  1  0.007000  0.038000  0.666600  1
  H  H230  1  0.969000  0.962000  0.833400  1
  H  H231  1  0.993000  0.962000  0.333400  1
  H  H232  1  0.031000  0.038000  0.166600  1
  H  H233  1  0.989000  0.943800  0.671700  1
  H  H234  1  0.045200  0.056200  0.828300  1
  H  H235  1  0.011000  0.056200  0.328300  1
  H  H236  1  0.954800  0.943800  0.171700  1
  H  H237  1  0.925500  0.726800  0.711900  1.0
  H  H238  1  0.198700  0.273200  0.788100  1.0
  H  H239  1  0.074500  0.273200  0.288100  1.0
  H  H240  1  0.801300  0.726800  0.211900  1.0
  H  H241  1  0.978200  0.727800  0.548600  1.0
  H  H242  1  0.250400  0.272200  0.951400  1.0
  H  H243  1  0.021800  0.272200  0.451400  1.0
  H  H244  1  0.749600  0.727800  0.048600  1.0
  H  H245  1  0.941400  0.848000  0.558100  1.0
  H  H246  1  0.093400  0.152000  0.941900  1.0
  H  H247  1  0.058600  0.152000  0.441900  1.0
  H  H248  1  0.906600  0.848000  0.058100  1.0
  H  H249  1  0.976300  0.671800  0.628800  1.0
  H  H250  1  0.304500  0.328200  0.871200  1.0
  H  H251  1  0.023700  0.328200  0.371200  1.0
  H  H252  1  0.695500  0.671800  0.128800  1.0
  H  H253  1  0.748400  0.692200  0.763700  1.0
  H  H254  1  0.056200  0.307800  0.736300  1.0
  H  H255  1  0.251600  0.307800  0.236300  1.0
  H  H256  1  0.943800  0.692200  0.263700  1.0
  H  H257  1  0.789600  0.620600  0.827200  1.0
  H  H258  1  0.169000  0.379400  0.672800  1.0
  H  H259  1  0.210400  0.379400  0.172800  1.0
  H  H260  1  0.831000  0.620600  0.327200  1.0
  H  H261  1  0.917500  0.690800  0.893800  1.0
  H  H262  1  0.226700  0.309200  0.606200  1.0
  H  H263  1  0.082500  0.309200  0.106200  1.0
  H  H264  1  0.773300  0.690800  0.393800  1.0
  H  H265  1  0.981100  0.829800  0.908900  1.0
  H  H266  1  0.151300  0.170200  0.591100  1.0
  H  H267  1  0.018900  0.170200  0.091100  1.0
  H  H268  1  0.848700  0.829800  0.408900  1.0
  H  H269  1  0.954500  0.905200  0.839300  1.0
  H  H270  1  0.049300  0.094800  0.660700  1.0
  H  H271  1  0.045500  0.094800  0.160700  1.0
  H  H272  1  0.950700  0.905200  0.339300  1.0
  H  H273  1  0.656800  0.789200  0.649500  1.0
  H  H274  1  0.867600  0.210800  0.850500  1.0
  H  H275  1  0.343200  0.210800  0.350500  1.0
  H  H276  1  0.132400  0.789200  0.149500  1.0
  H  H277  1  0.880600  0.898600  0.635600  1.0
  H  H278  1  0.982000  0.101400  0.864400  1.0
  H  H279  1  0.119400  0.101400  0.364400  1.0
  H  H280  1  0.018000  0.898600  0.135600  1.0
  H  H281  1  0.459200  0.785400  0.801800  1.0
  H  H282  1  0.673800  0.214600  0.698200  1.0
  H  H283  1  0.540800  0.214600  0.198200  1.0
  H  H284  1  0.326200  0.785400  0.301800  1.0
  H  H285  1  0.655400  0.827800  0.809600  1.0
  H  H286  1  0.827600  0.172200  0.690400  1.0
  H  H287  1  0.344600  0.172200  0.190400  1.0
  H  H288  1  0.172400  0.827800  0.309600  1.0
  H  H289  1  0.345600  0.007200  0.658900  1.0
  H  H290  1  0.338400  0.992800  0.841100  1.0
  H  H291  1  0.654400  0.992800  0.341100  1.0
  H  H292  1  0.661600  0.007200  0.158900  1.0
  H  H293  1  0.239700  0.876000  0.856200  1.0
  H  H294  1  0.363700  0.124000  0.643800  1.0
  H  H295  1  0.760300  0.124000  0.143800  1.0
  H  H296  1  0.636300  0.876000  0.356200  1.0
  H  H297  1  0.187600  0.807400  0.926800  1.0
  H  H298  1  0.380200  0.192600  0.573200  1.0
  H  H299  1  0.812400  0.192600  0.073200  1.0
  H  H300  1  0.619800  0.807400  0.426800  1.0
  H  H301  1  0.165800  0.663400  0.056800  1.0
  H  H302  1  0.502400  0.336600  0.443200  1.0
  H  H303  1  0.834200  0.336600  0.943200  1.0
  H  H304  1  0.497600  0.663400  0.556800  1.0
  H  H305  1  0.256500  0.684600  0.011100  1.0
  H  H306  1  0.571900  0.315400  0.488900  1.0
  H  H307  1  0.743500  0.315400  0.988900  1.0
  H  H308  1  0.428100  0.684600  0.511100  1.0
  H  H309  1  0.154000  0.596600  0.006100  1.0
  H  H310  1  0.557400  0.403400  0.493900  1.0
  H  H311  1  0.846000  0.403400  0.993900  1.0
  H  H312  1  0.442600  0.596600  0.506100  1.0
  H  H313  1  0.076600  0.798600  0.998800  1.0
  H  H314  1  0.278000  0.201400  0.501200  1.0
  H  H315  1  0.923400  0.201400  0.001200  1.0
  H  H316  1  0.722000  0.798600  0.498800  1.0
  H  H317  1  0.206700  0.808200  0.012500  1.0
  H  H318  1  0.398500  0.191800  0.487500  1.0
  H  H319  1  0.793300  0.191800  0.987500  1.0
  H  H320  1  0.601500  0.808200  0.512500  1.0
  H  H321  1  0.109300  0.774200  0.053800  1.0
  H  H322  1  0.335100  0.225800  0.446200  1.0
  H  H323  1  0.890700  0.225800  0.946200  1.0
  H  H324  1  0.664900  0.774200  0.553800  1.0
  H  H325  1  0.962700  0.584800  0.978500  1.0
  H  H326  1  0.377900  0.415200  0.521500  1.0
  H  H327  1  0.037300  0.415200  0.021500  1.0
  H  H328  1  0.622100  0.584800  0.478500  1.0
  H  H329  1  0.932200  0.666800  0.982600  1.0
  H  H330  1  0.265400  0.333200  0.517400  1.0
  H  H331  1  0.067800  0.333200  0.017400  1.0
  H  H332  1  0.734600  0.666800  0.482600  1.0
  H  H333  1  0.967900  0.637600  0.035100  1.0
  H  H334  1  0.330300  0.362400  0.464900  1.0
  H  H335  1  0.032100  0.362400  0.964900  1.0
  H  H336  1  0.669700  0.637600  0.535100  1.0
  H  H337  1  0.458700  0.752800  0.647200  1.0
  H  H338  1  0.705900  0.247200  0.852800  1.0
  H  H339  1  0.541300  0.247200  0.352800  1.0
  H  H340  1  0.294100  0.752800  0.147200  1.0
  H  H341  1  0.033600  0.550800  0.749300  1.0
  H  H342  1  0.482800  0.449200  0.750700  1.0
  H  H343  1  0.966400  0.449200  0.250700  1.0
  H  H344  1  0.517200  0.550800  0.249300  1.0
  H  H345  1  0.935200  0.497000  0.784500  1.0
  H  H346  1  0.438200  0.503000  0.715500  1.0
  H  H347  1  0.064800  0.503000  0.215500  1.0
  H  H348  1  0.561800  0.497000  0.284500  1.0
  H  H349  1  0.001800  0.453000  0.744800  1.0
  H  H350  1  0.548800  0.547000  0.755200  1.0
  H  H351  1  0.998200  0.547000  0.255200  1.0
  H  H352  1  0.451200  0.453000  0.244800  1.0
  H  H353  1  0.034800  0.392400  0.827300  1.0
  H  H354  1  0.642400  0.607600  0.672700  1.0
  H  H355  1  0.965200  0.607600  0.172700  1.0
  H  H356  1  0.357600  0.392400  0.327300  1.0
  H  H357  1  0.979600  0.448800  0.863700  1.0
  H  H358  1  0.530800  0.551200  0.636300  1.0
  H  H359  1  0.020400  0.551200  0.136300  1.0
  H  H360  1  0.469200  0.448800  0.363700  1.0
  H  H361  1  0.107300  0.453200  0.877600  1.0
  H  H362  1  0.654100  0.546800  0.622400  1.0
  H  H363  1  0.892700  0.546800  0.122400  1.0
  H  H364  1  0.345900  0.453200  0.377600  1.0
  H  H365  1  0.245000  0.553600  0.768800  1.0
  H  H366  1  0.691400  0.446400  0.731200  1.0
  H  H367  1  0.755000  0.446400  0.231200  1.0
  H  H368  1  0.308600  0.553600  0.268800  1.0
  H  H369  1  0.193800  0.455800  0.769100  1.0
  H  H370  1  0.738000  0.544200  0.730900  1.0
  H  H371  1  0.806200  0.544200  0.230900  1.0
  H  H372  1  0.262000  0.455800  0.269100  1.0
  H  H373  1  0.265600  0.514600  0.820100  1.0
  H  H374  1  0.751000  0.485400  0.679900  1.0
  H  H375  1  0.734400  0.485400  0.179900  1.0
  H  H376  1  0.249000  0.514600  0.320100  1.0
  H  H377  1  0.069200  0.551000  0.642100  1.0
  H  H378  1  0.518200  0.449000  0.857900  1.0
  H  H379  1  0.930800  0.449000  0.357900  1.0
  H  H380  1  0.481800  0.551000  0.142100  1.0
  H  H381  1  0.040600  0.456800  0.617700  1.0
  H  H382  1  0.583800  0.543200  0.882300  1.0
  H  H383  1  0.959400  0.543200  0.382300  1.0
  H  H384  1  0.416200  0.456800  0.117700  1.0
  H  H385  1  0.991500  0.514400  0.588200  1.0
  H  H386  1  0.477100  0.485600  0.911800  1.0
  H  H387  1  0.008500  0.485600  0.411800  1.0
  H  H388  1  0.522900  0.514400  0.088200  1.0
  H  H389  1  0.074500  0.473000  0.507200  1.0
  H  H390  1  0.601500  0.527000  0.992800  1.0
  H  H391  1  0.925500  0.527000  0.492800  1.0
  H  H392  1  0.398500  0.473000  0.007200  1.0
  H  H393  1  0.134700  0.421800  0.536900  1.0
  H  H394  1  0.712900  0.578200  0.963100  1.0
  H  H395  1  0.865300  0.578200  0.463100  1.0
  H  H396  1  0.287100  0.421800  0.036900  1.0
  H  H397  1  0.210300  0.493800  0.504200  1.0
  H  H398  1  0.716500  0.506200  0.995800  1.0
  H  H399  1  0.789700  0.506200  0.495800  1.0
  H  H400  1  0.283500  0.493800  0.004200  1.0
  H  H401  1  0.338000  0.555800  0.589700  1.0
  H  H402  1  0.782200  0.444200  0.910300  1.0
  H  H403  1  0.662000  0.444200  0.410300  1.0
  H  H404  1  0.217800  0.555800  0.089700  1.0
  H  H405  1  0.253200  0.476800  0.613700  1.0
  H  H406  1  0.776400  0.523200  0.886300  1.0
  H  H407  1  0.746800  0.523200  0.386300  1.0
  H  H408  1  0.223600  0.476800  0.113700  1.0
  H  H409  1  0.276200  0.567400  0.643800  1.0
  H  H410  1  0.708800  0.432600  0.856200  1.0
  H  H411  1  0.723800  0.432600  0.356200  1.0
  H  H412  1  0.291200  0.567400  0.143800  1.0
  H  H413  1  0.175000  0.599000  0.484900  1.0
  H  H414  1  0.576000  0.401000  0.015100  1.0
  H  H415  1  0.825000  0.401000  0.515100  1.0
  H  H416  1  0.424000  0.599000  0.984900  1.0
  H  H417  1  0.098700  0.754600  0.388400  1.0
  H  H418  1  0.344100  0.245400  0.111600  1.0
  H  H419  1  0.901300  0.245400  0.611600  1.0
  H  H420  1  0.655900  0.754600  0.888400  1.0
  H  H421  1  0.093800  0.793600  0.448300  1.0
  H  H422  1  0.300200  0.206400  0.051700  1.0
  H  H423  1  0.906200  0.206400  0.551700  1.0
  H  H424  1  0.699800  0.793600  0.948300  1.0
  H  H425  1  0.040500  0.695800  0.432200  1.0
  H  H426  1  0.344700  0.304200  0.067800  1.0
  H  H427  1  0.959500  0.304200  0.567800  1.0
  H  H428  1  0.655300  0.695800  0.932200  1.0
  H  H429  1  0.237700  0.684600  0.365000  1.0
  H  H430  1  0.553100  0.315400  0.135000  1.0
  H  H431  1  0.762300  0.315400  0.635000  1.0
  H  H432  1  0.446900  0.684600  0.865000  1.0
  H  H433  1  0.172700  0.619400  0.404300  1.0
  H  H434  1  0.553300  0.380600  0.095700  1.0
  H  H435  1  0.827300  0.380600  0.595700  1.0
  H  H436  1  0.446700  0.619400  0.904300  1.0
  H  H437  1  0.309100  0.666400  0.411300  1.0
  H  H438  1  0.642700  0.333600  0.088700  1.0
  H  H439  1  0.690900  0.333600  0.588700  1.0
  H  H440  1  0.357300  0.666400  0.911300  1.0
  H  H441  1  0.388600  0.818800  0.443200  1.0
  H  H442  1  0.569800  0.181200  0.056800  1.0
  H  H443  1  0.611400  0.181200  0.556800  1.0
  H  H444  1  0.430200  0.818800  0.943200  1.0
  H  H445  1  0.301500  0.867400  0.452700  1.0
  H  H446  1  0.434100  0.132600  0.047300  1.0
  H  H447  1  0.698500  0.132600  0.547300  1.0
  H  H448  1  0.565900  0.867400  0.952700  1.0
  H  H449  1  0.316700  0.829000  0.394000  1.0
  H  H450  1  0.487700  0.171000  0.106000  1.0
  H  H451  1  0.683300  0.171000  0.606000  1.0
  H  H452  1  0.512300  0.829000  0.894000  1.0
  H  H453  1  0.256400  0.841000  0.530400  1.0
  H  H454  1  0.415400  0.159000  0.969600  1.0
  H  H455  1  0.743600  0.159000  0.469600  1.0
  H  H456  1  0.584600  0.841000  0.030400  1.0
  H  H457  1  0.272700  0.896400  0.615800  1.0
  H  H458  1  0.376300  0.103600  0.884200  1.0
  H  H459  1  0.727300  0.103600  0.384200  1.0
  H  H460  1  0.623700  0.896400  0.115800  1.0
  H  H461  1  0.076300  0.562200  0.915400  1.0
  H  H462  1  0.514100  0.437800  0.584600  1.0
  H  H463  1  0.923700  0.437800  0.084600  1.0
  H  H464  1  0.485900  0.562200  0.415400  1.0
  N  N465  1  0.441040  0.767280  0.724600  1.0
  N  N466  1  0.673760  0.232720  0.775400  1.0
  N  N467  1  0.558960  0.232720  0.275400  1.0
  N  N468  1  0.326240  0.767280  0.224600  1.0
  N  N469  1  0.276100  0.851400  0.681100  1.0
  N  N470  1  0.424700  0.148600  0.818900  1.0
  N  N471  1  0.723900  0.148600  0.318900  1.0
  N  N472  1  0.575300  0.851400  0.181100  1.0
  N  N473  1  0.265740  0.843080  0.784000  1.0
  N  N474  1  0.422660  0.156920  0.716000  1.0
  N  N475  1  0.734260  0.156920  0.216000  1.0
  N  N476  1  0.577340  0.843080  0.284000  1.0
  O  O477  1  0.194920  0.668640  0.770050  1.0
  O  O478  1  0.526280  0.331360  0.729950  1.0
  O  O479  1  0.805080  0.331360  0.229950  1.0
  O  O480  1  0.473720  0.668640  0.270050  1.0
  O  O481  1  0.215080  0.678360  0.655420  1.0
  O  O482  1  0.536720  0.321640  0.844580  1.0
  O  O483  1  0.784920  0.321640  0.344580  1.0
  O  O484  1  0.463280  0.678360  0.155420  1.0
  P  P485  1  0.838190  0.858060  0.736530  1.0
  P  P486  1  0.980130  0.141940  0.763470  1.0
  P  P487  1  0.161810  0.141940  0.263470  1.0
  P  P488  1  0.019870  0.858060  0.236530  1.0
  Pd  Pd489  1  0.906220  0.000000  0.750000  1
  Pd  Pd490  1  0.093780  0.000000  0.250000  1
  Zn  Zn491  1  0.263910  0.751160  0.722270  1.0
  Zn  Zn492  1  0.512750  0.248840  0.777730  1.0
  Zn  Zn493  1  0.736090  0.248840  0.277730  1.0
  Zn  Zn494  1  0.487250  0.751160  0.222270  1.0
