# generated using pymatgen
data_Zn2P2H141PtC109N6(ClO2)2
_symmetry_space_group_name_H-M   'P 1'
_cell_length_a   17.39000000
_cell_length_b   18.13440000
_cell_length_c   19.65770000
_cell_angle_alpha   115.29700000
_cell_angle_beta   96.58100000
_cell_angle_gamma   92.18200000
_symmetry_Int_Tables_number   1
_chemical_formula_structural   Zn2P2H141PtC109N6(ClO2)2
_chemical_formula_sum   'Zn4 P4 H282 Pt2 C218 N12 Cl4 O8'
_cell_volume   5541.58322210
_cell_formula_units_Z   2
loop_
 _symmetry_equiv_pos_site_id
 _symmetry_equiv_pos_as_xyz
  1  'x, y, z'
loop_
 _atom_site_type_symbol
 _atom_site_label
 _atom_site_symmetry_multiplicity
 _atom_site_fract_x
 _atom_site_fract_y
 _atom_site_fract_z
 _atom_site_occupancy
  Zn  Zn1  1  0.043112  0.285330  0.312477  1
  Zn  Zn2  1  0.956888  0.714670  0.687523  1
  Zn  Zn3  1  0.303670  0.576700  0.187340  1
  Zn  Zn4  1  0.696330  0.423300  0.812660  1
  P  P5  1  0.375230  0.252110  0.369610  1
  P  P6  1  0.624770  0.747890  0.630390  1
  P  P7  1  0.447270  0.364070  0.289410  1
  P  P8  1  0.552730  0.635930  0.710590  1
  H  H9  1  0.826700  0.000400  0.048900  1
  H  H10  1  0.173300  0.999600  0.951100  1
  H  H11  1  0.953800  0.168600  0.017000  1
  H  H12  1  0.046200  0.831400  0.983000  1
  H  H13  1  0.028500  0.273400  0.111500  1
  H  H14  1  0.971500  0.726600  0.888500  1
  H  H15  1  0.130500  0.342000  0.123200  1
  H  H16  1  0.869500  0.658000  0.876800  1
  H  H17  1  0.192200  0.535100  0.376700  1
  H  H18  1  0.807800  0.464900  0.623300  1
  H  H19  1  0.157700  0.491000  0.450800  1
  H  H20  1  0.842300  0.509000  0.549200  1
  H  H21  1  0.163900  0.520300  0.576200  1
  H  H22  1  0.836100  0.479700  0.423800  1
  H  H23  1  0.023900  0.401200  0.651300  1
  H  H24  1  0.976100  0.598800  0.348700  1
  H  H25  1  0.246400  0.298100  0.942300  1
  H  H26  1  0.753600  0.701900  0.057700  1
  H  H27  1  0.362400  0.425400  0.855500  1
  H  H28  1  0.637600  0.574600  0.144500  1
  H  H29  1  0.210400  0.357300  0.059200  1
  H  H30  1  0.789600  0.642700  0.940800  1
  H  H31  1  0.247800  0.642200  0.387900  1
  H  H32  1  0.752200  0.357800  0.612100  1
  H  H33  1  0.359700  0.944900  0.411900  1
  H  H34  1  0.640300  0.055100  0.588100  1
  H  H35  1  0.283700  0.773500  0.471800  1
  H  H36  1  0.716300  0.226500  0.528200  1
  H  H37  1  0.751000  0.987800  0.941600  1
  H  H38  1  0.249000  0.012200  0.058400  1
  H  H39  1  0.754900  0.989300  0.861300  1
  H  H40  1  0.245100  0.010700  0.138700  1
  H  H41  1  0.752500  0.073100  0.935500  1
  H  H42  1  0.247500  0.926900  0.064500  1
  H  H43  1  0.869600  0.125500  0.903400  1
  H  H44  1  0.130400  0.874500  0.096600  1
  H  H45  1  0.875600  0.039000  0.833600  1
  H  H46  1  0.124400  0.961000  0.166400  1
  H  H47  1  0.948300  0.081800  0.899200  1
  H  H48  1  0.051700  0.918200  0.100800  1
  H  H49  1  0.948600  0.950200  0.910200  1
  H  H50  1  0.051400  0.049800  0.089800  1
  H  H51  1  0.869500  0.910000  0.852900  1
  H  H52  1  0.130500  0.090000  0.147100  1
  H  H53  1  0.876700  0.918400  0.937900  1
  H  H54  1  0.123300  0.081600  0.062100  1
  H  H55  1  0.241900  0.472900  0.714700  1
  H  H56  1  0.758100  0.527100  0.285300  1
  H  H57  1  0.250400  0.570300  0.763600  1
  H  H58  1  0.749600  0.429700  0.236400  1
  H  H59  1  0.245400  0.531600  0.673000  1
  H  H60  1  0.754600  0.468400  0.327000  1
  H  H61  1  0.035300  0.523100  0.748300  1
  H  H62  1  0.964700  0.476900  0.251700  1
  H  H63  1  0.104900  0.577100  0.813800  1
  H  H64  1  0.895100  0.422900  0.186200  1
  H  H65  1  0.099500  0.479200  0.778800  1
  H  H66  1  0.900500  0.520800  0.221200  1
  H  H67  1  0.158900  0.624300  0.683600  1
  H  H68  1  0.841100  0.375700  0.316400  1
  H  H69  1  0.153900  0.651500  0.771700  1
  H  H70  1  0.846100  0.348500  0.228300  1
  H  H71  1  0.076200  0.621400  0.711100  1
  H  H72  1  0.923800  0.378600  0.288900  1
  H  H73  1  0.805100  0.938100  0.117600  1
  H  H74  1  0.194900  0.061900  0.882400  1
  H  H75  1  0.743700  0.004600  0.129600  1
  H  H76  1  0.256300  0.995400  0.870400  1
  H  H77  1  0.761600  0.969200  0.191100  1
  H  H78  1  0.238400  0.030800  0.808900  1
  H  H79  1  0.938200  0.981100  0.197700  1
  H  H80  1  0.061800  0.018900  0.802300  1
  H  H81  1  0.887300  0.995100  0.264300  1
  H  H82  1  0.112700  0.004900  0.735700  1
  H  H83  1  0.949900  0.066500  0.272500  1
  H  H84  1  0.050100  0.933500  0.727500  1
  H  H85  1  0.792600  0.103300  0.293600  1
  H  H86  1  0.207400  0.896700  0.706400  1
  H  H87  1  0.774800  0.145300  0.237200  1
  H  H88  1  0.225200  0.854700  0.762800  1
  H  H89  1  0.856300  0.168300  0.291900  1
  H  H90  1  0.143700  0.831700  0.708100  1
  H  H91  1  0.903500  0.343500  0.629500  1
  H  H92  1  0.096500  0.656500  0.370500  1
  H  H93  1  0.967100  0.280800  0.625100  1
  H  H94  1  0.032900  0.719200  0.374900  1
  H  H95  1  0.879100  0.246900  0.586400  1
  H  H96  1  0.120900  0.753100  0.413600  1
  H  H97  1  0.920800  0.161800  0.466500  1
  H  H98  1  0.079200  0.838200  0.533500  1
  H  H99  1  0.010500  0.193300  0.499000  1
  H  H100  1  0.989500  0.806700  0.501000  1
  H  H101  1  0.971600  0.199800  0.424100  1
  H  H102  1  0.028400  0.800200  0.575900  1
  H  H103  1  0.824600  0.261400  0.471100  1
  H  H104  1  0.175400  0.738600  0.528900  1
  H  H105  1  0.877100  0.305400  0.434700  1
  H  H106  1  0.122900  0.694600  0.565300  1
  H  H107  1  0.848900  0.358100  0.514800  1
  H  H108  1  0.151100  0.641900  0.485200  1
  H  H109  1  0.401800  0.233500  0.858900  1
  H  H110  1  0.598200  0.766500  0.141100  1
  H  H111  1  0.353000  0.158300  0.787100  1
  H  H112  1  0.647000  0.841700  0.212900  1
  H  H113  1  0.322600  0.192900  0.867900  1
  H  H114  1  0.677400  0.807100  0.132100  1
  H  H115  1  0.201900  0.214900  0.826100  1
  H  H116  1  0.798100  0.785100  0.173900  1
  H  H117  1  0.227100  0.166100  0.743800  1
  H  H118  1  0.772900  0.833900  0.256200  1
  H  H119  1  0.187300  0.249600  0.763800  1
  H  H120  1  0.812700  0.750400  0.236200  1
  H  H121  1  0.318100  0.303600  0.727100  1
  H  H122  1  0.681900  0.696400  0.272900  1
  H  H123  1  0.351200  0.217900  0.713100  1
  H  H124  1  0.648800  0.782100  0.286900  1
  H  H125  1  0.398700  0.301900  0.774500  1
  H  H126  1  0.601300  0.698100  0.225500  1
  H  H127  1  0.245000  0.880100  0.572600  1
  H  H128  1  0.755000  0.119900  0.427400  1
  H  H129  1  0.301100  0.950600  0.642200  1
  H  H130  1  0.698900  0.049400  0.357800  1
  H  H131  1  0.332000  0.863700  0.594800  1
  H  H132  1  0.668000  0.136300  0.405200  1
  H  H133  1  0.445000  0.930500  0.568700  1
  H  H134  1  0.555000  0.069500  0.431300  1
  H  H135  1  0.415800  0.017000  0.620000  1
  H  H136  1  0.584200  0.983000  0.380000  1
  H  H137  1  0.432300  0.996500  0.535600  1
  H  H138  1  0.567700  0.003500  0.464400  1
  H  H139  1  0.294500  0.025800  0.502400  1
  H  H140  1  0.705500  0.974200  0.497600  1
  H  H141  1  0.283500  0.049200  0.588800  1
  H  H142  1  0.716500  0.950800  0.411200  1
  H  H143  1  0.222900  0.982500  0.520700  1
  H  H144  1  0.777100  0.017500  0.479300  1
  H  H145  1  0.429600  0.621900  0.082700  1
  H  H146  1  0.570400  0.378100  0.917300  1
  H  H147  1  0.475000  0.661800  0.038400  1
  H  H148  1  0.525000  0.338200  0.961600  1
  H  H149  1  0.488300  0.570700  0.027100  1
  H  H150  1  0.511700  0.429300  0.972900  1
  H  H151  1  0.459000  0.528600  0.889100  1
  H  H152  1  0.541000  0.471400  0.110900  1
  H  H153  1  0.437400  0.617600  0.900100  1
  H  H154  1  0.562600  0.382400  0.099900  1
  H  H155  1  0.376200  0.539100  0.851400  1
  H  H156  1  0.623800  0.460900  0.148600  1
  H  H157  1  0.277400  0.615300  0.938200  1
  H  H158  1  0.722600  0.384700  0.061800  1
  H  H159  1  0.345400  0.688700  0.978100  1
  H  H160  1  0.654600  0.311300  0.021900  1
  H  H161  1  0.303300  0.654100  0.028300  1
  H  H162  1  0.696700  0.345900  0.971700  1
  H  H163  1  0.391300  0.969200  0.257300  1
  H  H164  1  0.608700  0.030800  0.742700  1
  H  H165  1  0.431700  0.969900  0.335000  1
  H  H166  1  0.568300  0.030100  0.665000  1
  H  H167  1  0.340800  0.980500  0.323700  1
  H  H168  1  0.659200  0.019500  0.676300  1
  H  H169  1  0.427900  0.762300  0.209400  1
  H  H170  1  0.572100  0.237700  0.790600  1
  H  H171  1  0.481200  0.838400  0.276200  1
  H  H172  1  0.518800  0.161600  0.723800  1
  H  H173  1  0.452800  0.841000  0.196900  1
  H  H174  1  0.547200  0.159000  0.803100  1
  H  H175  1  0.287500  0.776200  0.174500  1
  H  H176  1  0.712500  0.223800  0.825500  1
  H  H177  1  0.314200  0.853900  0.161200  1
  H  H178  1  0.685800  0.146100  0.838800  1
  H  H179  1  0.252600  0.861600  0.217900  1
  H  H180  1  0.747400  0.138400  0.782100  1
  H  H181  1  0.298600  0.089700  0.324500  1
  H  H182  1  0.701400  0.910300  0.675500  1
  H  H183  1  0.168400  0.036600  0.303300  1
  H  H184  1  0.831600  0.963400  0.696700  1
  H  H185  1  0.070600  0.119100  0.302600  1
  H  H186  1  0.929400  0.880900  0.697400  1
  H  H187  1  0.223400  0.308100  0.355200  1
  H  H188  1  0.776600  0.691900  0.644800  1
  H  H189  1  0.501000  0.337600  0.483500  1
  H  H190  1  0.499000  0.662400  0.516500  1
  H  H191  1  0.567900  0.323900  0.585300  1
  H  H192  1  0.432100  0.676100  0.414700  1
  H  H193  1  0.521300  0.227100  0.622700  1
  H  H194  1  0.478700  0.772900  0.377300  1
  H  H195  1  0.405800  0.146200  0.559200  1
  H  H196  1  0.594200  0.853800  0.440800  1
  H  H197  1  0.340400  0.155900  0.453100  1
  H  H198  1  0.659600  0.844100  0.546900  1
  H  H199  1  0.337000  0.145100  0.209400  1
  H  H200  1  0.663000  0.854900  0.790600  1
  H  H201  1  0.398600  0.045300  0.117400  1
  H  H202  1  0.601400  0.954700  0.882600  1
  H  H203  1  0.520200  0.012500  0.152500  1
  H  H204  1  0.479800  0.987500  0.847500  1
  H  H205  1  0.579700  0.077300  0.276600  1
  H  H206  1  0.420300  0.922700  0.723400  1
  H  H207  1  0.519700  0.177100  0.369300  1
  H  H208  1  0.480300  0.822900  0.630700  1
  H  H209  1  0.358900  0.444900  0.222700  1
  H  H210  1  0.641100  0.555100  0.777300  1
  H  H211  1  0.482300  0.638400  0.239900  1
  H  H212  1  0.517700  0.361600  0.760100  1
  H  H213  1  0.588400  0.609100  0.302100  1
  H  H214  1  0.411600  0.390900  0.697900  1
  H  H215  1  0.579000  0.493800  0.327500  1
  H  H216  1  0.421000  0.506200  0.672500  1
  H  H217  1  0.543900  0.235100  0.201000  1
  H  H218  1  0.456100  0.764900  0.799000  1
  H  H219  1  0.665900  0.200100  0.231200  1
  H  H220  1  0.334100  0.799900  0.768800  1
  H  H221  1  0.738800  0.275100  0.350300  1
  H  H222  1  0.261200  0.724900  0.649700  1
  H  H223  1  0.688400  0.386500  0.441200  1
  H  H224  1  0.311600  0.613500  0.558800  1
  H  H225  1  0.565500  0.421200  0.413400  1
  H  H226  1  0.434500  0.578800  0.586600  1
  H  H227  1  0.290800  0.295300  0.231500  1
  H  H228  1  0.709200  0.704700  0.768500  1
  H  H229  1  0.219400  0.216900  0.111400  1
  H  H230  1  0.780600  0.783100  0.888600  1
  H  H231  1  0.282500  0.174500  0.004100  1
  H  H232  1  0.717500  0.825500  0.995900  1
  H  H233  1  0.414700  0.210700  0.015800  1
  H  H234  1  0.585300  0.789300  0.984200  1
  H  H235  1  0.484300  0.290800  0.135200  1
  H  H236  1  0.515700  0.709200  0.864800  1
  H  H237  1  0.751500  0.049300  0.895500  1
  H  H238  1  0.248500  0.950700  0.104500  1
  H  H239  1  0.817500  0.071400  0.855000  1
  H  H240  1  0.182500  0.928600  0.145000  1
  H  H241  1  0.808400  0.131900  0.940600  1
  H  H242  1  0.191600  0.868100  0.059400  1
  H  H243  1  0.959200  0.074700  0.905700  1
  H  H244  1  0.040800  0.925300  0.094300  1
  H  H245  1  0.924700  0.985900  0.841500  1
  H  H246  1  0.075300  0.014100  0.158500  1
  H  H247  1  0.974000  0.995000  0.919000  1
  H  H248  1  0.026000  0.005000  0.081000  1
  H  H249  1  0.861500  0.922500  0.948700  1
  H  H250  1  0.138500  0.077500  0.051300  1
  H  H251  1  0.850900  0.903800  0.860700  1
  H  H252  1  0.149100  0.096200  0.139300  1
  H  H253  1  0.779500  0.930900  0.907800  1
  H  H254  1  0.220500  0.069100  0.092200  1
  H  H255  1  0.248500  0.538800  0.681900  1
  H  H256  1  0.751500  0.461200  0.318100  1
  H  H257  1  0.240100  0.597400  0.768200  1
  H  H258  1  0.759900  0.402600  0.231800  1
  H  H259  1  0.202600  0.618600  0.701200  1
  H  H260  1  0.797400  0.381400  0.298800  1
  H  H261  1  0.132400  0.429800  0.741600  1
  H  H262  1  0.867600  0.570200  0.258400  1
  H  H263  1  0.202200  0.498800  0.791100  1
  H  H264  1  0.797800  0.501200  0.208900  1
  H  H265  1  0.210300  0.433600  0.706700  1
  H  H266  1  0.789700  0.566400  0.293300  1
  H  H267  1  0.055700  0.604300  0.744900  1
  H  H268  1  0.944300  0.395700  0.255100  1
  H  H269  1  0.106400  0.593300  0.812600  1
  H  H270  1  0.893600  0.406700  0.187400  1
  H  H271  1  0.040300  0.523000  0.756300  1
  H  H272  1  0.959700  0.477000  0.243700  1
  H  H273  1  0.409200  0.312700  0.799400  1
  H  H274  1  0.590800  0.687300  0.200600  1
  H  H275  1  0.385100  0.218500  0.741900  1
  H  H276  1  0.614900  0.781500  0.258100  1
  H  H277  1  0.416900  0.243600  0.829300  1
  H  H278  1  0.583100  0.756400  0.170700  1
  H  H279  1  0.280000  0.183700  0.853800  1
  H  H280  1  0.720000  0.816300  0.146200  1
  H  H281  1  0.253800  0.148800  0.764100  1
  H  H282  1  0.746200  0.851200  0.235900  1
  H  H283  1  0.202500  0.210500  0.821900  1
  H  H284  1  0.797500  0.789500  0.178100  1
  H  H285  1  0.208200  0.299800  0.757100  1
  H  H286  1  0.791800  0.700200  0.242900  1
  H  H287  1  0.265200  0.247100  0.700100  1
  H  H288  1  0.734800  0.752900  0.299900  1
  H  H289  1  0.289500  0.342300  0.754500  1
  H  H290  1  0.710500  0.657700  0.245500  1
  Pt  Pt291  1  0.381428  0.383032  0.386088  1
  Pt  Pt292  1  0.618572  0.616968  0.613912  1
  C  C293  1  0.941500  0.156800  0.179130  1
  C  C294  1  0.058500  0.843200  0.820870  1
  C  C295  1  0.884530  0.086380  0.147200  1
  C  C296  1  0.115470  0.913620  0.852800  1
  C  C297  1  0.862130  0.048450  0.069360  1
  C  C298  1  0.137870  0.951550  0.930640  1
  C  C299  1  0.888360  0.076200  0.018120  1
  C  C300  1  0.111640  0.923800  0.981880  1
  C  C301  1  0.937660  0.146200  0.049330  1
  C  C302  1  0.062340  0.853800  0.950670  1
  C  C303  1  0.965830  0.186950  0.128240  1
  C  C304  1  0.034170  0.813050  0.871760  1
  C  C305  1  0.020340  0.256690  0.149980  1
  C  C306  1  0.979660  0.743310  0.850020  1
  C  C307  1  0.112300  0.368120  0.230410  1
  C  C308  1  0.887700  0.631880  0.769590  1
  C  C309  1  0.143540  0.381120  0.174740  1
  C  C310  1  0.856460  0.618880  0.825260  1
  C  C311  1  0.193880  0.450540  0.192580  1
  C  C312  1  0.806120  0.549460  0.807420  1
  C  C313  1  0.208320  0.511120  0.269140  1
  C  C314  1  0.791680  0.488880  0.730860  1
  C  C315  1  0.179760  0.495840  0.325140  1
  C  C316  1  0.820240  0.504160  0.674860  1
  C  C317  1  0.133360  0.424410  0.307760  1
  C  C318  1  0.866640  0.575590  0.692240  1
  C  C319  1  0.120710  0.444510  0.433410  1
  C  C320  1  0.879290  0.555490  0.566590  1
  C  C321  1  0.090850  0.427330  0.490290  1
  C  C322  1  0.909150  0.572670  0.509710  1
  C  C323  1  0.124130  0.478300  0.566840  1
  C  C324  1  0.875870  0.521700  0.433160  1
  C  C325  1  0.101600  0.469600  0.626790  1
  C  C326  1  0.898400  0.530400  0.373210  1
  C  C327  1  0.041230  0.407600  0.609850  1
  C  C328  1  0.958770  0.592400  0.390150  1
  C  C329  1  0.005640  0.355920  0.537890  1
  C  C330  1  0.994360  0.644080  0.462110  1
  C  C331  1  0.030700  0.364140  0.474370  1
  C  C332  1  0.969300  0.635860  0.525630  1
  C  C333  1  0.309140  0.495300  0.023650  1
  C  C334  1  0.690860  0.504700  0.976350  1
  C  C335  1  0.273040  0.419200  0.015180  1
  C  C336  1  0.726960  0.580800  0.984820  1
  C  C337  1  0.271100  0.347900  0.946770  1
  C  C338  1  0.728900  0.652100  0.053230  1
  C  C339  1  0.303400  0.347700  0.886330  1
  C  C340  1  0.696600  0.652300  0.113670  1
  C  C341  1  0.339300  0.424000  0.896600  1
  C  C342  1  0.660700  0.576000  0.103400  1
  C  C343  1  0.343200  0.495700  0.961130  1
  C  C344  1  0.656800  0.504300  0.038870  1
  C  C345  1  0.235460  0.410000  0.072230  1
  C  C346  1  0.764540  0.590000  0.927770  1
  C  C347  1  0.262760  0.648570  0.345540  1
  C  C348  1  0.737240  0.351430  0.654460  1
  C  C349  1  0.295860  0.728090  0.359470  1
  C  C350  1  0.704140  0.271910  0.640530  1
  C  C351  1  0.320100  0.749020  0.303100  1
  C  C352  1  0.679900  0.250980  0.696900  1
  C  C353  1  0.342960  0.833610  0.324000  1
  C  C354  1  0.657040  0.166390  0.676000  1
  C  C355  1  0.343710  0.889100  0.398400  1
  C  C356  1  0.656290  0.110900  0.601600  1
  C  C357  1  0.322580  0.869490  0.456100  1
  C  C358  1  0.677420  0.130510  0.543900  1
  C  C359  1  0.298870  0.789080  0.434500  1
  C  C360  1  0.701130  0.210920  0.565500  1
  C  C361  1  0.861550  0.028480  0.932460  1
  C  C362  1  0.138450  0.971520  0.067540  1
  C  C363  1  0.771800  0.018800  0.916200  1
  C  C364  1  0.228200  0.981200  0.083800  1
  C  C365  1  0.891400  0.072600  0.888200  1
  C  C366  1  0.108600  0.927400  0.111800  1
  C  C367  1  0.891800  0.944200  0.906000  1
  C  C368  1  0.108200  0.055800  0.094000  1
  C  C369  1  0.139200  0.524100  0.707900  1
  C  C370  1  0.860800  0.475900  0.292100  1
  C  C371  1  0.227000  0.524800  0.715500  1
  C  C372  1  0.773000  0.475200  0.284500  1
  C  C373  1  0.090400  0.526100  0.767400  1
  C  C374  1  0.909600  0.473900  0.232600  1
  C  C375  1  0.131300  0.613600  0.719600  1
  C  C376  1  0.868700  0.386400  0.280400  1
  C  C377  1  0.849920  0.054670  0.199260  1
  C  C378  1  0.150080  0.945330  0.800740  1
  C  C379  1  0.784100  0.985400  0.155400  1
  C  C380  1  0.215900  0.014600  0.844600  1
  C  C381  1  0.911900  0.021400  0.236800  1
  C  C382  1  0.088100  0.978600  0.763200  1
  C  C383  1  0.815300  0.124100  0.261000  1
  C  C384  1  0.184700  0.875900  0.739000  1
  C  C385  1  0.939780  0.289600  0.523600  1
  C  C386  1  0.060220  0.710400  0.476400  1
  C  C387  1  0.920700  0.290300  0.597800  1
  C  C388  1  0.079300  0.709700  0.402200  1
  C  C389  1  0.962800  0.203100  0.473700  1
  C  C390  1  0.037200  0.796900  0.526300  1
  C  C391  1  0.865890  0.305000  0.482310  1
  C  C392  1  0.134110  0.695000  0.517690  1
  C  C393  1  0.302800  0.269100  0.812900  1
  C  C394  1  0.697200  0.730900  0.187100  1
  C  C395  1  0.349400  0.207700  0.833600  1
  C  C396  1  0.650600  0.792300  0.166400  1
  C  C397  1  0.222600  0.220600  0.784100  1
  C  C398  1  0.777400  0.779400  0.215900  1
  C  C399  1  0.346600  0.273500  0.751400  1
  C  C400  1  0.653400  0.726500  0.248600  1
  C  C401  1  0.327500  0.936900  0.536700  1
  C  C402  1  0.672500  0.063100  0.463300  1
  C  C403  1  0.298800  0.904900  0.591600  1
  C  C404  1  0.701200  0.095100  0.408400  1
  C  C405  1  0.413000  0.973600  0.568100  1
  C  C406  1  0.587000  0.026400  0.431900  1
  C  C407  1  0.277600  0.004700  0.537200  1
  C  C408  1  0.722400  0.995300  0.462800  1
  C  C409  1  0.382500  0.576400  0.967900  1
  C  C410  1  0.617500  0.423600  0.032100  1
  C  C411  1  0.450100  0.610900  0.035200  1
  C  C412  1  0.549900  0.389100  0.964800  1
  C  C413  1  0.416900  0.564300  0.895600  1
  C  C414  1  0.583100  0.435700  0.104400  1
  C  C415  1  0.321500  0.639400  0.979200  1
  C  C416  1  0.678500  0.360600  0.020800  1
  C  C417  1  0.365400  0.860700  0.264500  1
  C  C418  1  0.634600  0.139300  0.735500  1
  C  C419  1  0.384000  0.953400  0.298100  1
  C  C420  1  0.616000  0.046600  0.701900  1
  C  C421  1  0.438400  0.822200  0.234000  1
  C  C422  1  0.561600  0.177800  0.766000  1
  C  C423  1  0.299000  0.835900  0.198600  1
  C  C424  1  0.701000  0.164100  0.801400  1
  C  C425  1  0.275130  0.206270  0.345170  1
  C  C426  1  0.724870  0.793730  0.654830  1
  C  C427  1  0.257870  0.123890  0.327080  1
  C  C428  1  0.742130  0.876110  0.672920  1
  C  C429  1  0.181000  0.091960  0.312860  1
  C  C430  1  0.819000  0.908040  0.687140  1
  C  C431  1  0.123240  0.141410  0.312800  1
  C  C432  1  0.876760  0.858590  0.687200  1
  C  C433  1  0.212740  0.251880  0.343660  1
  C  C434  1  0.787260  0.748120  0.656340  1
  C  C435  1  0.415480  0.246680  0.456250  1
  C  C436  1  0.584520  0.753320  0.543750  1
  C  C437  1  0.482060  0.297000  0.497550  1
  C  C438  1  0.517940  0.703000  0.502450  1
  C  C439  1  0.521400  0.289600  0.558500  1
  C  C440  1  0.478600  0.710400  0.441500  1
  C  C441  1  0.493600  0.232700  0.580900  1
  C  C442  1  0.506400  0.767300  0.419100  1
  C  C443  1  0.426100  0.184200  0.542700  1
  C  C444  1  0.573900  0.815800  0.457300  1
  C  C445  1  0.386900  0.190300  0.479880  1
  C  C446  1  0.613100  0.809700  0.520120  1
  C  C447  1  0.422470  0.172630  0.298180  1
  C  C448  1  0.577530  0.827370  0.701820  1
  C  C449  1  0.386900  0.132100  0.223500  1
  C  C450  1  0.613100  0.867900  0.776500  1
  C  C451  1  0.423200  0.072300  0.168700  1
  C  C452  1  0.576800  0.927700  0.831300  1
  C  C453  1  0.495000  0.053000  0.189600  1
  C  C454  1  0.505000  0.947000  0.810400  1
  C  C455  1  0.530200  0.091400  0.262900  1
  C  C456  1  0.469800  0.908600  0.737100  1
  C  C457  1  0.494700  0.151100  0.318100  1
  C  C458  1  0.505300  0.848900  0.681900  1
  C  C459  1  0.467500  0.455700  0.275220  1
  C  C460  1  0.532500  0.544300  0.724780  1
  C  C461  1  0.406770  0.478650  0.239170  1
  C  C462  1  0.593230  0.521350  0.760830  1
  C  C463  1  0.477940  0.591300  0.249300  1
  C  C464  1  0.522060  0.408700  0.750700  1
  C  C465  1  0.541200  0.574200  0.286300  1
  C  C466  1  0.458800  0.425800  0.713700  1
  C  C467  1  0.536120  0.505800  0.300700  1
  C  C468  1  0.463880  0.494200  0.699300  1
  C  C469  1  0.542320  0.331360  0.303830  1
  C  C470  1  0.457680  0.668640  0.696170  1
  C  C471  1  0.572790  0.265800  0.250050  1
  C  C472  1  0.427210  0.734200  0.749950  1
  C  C473  1  0.645400  0.245500  0.268100  1
  C  C474  1  0.354600  0.754500  0.731900  1
  C  C475  1  0.688700  0.289700  0.338800  1
  C  C476  1  0.311300  0.710300  0.661200  1
  C  C477  1  0.658700  0.355500  0.392600  1
  C  C478  1  0.341300  0.644500  0.607400  1
  C  C479  1  0.586080  0.376300  0.375990  1
  C  C480  1  0.413920  0.623700  0.624010  1
  C  C481  1  0.396140  0.297320  0.195340  1
  C  C482  1  0.603860  0.702680  0.804660  1
  C  C483  1  0.316110  0.277220  0.187620  1
  C  C484  1  0.683890  0.722780  0.812380  1
  C  C485  1  0.273600  0.231300  0.116600  1
  C  C486  1  0.726400  0.768700  0.883400  1
  C  C487  1  0.311200  0.206600  0.053000  1
  C  C488  1  0.688800  0.793400  0.947000  1
  C  C489  1  0.389500  0.227900  0.059700  1
  C  C490  1  0.610500  0.772100  0.940300  1
  C  C491  1  0.430800  0.274300  0.130710  1
  C  C492  1  0.569200  0.725700  0.869290  1
  C  C493  1  0.804600  0.074400  0.903300  1
  C  C494  1  0.195400  0.925600  0.096700  1
  C  C495  1  0.936700  0.020300  0.896400  1
  C  C496  1  0.063300  0.979700  0.103600  1
  C  C497  1  0.836000  0.938300  0.910400  1
  C  C498  1  0.164000  0.061700  0.089600  1
  C  C499  1  0.214200  0.574100  0.715500  1
  C  C500  1  0.785800  0.425900  0.284500  1
  C  C501  1  0.174200  0.466300  0.739700  1
  C  C502  1  0.825800  0.533700  0.260300  1
  C  C503  1  0.080200  0.564800  0.760000  1
  C  C504  1  0.919800  0.435200  0.240000  1
  C  C505  1  0.386000  0.260200  0.794200  1
  C  C506  1  0.614000  0.739800  0.205800  1
  C  C507  1  0.255600  0.196500  0.813200  1
  C  C508  1  0.744400  0.803500  0.186800  1
  C  C509  1  0.262700  0.291700  0.750300  1
  C  C510  1  0.737300  0.708300  0.249700  1
  N  N511  1  0.059910  0.299640  0.216570  1
  N  N512  1  0.940090  0.700360  0.783430  1
  N  N513  1  0.102500  0.403090  0.360330  1
  N  N514  1  0.897500  0.596910  0.639670  1
  N  N515  1  0.231940  0.466540  0.140440  1
  N  N516  1  0.768060  0.533460  0.859560  1
  N  N517  1  0.251280  0.584520  0.280490  1
  N  N518  1  0.748720  0.415480  0.719510  1
  N  N519  1  0.138130  0.219910  0.326540  1
  N  N520  1  0.861870  0.780090  0.673460  1
  N  N521  1  0.410410  0.544620  0.225820  1
  N  N522  1  0.589590  0.455380  0.774180  1
  Cl  Cl523  1  0.317430  0.408060  0.491780  1
  Cl  Cl524  1  0.682570  0.591940  0.508220  1
  Cl  Cl525  1  0.377770  0.521450  0.415220  1
  Cl  Cl526  1  0.622230  0.478550  0.584780  1
  O  O527  1  0.967860  0.189140  0.250440  1
  O  O528  1  0.032140  0.810860  0.749560  1
  O  O529  1  0.998390  0.315240  0.405930  1
  O  O530  1  0.001610  0.684760  0.594070  1
  O  O531  1  0.309350  0.563490  0.084670  1
  O  O532  1  0.690650  0.436510  0.915330  1
  O  O533  1  0.321350  0.695930  0.233240  1
  O  O534  1  0.678650  0.304070  0.766760  1
