# generated using pymatgen
data_K3NdH42Ru2C56N16O13
_symmetry_space_group_name_H-M   'P 1'
_cell_length_a   14.36000000
_cell_length_b   17.31220000
_cell_length_c   27.93870000
_cell_angle_alpha   90.00000000
_cell_angle_beta   90.00000000
_cell_angle_gamma   100.94900000
_symmetry_Int_Tables_number   1
_chemical_formula_structural   K3NdH42Ru2C56N16O13
_chemical_formula_sum   'K12 Nd4 H168 Ru8 C224 N64 O52'
_cell_volume   6819.21581248
_cell_formula_units_Z   4
loop_
 _symmetry_equiv_pos_site_id
 _symmetry_equiv_pos_as_xyz
  1  'x, y, z'
loop_
 _atom_site_type_symbol
 _atom_site_label
 _atom_site_symmetry_multiplicity
 _atom_site_fract_x
 _atom_site_fract_y
 _atom_site_fract_z
 _atom_site_occupancy
  K  K1  1  0.868300  0.914100  0.991610  1
  K  K2  1  0.131700  0.585900  0.491610  1
  K  K3  1  0.131700  0.085900  0.008390  1
  K  K4  1  0.868300  0.414100  0.508390  1
  K  K5  1  0.909300  0.997200  0.009980  1
  K  K6  1  0.090700  0.502800  0.509980  1
  K  K7  1  0.090700  0.002800  0.990020  1
  K  K8  1  0.909300  0.497200  0.490020  1
  K  K9  1  0.987600  0.074200  0.990000  1
  K  K10  1  0.012400  0.425800  0.490000  1
  K  K11  1  0.012400  0.925800  0.010000  1
  K  K12  1  0.987600  0.574200  0.510000  1
  Nd  Nd13  1  0.264300  0.647340  0.979518  1.0
  Nd  Nd14  1  0.735700  0.852660  0.479518  1.0
  Nd  Nd15  1  0.735700  0.352660  0.020482  1.0
  Nd  Nd16  1  0.264300  0.147340  0.520482  1.0
  H  H17  1  0.950600  0.161100  0.483400  1
  H  H18  1  0.049400  0.338900  0.983400  1
  H  H19  1  0.049400  0.838900  0.516600  1
  H  H20  1  0.950600  0.661100  0.016600  1
  H  H21  1  0.011300  0.114500  0.499300  1
  H  H22  1  0.988700  0.385500  0.999300  1
  H  H23  1  0.988700  0.885500  0.500700  1
  H  H24  1  0.011300  0.614500  0.000700  1
  H  H25  1  0.331400  0.314200  0.790800  1
  H  H26  1  0.668600  0.185800  0.290800  1
  H  H27  1  0.668600  0.685800  0.209200  1
  H  H28  1  0.331400  0.814200  0.709200  1
  H  H29  1  0.271700  0.274800  0.819900  1
  H  H30  1  0.728300  0.225200  0.319900  1
  H  H31  1  0.728300  0.725200  0.180100  1
  H  H32  1  0.271700  0.774800  0.680100  1
  H  H33  1  0.196200  0.383000  0.795000  1
  H  H34  1  0.803800  0.117000  0.295000  1
  H  H35  1  0.803800  0.617000  0.205000  1
  H  H36  1  0.196200  0.883000  0.705000  1
  H  H37  1  0.141600  0.417200  0.818100  1
  H  H38  1  0.858400  0.082800  0.318100  1
  H  H39  1  0.858400  0.582800  0.181900  1
  H  H40  1  0.141600  0.917200  0.681900  1
  H  H41  1  0.073800  0.763900  0.620900  1
  H  H42  1  0.926200  0.736100  0.120900  1
  H  H43  1  0.926200  0.236100  0.379100  1
  H  H44  1  0.073800  0.263900  0.879100  1
  H  H45  1  0.992600  0.752400  0.585100  1
  H  H46  1  0.007400  0.747600  0.085100  1
  H  H47  1  0.007400  0.247600  0.414900  1
  H  H48  1  0.992600  0.252400  0.914900  1
  H  H49  1  0.726100  0.423100  0.865200  1.0
  H  H50  1  0.273900  0.076900  0.365200  1.0
  H  H51  1  0.273900  0.576900  0.134800  1.0
  H  H52  1  0.726100  0.923100  0.634800  1.0
  H  H53  1  0.618900  0.383200  0.804200  1.0
  H  H54  1  0.381100  0.116800  0.304200  1.0
  H  H55  1  0.381100  0.616800  0.195800  1.0
  H  H56  1  0.618900  0.883200  0.695800  1.0
  H  H57  1  0.648800  0.431200  0.727800  1.0
  H  H58  1  0.351200  0.068800  0.227800  1.0
  H  H59  1  0.351200  0.568800  0.272200  1.0
  H  H60  1  0.648800  0.931200  0.772200  1.0
  H  H61  1  0.759100  0.526400  0.672000  1.0
  H  H62  1  0.240900  0.973600  0.172000  1.0
  H  H63  1  0.240900  0.473600  0.328000  1.0
  H  H64  1  0.759100  0.026400  0.828000  1.0
  H  H65  1  0.894600  0.612300  0.659900  1.0
  H  H66  1  0.105400  0.887700  0.159900  1.0
  H  H67  1  0.105400  0.387700  0.340100  1.0
  H  H68  1  0.894600  0.112300  0.840100  1.0
  H  H69  1  0.048800  0.696200  0.695900  1.0
  H  H70  1  0.951200  0.803800  0.195900  1.0
  H  H71  1  0.951200  0.303800  0.304100  1.0
  H  H72  1  0.048800  0.196200  0.804100  1.0
  H  H73  1  0.147400  0.723400  0.761700  1.0
  H  H74  1  0.852600  0.776600  0.261700  1.0
  H  H75  1  0.852600  0.276600  0.238300  1.0
  H  H76  1  0.147400  0.223400  0.738300  1.0
  H  H77  1  0.110300  0.653200  0.832700  1.0
  H  H78  1  0.889700  0.846800  0.332700  1.0
  H  H79  1  0.889700  0.346800  0.167300  1.0
  H  H80  1  0.110300  0.153200  0.667300  1.0
  H  H81  1  0.179600  0.455000  0.947000  1.0
  H  H82  1  0.820400  0.045000  0.447000  1.0
  H  H83  1  0.820400  0.545000  0.053000  1.0
  H  H84  1  0.179600  0.955000  0.553000  1.0
  H  H85  1  0.215900  0.342300  0.912200  1.0
  H  H86  1  0.784100  0.157700  0.412200  1.0
  H  H87  1  0.784100  0.657700  0.087800  1.0
  H  H88  1  0.215900  0.842300  0.587800  1.0
  H  H89  1  0.369600  0.334700  0.897700  1.0
  H  H90  1  0.630400  0.165300  0.397700  1.0
  H  H91  1  0.630400  0.665300  0.102300  1.0
  H  H92  1  0.369600  0.834700  0.602300  1.0
  H  H93  1  0.546200  0.397100  0.905300  1.0
  H  H94  1  0.453800  0.102900  0.405300  1.0
  H  H95  1  0.453800  0.602900  0.094700  1.0
  H  H96  1  0.546200  0.897100  0.594700  1.0
  H  H97  1  0.659500  0.498300  0.927700  1.0
  H  H98  1  0.340500  0.001700  0.427700  1.0
  H  H99  1  0.340500  0.501700  0.072300  1.0
  H  H100  1  0.659500  0.998300  0.572300  1.0
  H  H101  1  0.705800  0.638300  0.957100  1.0
  H  H102  1  0.294200  0.861700  0.457100  1.0
  H  H103  1  0.294200  0.361700  0.042900  1.0
  H  H104  1  0.705800  0.138300  0.542900  1.0
  H  H105  1  0.657300  0.750800  0.988200  1.0
  H  H106  1  0.342700  0.749200  0.488200  1.0
  H  H107  1  0.342700  0.249200  0.011800  1.0
  H  H108  1  0.657300  0.250800  0.511800  1.0
  H  H109  1  0.495900  0.749300  0.998100  1.0
  H  H110  1  0.504100  0.750700  0.498100  1.0
  H  H111  1  0.504100  0.250700  0.001900  1.0
  H  H112  1  0.495900  0.249300  0.501900  1.0
  H  H113  1  0.238300  0.565700  0.863900  1.0
  H  H114  1  0.761700  0.934300  0.363900  1.0
  H  H115  1  0.761700  0.434300  0.136100  1.0
  H  H116  1  0.238300  0.065700  0.636100  1.0
  H  H117  1  0.287800  0.580800  0.783500  1.0
  H  H118  1  0.712200  0.919200  0.283500  1.0
  H  H119  1  0.712200  0.419200  0.216500  1.0
  H  H120  1  0.287800  0.080800  0.716500  1.0
  H  H121  1  0.397100  0.691800  0.761500  1.0
  H  H122  1  0.602900  0.808200  0.261500  1.0
  H  H123  1  0.602900  0.308200  0.238500  1.0
  H  H124  1  0.397100  0.191800  0.738500  1.0
  H  H125  1  0.499100  0.823000  0.785000  1.0
  H  H126  1  0.500900  0.677000  0.285000  1.0
  H  H127  1  0.500900  0.177000  0.215000  1.0
  H  H128  1  0.499100  0.323000  0.715000  1.0
  H  H129  1  0.537200  0.919500  0.840700  1.0
  H  H130  1  0.462800  0.580500  0.340700  1.0
  H  H131  1  0.462800  0.080500  0.159300  1.0
  H  H132  1  0.537200  0.419500  0.659300  1.0
  H  H133  1  0.503000  0.979200  0.921500  1.0
  H  H134  1  0.497000  0.520800  0.421500  1.0
  H  H135  1  0.497000  0.020800  0.078500  1.0
  H  H136  1  0.503000  0.479200  0.578500  1.0
  H  H137  1  0.422900  0.962600  0.993900  1.0
  H  H138  1  0.577100  0.537400  0.493900  1.0
  H  H139  1  0.577100  0.037400  0.006100  1.0
  H  H140  1  0.422900  0.462600  0.506100  1.0
  H  H141  1  0.327900  0.842900  0.011700  1.0
  H  H142  1  0.672100  0.657100  0.511700  1.0
  H  H143  1  0.672100  0.157100  0.988300  1.0
  H  H144  1  0.327900  0.342900  0.488300  1.0
  H  H145  1  0.221600  0.720600  0.151300  1.0
  H  H146  1  0.778400  0.779400  0.651300  1.0
  H  H147  1  0.778400  0.279400  0.848700  1.0
  H  H148  1  0.221600  0.220600  0.348700  1.0
  H  H149  1  0.120400  0.691800  0.217300  1.0
  H  H150  1  0.879600  0.808200  0.717300  1.0
  H  H151  1  0.879600  0.308200  0.782700  1.0
  H  H152  1  0.120400  0.191800  0.282700  1.0
  H  H153  1  0.167200  0.752700  0.291400  1.0
  H  H154  1  0.832800  0.747300  0.791400  1.0
  H  H155  1  0.832800  0.247300  0.708600  1.0
  H  H156  1  0.167200  0.252700  0.208600  1.0
  H  H157  1  0.291500  0.849100  0.341700  1.0
  H  H158  1  0.708500  0.650900  0.841700  1.0
  H  H159  1  0.708500  0.150900  0.658300  1.0
  H  H160  1  0.291500  0.349100  0.158300  1.0
  H  H161  1  0.429000  0.935600  0.342900  1.0
  H  H162  1  0.571000  0.564400  0.842900  1.0
  H  H163  1  0.571000  0.064400  0.657100  1.0
  H  H164  1  0.429000  0.435600  0.157100  1.0
  H  H165  1  0.560500  0.022000  0.297800  1.0
  H  H166  1  0.439500  0.478000  0.797800  1.0
  H  H167  1  0.439500  0.978000  0.702200  1.0
  H  H168  1  0.560500  0.522000  0.202200  1.0
  H  H169  1  0.648200  0.041400  0.228200  1.0
  H  H170  1  0.351800  0.458600  0.728200  1.0
  H  H171  1  0.351800  0.958600  0.771800  1.0
  H  H172  1  0.648200  0.541400  0.271800  1.0
  H  H173  1  0.599600  0.967700  0.160400  1.0
  H  H174  1  0.400400  0.532300  0.660400  1.0
  H  H175  1  0.400400  0.032300  0.839600  1.0
  H  H176  1  0.599600  0.467700  0.339600  1.0
  H  H177  1  0.187600  0.757000  0.018900  1.0
  H  H178  1  0.812400  0.743000  0.518900  1.0
  H  H179  1  0.812400  0.243000  0.981100  1.0
  H  H180  1  0.187600  0.257000  0.481100  1.0
  H  H181  1  0.106600  0.715300  0.021800  1.0
  H  H182  1  0.893400  0.784700  0.521800  1.0
  H  H183  1  0.893400  0.284700  0.978200  1.0
  H  H184  1  0.106600  0.215300  0.478200  1.0
  Ru  Ru185  1  0.931840  0.535620  0.876120  1.0
  Ru  Ru186  1  0.068160  0.964380  0.376120  1.0
  Ru  Ru187  1  0.068160  0.464380  0.123880  1.0
  Ru  Ru188  1  0.931840  0.035620  0.623880  1.0
  Ru  Ru189  1  0.429500  0.823860  0.132380  1.0
  Ru  Ru190  1  0.570500  0.676140  0.632380  1.0
  Ru  Ru191  1  0.570500  0.176140  0.867620  1.0
  Ru  Ru192  1  0.429500  0.323860  0.367620  1.0
  C  C193  1  0.740100  0.443800  0.834000  1.0
  C  C194  1  0.259900  0.056200  0.334000  1.0
  C  C195  1  0.259900  0.556200  0.166000  1.0
  C  C196  1  0.740100  0.943800  0.666000  1.0
  C  C197  1  0.675600  0.419800  0.797600  1.0
  C  C198  1  0.324400  0.080200  0.297600  1.0
  C  C199  1  0.324400  0.580200  0.202400  1.0
  C  C200  1  0.675600  0.919800  0.702400  1.0
  C  C201  1  0.693000  0.448200  0.752700  1.0
  C  C202  1  0.307000  0.051800  0.252700  1.0
  C  C203  1  0.307000  0.551800  0.247300  1.0
  C  C204  1  0.693000  0.948200  0.747300  1.0
  C  C205  1  0.776100  0.502600  0.742800  1.0
  C  C206  1  0.223900  0.997400  0.242800  1.0
  C  C207  1  0.223900  0.497400  0.257200  1.0
  C  C208  1  0.776100  0.002600  0.757200  1.0
  C  C209  1  0.801600  0.539200  0.698100  1.0
  C  C210  1  0.198400  0.960800  0.198100  1.0
  C  C211  1  0.198400  0.460800  0.301900  1.0
  C  C212  1  0.801600  0.039200  0.801900  1.0
  C  C213  1  0.881400  0.590300  0.690800  1.0
  C  C214  1  0.118600  0.909700  0.190800  1.0
  C  C215  1  0.118600  0.409700  0.309200  1.0
  C  C216  1  0.881400  0.090300  0.809200  1.0
  C  C217  1  0.949100  0.613200  0.729000  1.0
  C  C218  1  0.050900  0.886800  0.229000  1.0
  C  C219  1  0.050900  0.386800  0.271000  1.0
  C  C220  1  0.949100  0.113200  0.771000  1.0
  C  C221  1  0.032700  0.669200  0.725300  1.0
  C  C222  1  0.967300  0.830800  0.225300  1.0
  C  C223  1  0.967300  0.330800  0.274700  1.0
  C  C224  1  0.032700  0.169200  0.774700  1.0
  C  C225  1  0.090800  0.684900  0.763800  1.0
  C  C226  1  0.909200  0.815100  0.263800  1.0
  C  C227  1  0.909200  0.315100  0.236200  1.0
  C  C228  1  0.090800  0.184900  0.736200  1.0
  C  C229  1  0.067000  0.644100  0.806700  1.0
  C  C230  1  0.933000  0.855900  0.306700  1.0
  C  C231  1  0.933000  0.355900  0.193300  1.0
  C  C232  1  0.067000  0.144100  0.693300  1.0
  C  C233  1  0.926400  0.577700  0.774100  1.0
  C  C234  1  0.073600  0.922300  0.274100  1.0
  C  C235  1  0.073600  0.422300  0.225900  1.0
  C  C236  1  0.926400  0.077700  0.725900  1.0
  C  C237  1  0.840000  0.524000  0.781200  1.0
  C  C238  1  0.160000  0.976000  0.281200  1.0
  C  C239  1  0.160000  0.476000  0.218800  1.0
  C  C240  1  0.840000  0.024000  0.718800  1.0
  C  C241  1  0.045000  0.572900  0.914600  1.0
  C  C242  1  0.955000  0.927100  0.414600  1.0
  C  C243  1  0.955000  0.427100  0.085400  1.0
  C  C244  1  0.045000  0.072900  0.585400  1.0
  C  C245  1  0.986100  0.436700  0.861600  1.0
  C  C246  1  0.013900  0.063300  0.361600  1.0
  C  C247  1  0.013900  0.563300  0.138400  1.0
  C  C248  1  0.986100  0.936700  0.638400  1.0
  C  C249  1  0.882800  0.635700  0.892800  1.0
  C  C250  1  0.117200  0.864300  0.392800  1.0
  C  C251  1  0.117200  0.364300  0.107200  1.0
  C  C252  1  0.882800  0.135700  0.607200  1.0
  C  C253  1  0.865100  0.482800  0.932000  1.0
  C  C254  1  0.134900  0.017200  0.432000  1.0
  C  C255  1  0.134900  0.517200  0.068000  1.0
  C  C256  1  0.865100  0.982800  0.568000  1.0
  C  C257  1  0.244100  0.453400  0.940200  1.0
  C  C258  1  0.755900  0.046600  0.440200  1.0
  C  C259  1  0.755900  0.546600  0.059800  1.0
  C  C260  1  0.244100  0.953400  0.559800  1.0
  C  C261  1  0.265200  0.385200  0.920000  1.0
  C  C262  1  0.734800  0.114800  0.420000  1.0
  C  C263  1  0.734800  0.614800  0.080000  1.0
  C  C264  1  0.265200  0.885200  0.580000  1.0
  C  C265  1  0.355300  0.381000  0.911800  1.0
  C  C266  1  0.644700  0.119000  0.411800  1.0
  C  C267  1  0.644700  0.619000  0.088200  1.0
  C  C268  1  0.355300  0.881000  0.588200  1.0
  C  C269  1  0.429800  0.443000  0.923500  1.0
  C  C270  1  0.570200  0.057000  0.423500  1.0
  C  C271  1  0.570200  0.557000  0.076500  1.0
  C  C272  1  0.429800  0.943000  0.576500  1.0
  C  C273  1  0.527700  0.442600  0.918300  1.0
  C  C274  1  0.472300  0.057400  0.418300  1.0
  C  C275  1  0.472300  0.557400  0.081700  1.0
  C  C276  1  0.527700  0.942600  0.581700  1.0
  C  C277  1  0.594800  0.502500  0.930800  1.0
  C  C278  1  0.405200  0.997500  0.430800  1.0
  C  C279  1  0.405200  0.497500  0.069200  1.0
  C  C280  1  0.594800  0.002500  0.569200  1.0
  C  C281  1  0.570800  0.574000  0.949000  1.0
  C  C282  1  0.429200  0.926000  0.449000  1.0
  C  C283  1  0.429200  0.426000  0.051000  1.0
  C  C284  1  0.570800  0.074000  0.551000  1.0
  C  C285  1  0.640400  0.639400  0.961200  1.0
  C  C286  1  0.359600  0.860600  0.461200  1.0
  C  C287  1  0.359600  0.360600  0.038800  1.0
  C  C288  1  0.640400  0.139400  0.538800  1.0
  C  C289  1  0.612000  0.705600  0.979500  1.0
  C  C290  1  0.388000  0.794400  0.479500  1.0
  C  C291  1  0.388000  0.294400  0.020500  1.0
  C  C292  1  0.612000  0.205600  0.520500  1.0
  C  C293  1  0.514700  0.704100  0.984800  1.0
  C  C294  1  0.485300  0.795900  0.484800  1.0
  C  C295  1  0.485300  0.295900  0.015200  1.0
  C  C296  1  0.514700  0.204100  0.515200  1.0
  C  C297  1  0.475000  0.579100  0.954800  1.0
  C  C298  1  0.525000  0.920900  0.454800  1.0
  C  C299  1  0.525000  0.420900  0.045200  1.0
  C  C300  1  0.475000  0.079100  0.545200  1.0
  C  C301  1  0.402600  0.512700  0.942900  1.0
  C  C302  1  0.597400  0.987300  0.442900  1.0
  C  C303  1  0.597400  0.487300  0.057100  1.0
  C  C304  1  0.402600  0.012700  0.557100  1.0
  C  C305  1  0.280100  0.612700  0.854600  1.0
  C  C306  1  0.719900  0.887300  0.354600  1.0
  C  C307  1  0.719900  0.387300  0.145400  1.0
  C  C308  1  0.280100  0.112700  0.645400  1.0
  C  C309  1  0.310800  0.620600  0.806300  1.0
  C  C310  1  0.689200  0.879400  0.306300  1.0
  C  C311  1  0.689200  0.379400  0.193700  1.0
  C  C312  1  0.310800  0.120600  0.693700  1.0
  C  C313  1  0.373600  0.686100  0.793300  1.0
  C  C314  1  0.626400  0.813900  0.293300  1.0
  C  C315  1  0.626400  0.313900  0.206700  1.0
  C  C316  1  0.373600  0.186100  0.706700  1.0
  C  C317  1  0.403300  0.745200  0.827100  1.0
  C  C318  1  0.596700  0.754800  0.327100  1.0
  C  C319  1  0.596700  0.254800  0.172900  1.0
  C  C320  1  0.403300  0.245200  0.672900  1.0
  C  C321  1  0.470500  0.816700  0.815700  1.0
  C  C322  1  0.529500  0.683300  0.315700  1.0
  C  C323  1  0.529500  0.183300  0.184300  1.0
  C  C324  1  0.470500  0.316700  0.684300  1.0
  C  C325  1  0.492100  0.873700  0.848500  1.0
  C  C326  1  0.507900  0.626300  0.348500  1.0
  C  C327  1  0.507900  0.126300  0.151500  1.0
  C  C328  1  0.492100  0.373700  0.651500  1.0
  C  C329  1  0.449200  0.867600  0.895000  1.0
  C  C330  1  0.550800  0.632400  0.395000  1.0
  C  C331  1  0.550800  0.132400  0.105000  1.0
  C  C332  1  0.449200  0.367600  0.605000  1.0
  C  C333  1  0.462300  0.930700  0.928800  1.0
  C  C334  1  0.537700  0.569300  0.428800  1.0
  C  C335  1  0.537700  0.069300  0.071200  1.0
  C  C336  1  0.462300  0.430700  0.571200  1.0
  C  C337  1  0.416100  0.920800  0.971400  1.0
  C  C338  1  0.583900  0.579200  0.471400  1.0
  C  C339  1  0.583900  0.079200  0.028600  1.0
  C  C340  1  0.416100  0.420800  0.528600  1.0
  C  C341  1  0.358800  0.849000  0.981500  1.0
  C  C342  1  0.641200  0.651000  0.481500  1.0
  C  C343  1  0.641200  0.151000  0.018500  1.0
  C  C344  1  0.358800  0.349000  0.518500  1.0
  C  C345  1  0.387700  0.797000  0.907800  1.0
  C  C346  1  0.612300  0.703000  0.407800  1.0
  C  C347  1  0.612300  0.203000  0.092200  1.0
  C  C348  1  0.387700  0.297000  0.592200  1.0
  C  C349  1  0.366900  0.735100  0.873900  1.0
  C  C350  1  0.633100  0.764900  0.373900  1.0
  C  C351  1  0.633100  0.264900  0.126100  1.0
  C  C352  1  0.366900  0.235100  0.626100  1.0
  C  C353  1  0.239900  0.744700  0.181300  1.0
  C  C354  1  0.760100  0.755300  0.681300  1.0
  C  C355  1  0.760100  0.255300  0.818700  1.0
  C  C356  1  0.239900  0.244700  0.318700  1.0
  C  C357  1  0.179200  0.727400  0.220300  1.0
  C  C358  1  0.820800  0.772600  0.720300  1.0
  C  C359  1  0.820800  0.272600  0.779700  1.0
  C  C360  1  0.179200  0.227400  0.279700  1.0
  C  C361  1  0.207300  0.764400  0.264300  1.0
  C  C362  1  0.792700  0.735600  0.764300  1.0
  C  C363  1  0.792700  0.235600  0.735700  1.0
  C  C364  1  0.207300  0.264400  0.235700  1.0
  C  C365  1  0.290000  0.816000  0.268800  1.0
  C  C366  1  0.710000  0.684000  0.768800  1.0
  C  C367  1  0.710000  0.184000  0.731200  1.0
  C  C368  1  0.290000  0.316000  0.231200  1.0
  C  C369  1  0.326900  0.859200  0.312900  1.0
  C  C370  1  0.673100  0.640800  0.812900  1.0
  C  C371  1  0.673100  0.140800  0.687100  1.0
  C  C372  1  0.326900  0.359200  0.187100  1.0
  C  C373  1  0.407200  0.911100  0.313500  1.0
  C  C374  1  0.592800  0.588900  0.813500  1.0
  C  C375  1  0.592800  0.088900  0.686500  1.0
  C  C376  1  0.407200  0.411100  0.186500  1.0
  C  C377  1  0.459600  0.930500  0.273100  1.0
  C  C378  1  0.540400  0.569500  0.773100  1.0
  C  C379  1  0.540400  0.069500  0.726900  1.0
  C  C380  1  0.459600  0.430500  0.226900  1.0
  C  C381  1  0.541000  0.990100  0.270600  1.0
  C  C382  1  0.459000  0.509900  0.770600  1.0
  C  C383  1  0.459000  0.009900  0.729400  1.0
  C  C384  1  0.541000  0.490100  0.229400  1.0
  C  C385  1  0.592100  0.002300  0.229300  1.0
  C  C386  1  0.407900  0.497700  0.729300  1.0
  C  C387  1  0.407900  0.997700  0.770700  1.0
  C  C388  1  0.592100  0.502300  0.270700  1.0
  C  C389  1  0.562800  0.957900  0.188700  1.0
  C  C390  1  0.437200  0.542100  0.688700  1.0
  C  C391  1  0.437200  0.042100  0.811300  1.0
  C  C392  1  0.562800  0.457900  0.311300  1.0
  C  C393  1  0.434000  0.889200  0.229100  1.0
  C  C394  1  0.566000  0.610800  0.729100  1.0
  C  C395  1  0.566000  0.110800  0.770900  1.0
  C  C396  1  0.434000  0.389200  0.270900  1.0
  C  C397  1  0.345900  0.830200  0.228300  1.0
  C  C398  1  0.654100  0.669800  0.728300  1.0
  C  C399  1  0.654100  0.169800  0.771700  1.0
  C  C400  1  0.345900  0.330200  0.271700  1.0
  C  C401  1  0.370200  0.746300  0.085300  1.0
  C  C402  1  0.629800  0.753700  0.585300  1.0
  C  C403  1  0.629800  0.253700  0.914700  1.0
  C  C404  1  0.370200  0.246300  0.414700  1.0
  C  C405  1  0.356800  0.903200  0.104300  1.0
  C  C406  1  0.643200  0.596800  0.604300  1.0
  C  C407  1  0.643200  0.096800  0.895700  1.0
  C  C408  1  0.356800  0.403200  0.395700  1.0
  C  C409  1  0.534500  0.859000  0.087100  1.0
  C  C410  1  0.465500  0.641000  0.587100  1.0
  C  C411  1  0.465500  0.141000  0.912900  1.0
  C  C412  1  0.534500  0.359000  0.412900  1.0
  C  C413  1  0.501000  0.746600  0.163500  1.0
  C  C414  1  0.499000  0.753400  0.663500  1.0
  C  C415  1  0.499000  0.253400  0.836500  1.0
  C  C416  1  0.501000  0.246600  0.336500  1.0
  N  N417  1  0.821400  0.495000  0.827100  1.0
  N  N418  1  0.178600  0.005000  0.327100  1.0
  N  N419  1  0.178600  0.505000  0.172900  1.0
  N  N420  1  0.821400  0.995000  0.672900  1.0
  N  N421  1  0.987000  0.593600  0.812300  1.0
  N  N422  1  0.013000  0.906400  0.312300  1.0
  N  N423  1  0.013000  0.406400  0.187700  1.0
  N  N424  1  0.987000  0.093600  0.687700  1.0
  N  N425  1  0.116000  0.595100  0.935000  1.0
  N  N426  1  0.884000  0.904900  0.435000  1.0
  N  N427  1  0.884000  0.404900  0.065000  1.0
  N  N428  1  0.116000  0.095100  0.565000  1.0
  N  N429  1  0.015800  0.380000  0.855700  1.0
  N  N430  1  0.984200  0.120000  0.355700  1.0
  N  N431  1  0.984200  0.620000  0.144300  1.0
  N  N432  1  0.015800  0.880000  0.644300  1.0
  N  N433  1  0.859200  0.692800  0.902200  1.0
  N  N434  1  0.140800  0.807200  0.402200  1.0
  N  N435  1  0.140800  0.307200  0.097800  1.0
  N  N436  1  0.859200  0.192800  0.597800  1.0
  N  N437  1  0.310100  0.516900  0.950600  1.0
  N  N438  1  0.689900  0.983100  0.450600  1.0
  N  N439  1  0.689900  0.483100  0.049400  1.0
  N  N440  1  0.310100  0.016900  0.549400  1.0
  N  N441  1  0.447400  0.644300  0.972510  1.0
  N  N442  1  0.552600  0.855700  0.472510  1.0
  N  N443  1  0.552600  0.355700  0.027490  1.0
  N  N444  1  0.447400  0.144300  0.527490  1.0
  N  N445  1  0.333300  0.700600  0.056800  1.0
  N  N446  1  0.666700  0.799400  0.556800  1.0
  N  N447  1  0.666700  0.299400  0.943200  1.0
  N  N448  1  0.333300  0.200600  0.443200  1.0
  N  N449  1  0.307000  0.667600  0.887400  1.0
  N  N450  1  0.693000  0.832400  0.387400  1.0
  N  N451  1  0.693000  0.332400  0.112600  1.0
  N  N452  1  0.307000  0.167600  0.612600  1.0
  N  N453  1  0.322400  0.793700  0.184900  1.0
  N  N454  1  0.677600  0.706300  0.684900  1.0
  N  N455  1  0.677600  0.206300  0.815100  1.0
  N  N456  1  0.322400  0.293700  0.315100  1.0
  N  N457  1  0.485100  0.902300  0.188300  1.0
  N  N458  1  0.514900  0.597700  0.688300  1.0
  N  N459  1  0.514900  0.097700  0.811700  1.0
  N  N460  1  0.485100  0.402300  0.311700  1.0
  N  N461  1  0.312700  0.947900  0.087900  1.0
  N  N462  1  0.687300  0.552100  0.587900  1.0
  N  N463  1  0.687300  0.052100  0.912100  1.0
  N  N464  1  0.312700  0.447900  0.412100  1.0
  N  N465  1  0.540600  0.704300  0.183300  1.0
  N  N466  1  0.459400  0.795700  0.683300  1.0
  N  N467  1  0.459400  0.295700  0.816700  1.0
  N  N468  1  0.540600  0.204300  0.316700  1.0
  N  N469  1  0.344000  0.787300  0.951500  1.0
  N  N470  1  0.656000  0.712700  0.451500  1.0
  N  N471  1  0.656000  0.212700  0.048500  1.0
  N  N472  1  0.344000  0.287300  0.548500  1.0
  N  N473  1  0.598000  0.880200  0.061200  1.0
  N  N474  1  0.402000  0.619800  0.561200  1.0
  N  N475  1  0.402000  0.119800  0.938800  1.0
  N  N476  1  0.598000  0.380200  0.438800  1.0
  N  N477  1  0.178900  0.550400  0.036300  1.0
  N  N478  1  0.821100  0.949600  0.536300  1.0
  N  N479  1  0.821100  0.449600  0.963700  1.0
  N  N480  1  0.178900  0.050400  0.463700  1.0
  O  O481  1  0.863600  0.150300  0.943400  1
  O  O482  1  0.136400  0.349700  0.443400  1
  O  O483  1  0.136400  0.849700  0.056600  1
  O  O484  1  0.863600  0.650300  0.556600  1
  O  O485  1  0.887600  0.763800  0.999100  1
  O  O486  1  0.112400  0.736200  0.499100  1
  O  O487  1  0.112400  0.236200  0.000900  1
  O  O488  1  0.887600  0.263800  0.500900  1
  O  O489  1  0.785400  0.308400  0.362900  1
  O  O490  1  0.214600  0.191600  0.862900  1
  O  O491  1  0.214600  0.691600  0.637100  1
  O  O492  1  0.785400  0.808400  0.137100  1
  O  O493  1  0.975000  0.121600  0.476400  1
  O  O494  1  0.025000  0.378400  0.976400  1
  O  O495  1  0.025000  0.878400  0.523600  1
  O  O496  1  0.975000  0.621600  0.023600  1
  O  O497  1  0.271700  0.299800  0.793700  1
  O  O498  1  0.728300  0.200200  0.293700  1
  O  O499  1  0.728300  0.700200  0.206300  1
  O  O500  1  0.271700  0.799800  0.706300  1
  O  O501  1  0.191700  0.430300  0.800900  1
  O  O502  1  0.808300  0.069700  0.300900  1
  O  O503  1  0.808300  0.569700  0.199100  1
  O  O504  1  0.191700  0.930300  0.699100  1
  O  O505  1  0.110900  0.443600  0.715500  1
  O  O506  1  0.889100  0.056400  0.215500  1
  O  O507  1  0.889100  0.556400  0.284500  1
  O  O508  1  0.110900  0.943600  0.784500  1
  O  O509  1  0.029500  0.736000  0.604900  1
  O  O510  1  0.970500  0.764000  0.104900  1
  O  O511  1  0.970500  0.264000  0.395100  1
  O  O512  1  0.029500  0.236000  0.895100  1
  O  O513  1  0.727600  0.842200  0.876400  1
  O  O514  1  0.272400  0.657800  0.376400  1
  O  O515  1  0.272400  0.157800  0.123600  1
  O  O516  1  0.727600  0.342200  0.623600  1
  O  O517  1  0.715200  0.938000  0.982200  1
  O  O518  1  0.284800  0.562000  0.482200  1
  O  O519  1  0.284800  0.062000  0.017800  1
  O  O520  1  0.715200  0.438000  0.517800  1
  O  O521  1  0.016400  0.406300  0.716500  1
  O  O522  1  0.983600  0.093700  0.216500  1
  O  O523  1  0.983600  0.593700  0.283500  1
  O  O524  1  0.016400  0.906300  0.783500  1
  O  O525  1  0.830500  0.845300  0.881900  1
  O  O526  1  0.169500  0.654700  0.381900  1
  O  O527  1  0.169500  0.154700  0.118100  1
  O  O528  1  0.830500  0.345300  0.618100  1
  O  O529  1  0.150300  0.729100  0.001300  1.0
  O  O530  1  0.849700  0.770900  0.501300  1.0
  O  O531  1  0.849700  0.270900  0.998700  1.0
  O  O532  1  0.150300  0.229100  0.498700  1.0
