# generated using pymatgen
data_K3PrH44Ru2C58(N8O7)2
_symmetry_space_group_name_H-M   'P 1'
_cell_length_a   14.40000000
_cell_length_b   17.40000000
_cell_length_c   28.05000000
_cell_angle_alpha   90.00000000
_cell_angle_beta   90.00000000
_cell_angle_gamma   100.91000000
_symmetry_Int_Tables_number   1
_chemical_formula_structural   K3PrH44Ru2C58(N8O7)2
_chemical_formula_sum   'K12 Pr4 H176 Ru8 C232 N64 O56'
_cell_volume   6901.17802050
_cell_formula_units_Z   4
loop_
 _symmetry_equiv_pos_site_id
 _symmetry_equiv_pos_as_xyz
  1  'x, y, z'
loop_
 _atom_site_type_symbol
 _atom_site_label
 _atom_site_symmetry_multiplicity
 _atom_site_fract_x
 _atom_site_fract_y
 _atom_site_fract_z
 _atom_site_occupancy
  K  K1  1  0.632500  0.586500  0.991300  1
  K  K2  1  0.367500  0.913500  0.491300  1
  K  K3  1  0.367500  0.413500  0.008700  1
  K  K4  1  0.632500  0.086500  0.508700  1
  K  K5  1  0.513000  0.427400  0.990300  1
  K  K6  1  0.487000  0.072600  0.490300  1
  K  K7  1  0.487000  0.572600  0.009700  1
  K  K8  1  0.513000  0.927400  0.509700  1
  K  K9  1  0.591400  0.499800  0.010250  1
  K  K10  1  0.408600  0.000200  0.510250  1
  K  K11  1  0.408600  0.500200  0.989750  1
  K  K12  1  0.591400  0.999800  0.489750  1
  Pr  Pr13  1  0.236860  0.852100  0.979507  1.0
  Pr  Pr14  1  0.763140  0.647900  0.479507  1.0
  Pr  Pr15  1  0.763140  0.147900  0.020493  1.0
  Pr  Pr16  1  0.236860  0.352100  0.520493  1.0
  H  H17  1  0.493300  0.652700  0.772100  1
  H  H18  1  0.506700  0.847300  0.272100  1
  H  H19  1  0.506700  0.347300  0.227900  1
  H  H20  1  0.493300  0.152700  0.727900  1
  H  H21  1  0.528800  0.571700  0.764700  1
  H  H22  1  0.471200  0.928300  0.264700  1
  H  H23  1  0.471200  0.428300  0.235300  1
  H  H24  1  0.528800  0.071700  0.735300  1
  H  H25  1  0.513600  0.602500  0.817400  1
  H  H26  1  0.486400  0.897500  0.317400  1
  H  H27  1  0.486400  0.397500  0.182600  1
  H  H28  1  0.513600  0.102500  0.682600  1
  H  H29  1  0.359700  0.584400  0.801200  1
  H  H30  1  0.640300  0.915600  0.301200  1
  H  H31  1  0.640300  0.415600  0.198800  1
  H  H32  1  0.359700  0.084400  0.698800  1
  H  H33  1  0.782600  0.653600  0.840900  1
  H  H34  1  0.217400  0.846400  0.340900  1
  H  H35  1  0.217400  0.346400  0.159100  1
  H  H36  1  0.782600  0.153600  0.659100  1
  H  H37  1  0.796500  0.617700  0.892300  1
  H  H38  1  0.203500  0.882300  0.392300  1
  H  H39  1  0.203500  0.382300  0.107700  1
  H  H40  1  0.796500  0.117700  0.607700  1
  H  H41  1  0.810400  0.710500  0.885600  1
  H  H42  1  0.189600  0.789500  0.385600  1
  H  H43  1  0.189600  0.289500  0.114400  1
  H  H44  1  0.810400  0.210500  0.614400  1
  H  H45  1  0.652300  0.615500  0.901100  1
  H  H46  1  0.347700  0.884500  0.401100  1
  H  H47  1  0.347700  0.384500  0.098900  1
  H  H48  1  0.652300  0.115500  0.598900  1
  H  H49  1  0.311200  0.117000  0.796000  1
  H  H50  1  0.688800  0.383000  0.296000  1
  H  H51  1  0.688800  0.883000  0.204000  1
  H  H52  1  0.311200  0.617000  0.704000  1
  H  H53  1  0.336500  0.042400  0.783000  1
  H  H54  1  0.663500  0.457600  0.283000  1
  H  H55  1  0.663500  0.957600  0.217000  1
  H  H56  1  0.336500  0.542400  0.717000  1
  H  H57  1  0.773600  0.077600  0.865500  1.0
  H  H58  1  0.226400  0.422400  0.365500  1.0
  H  H59  1  0.226400  0.922400  0.134500  1.0
  H  H60  1  0.773600  0.577600  0.634500  1.0
  H  H61  1  0.881500  0.119100  0.804700  1.0
  H  H62  1  0.118500  0.380900  0.304700  1.0
  H  H63  1  0.118500  0.880900  0.195300  1.0
  H  H64  1  0.881500  0.619100  0.695300  1.0
  H  H65  1  0.851300  0.071200  0.728100  1.0
  H  H66  1  0.148700  0.428800  0.228100  1.0
  H  H67  1  0.148700  0.928800  0.271900  1.0
  H  H68  1  0.851300  0.571200  0.771900  1.0
  H  H69  1  0.742400  0.977300  0.671000  1.0
  H  H70  1  0.257600  0.522700  0.171000  1.0
  H  H71  1  0.257600  0.022700  0.329000  1.0
  H  H72  1  0.742400  0.477300  0.829000  1.0
  H  H73  1  0.608300  0.889400  0.659400  1.0
  H  H74  1  0.391700  0.610600  0.159400  1.0
  H  H75  1  0.391700  0.110600  0.340600  1.0
  H  H76  1  0.608300  0.389400  0.840600  1.0
  H  H77  1  0.455500  0.809400  0.693800  1.0
  H  H78  1  0.544500  0.690600  0.193800  1.0
  H  H79  1  0.544500  0.190600  0.306200  1.0
  H  H80  1  0.455500  0.309400  0.806200  1.0
  H  H81  1  0.352300  0.783400  0.758700  1.0
  H  H82  1  0.647700  0.716600  0.258700  1.0
  H  H83  1  0.647700  0.216600  0.241300  1.0
  H  H84  1  0.352300  0.283400  0.741300  1.0
  H  H85  1  0.393200  0.844900  0.831300  1.0
  H  H86  1  0.606800  0.655100  0.331300  1.0
  H  H87  1  0.606800  0.155100  0.168700  1.0
  H  H88  1  0.393200  0.344900  0.668700  1.0
  H  H89  1  0.276300  0.777000  0.152500  1.0
  H  H90  1  0.723700  0.723000  0.652500  1.0
  H  H91  1  0.723700  0.223000  0.847500  1.0
  H  H92  1  0.276300  0.277000  0.347500  1.0
  H  H93  1  0.377700  0.805400  0.218100  1.0
  H  H94  1  0.622300  0.694600  0.718100  1.0
  H  H95  1  0.622300  0.194600  0.781900  1.0
  H  H96  1  0.377700  0.305400  0.281900  1.0
  H  H97  1  0.332500  0.745400  0.291700  1.0
  H  H98  1  0.667500  0.754600  0.791700  1.0
  H  H99  1  0.667500  0.254600  0.708300  1.0
  H  H100  1  0.332500  0.245400  0.208300  1.0
  H  H101  1  0.206200  0.650200  0.342000  1.0
  H  H102  1  0.793800  0.849800  0.842000  1.0
  H  H103  1  0.793800  0.349800  0.658000  1.0
  H  H104  1  0.206200  0.150200  0.158000  1.0
  H  H105  1  0.071400  0.559100  0.341600  1.0
  H  H106  1  0.928600  0.940900  0.841600  1.0
  H  H107  1  0.928600  0.440900  0.658400  1.0
  H  H108  1  0.071400  0.059100  0.158400  1.0
  H  H109  1  0.936300  0.478100  0.296900  1.0
  H  H110  1  0.063700  0.021900  0.796900  1.0
  H  H111  1  0.063700  0.521900  0.703100  1.0
  H  H112  1  0.936300  0.978100  0.203100  1.0
  H  H113  1  0.848800  0.457800  0.227100  1.0
  H  H114  1  0.151200  0.042200  0.727100  1.0
  H  H115  1  0.151200  0.542200  0.772900  1.0
  H  H116  1  0.848800  0.957800  0.272900  1.0
  H  H117  1  0.897900  0.533800  0.159700  1.0
  H  H118  1  0.102100  0.966200  0.659700  1.0
  H  H119  1  0.102100  0.466200  0.840300  1.0
  H  H120  1  0.897900  0.033800  0.340300  1.0
  H  H121  1  0.170400  0.657300  0.011100  1.0
  H  H122  1  0.829600  0.842700  0.511100  1.0
  H  H123  1  0.829600  0.342700  0.988900  1.0
  H  H124  1  0.170400  0.157300  0.488900  1.0
  H  H125  1  0.075600  0.538100  0.993100  1.0
  H  H126  1  0.924400  0.961900  0.493100  1.0
  H  H127  1  0.924400  0.461900  0.006900  1.0
  H  H128  1  0.075600  0.038100  0.506900  1.0
  H  H129  1  0.995500  0.522700  0.920800  1.0
  H  H130  1  0.004500  0.977300  0.420800  1.0
  H  H131  1  0.004500  0.477300  0.079200  1.0
  H  H132  1  0.995500  0.022700  0.579200  1.0
  H  H133  1  0.959200  0.582700  0.840800  1.0
  H  H134  1  0.040800  0.917300  0.340800  1.0
  H  H135  1  0.040800  0.417300  0.159200  1.0
  H  H136  1  0.959200  0.082700  0.659200  1.0
  H  H137  1  0.001900  0.677200  0.784200  1.0
  H  H138  1  0.998100  0.822800  0.284200  1.0
  H  H139  1  0.998100  0.322800  0.215800  1.0
  H  H140  1  0.001900  0.177200  0.715800  1.0
  H  H141  1  0.101800  0.807700  0.761300  1.0
  H  H142  1  0.898200  0.692300  0.261300  1.0
  H  H143  1  0.898200  0.192300  0.238700  1.0
  H  H144  1  0.101800  0.307700  0.738700  1.0
  H  H145  1  0.214000  0.917200  0.783100  1.0
  H  H146  1  0.786000  0.582800  0.283100  1.0
  H  H147  1  0.786000  0.082800  0.216900  1.0
  H  H148  1  0.214000  0.417200  0.716900  1.0
  H  H149  1  0.260000  0.934000  0.863500  1.0
  H  H150  1  0.740000  0.566000  0.363500  1.0
  H  H151  1  0.740000  0.066000  0.136500  1.0
  H  H152  1  0.260000  0.434000  0.636500  1.0
  H  H153  1  0.004100  0.750800  0.998000  1.0
  H  H154  1  0.995900  0.749200  0.498000  1.0
  H  H155  1  0.995900  0.249200  0.002000  1.0
  H  H156  1  0.004100  0.250800  0.502000  1.0
  H  H157  1  0.843200  0.750100  0.989300  1.0
  H  H158  1  0.156800  0.749900  0.489300  1.0
  H  H159  1  0.156800  0.249900  0.010700  1.0
  H  H160  1  0.843200  0.250100  0.510700  1.0
  H  H161  1  0.794200  0.860900  0.957600  1.0
  H  H162  1  0.205800  0.639100  0.457600  1.0
  H  H163  1  0.205800  0.139100  0.042400  1.0
  H  H164  1  0.794200  0.360900  0.542400  1.0
  H  H165  1  0.840000  0.001900  0.927100  1.0
  H  H166  1  0.160000  0.498100  0.427100  1.0
  H  H167  1  0.160000  0.998100  0.072900  1.0
  H  H168  1  0.840000  0.501900  0.572900  1.0
  H  H169  1  0.952500  0.103300  0.905900  1.0
  H  H170  1  0.047500  0.396700  0.405900  1.0
  H  H171  1  0.047500  0.896700  0.094100  1.0
  H  H172  1  0.952500  0.603300  0.594100  1.0
  H  H173  1  0.128500  0.164400  0.897400  1.0
  H  H174  1  0.871500  0.335600  0.397400  1.0
  H  H175  1  0.871500  0.835600  0.102600  1.0
  H  H176  1  0.128500  0.664400  0.602600  1.0
  H  H177  1  0.283900  0.157400  0.912400  1.0
  H  H178  1  0.716100  0.342600  0.412400  1.0
  H  H179  1  0.716100  0.842600  0.087600  1.0
  H  H180  1  0.283900  0.657400  0.587600  1.0
  H  H181  1  0.320200  0.043300  0.945900  1.0
  H  H182  1  0.679800  0.456700  0.445900  1.0
  H  H183  1  0.679800  0.956700  0.054100  1.0
  H  H184  1  0.320200  0.543300  0.554100  1.0
  H  H185  1  0.340200  0.750700  0.029600  1.0
  H  H186  1  0.659800  0.749300  0.529600  1.0
  H  H187  1  0.659800  0.249300  0.970400  1.0
  H  H188  1  0.340200  0.250700  0.470400  1.0
  H  H189  1  0.402800  0.800200  0.007900  1.0
  H  H190  1  0.597200  0.699800  0.507900  1.0
  H  H191  1  0.597200  0.199800  0.992100  1.0
  H  H192  1  0.402800  0.300200  0.492100  1.0
  Ru  Ru193  1  0.569010  0.965400  0.875520  1.0
  Ru  Ru194  1  0.430990  0.534600  0.375520  1.0
  Ru  Ru195  1  0.430990  0.034600  0.124480  1.0
  Ru  Ru196  1  0.569010  0.465400  0.624480  1.0
  Ru  Ru197  1  0.069530  0.675180  0.131960  1.0
  Ru  Ru198  1  0.930470  0.824820  0.631960  1.0
  Ru  Ru199  1  0.930470  0.324820  0.868040  1.0
  Ru  Ru200  1  0.069530  0.175180  0.368040  1.0
  C  C201  1  0.490000  0.599600  0.784600  1
  C  C202  1  0.510000  0.900400  0.284600  1
  C  C203  1  0.510000  0.400400  0.215400  1
  C  C204  1  0.490000  0.099600  0.715400  1
  C  C205  1  0.774100  0.659800  0.875200  1
  C  C206  1  0.225900  0.840200  0.375200  1
  C  C207  1  0.225900  0.340200  0.124800  1
  C  C208  1  0.774100  0.159800  0.624800  1
  C  C209  1  0.760100  0.057600  0.834200  1.0
  C  C210  1  0.239900  0.442400  0.334200  1.0
  C  C211  1  0.239900  0.942400  0.165800  1.0
  C  C212  1  0.760100  0.557600  0.665800  1.0
  C  C213  1  0.825100  0.082600  0.798000  1.0
  C  C214  1  0.174900  0.417400  0.298000  1.0
  C  C215  1  0.174900  0.917400  0.202000  1.0
  C  C216  1  0.825100  0.582600  0.702000  1.0
  C  C217  1  0.807200  0.054300  0.752900  1.0
  C  C218  1  0.192800  0.445700  0.252900  1.0
  C  C219  1  0.192800  0.945700  0.247100  1.0
  C  C220  1  0.807200  0.554300  0.747100  1.0
  C  C221  1  0.725000  0.000800  0.743000  1.0
  C  C222  1  0.275000  0.499200  0.243000  1.0
  C  C223  1  0.275000  0.999200  0.257000  1.0
  C  C224  1  0.725000  0.500800  0.757000  1.0
  C  C225  1  0.700200  0.964000  0.697000  1.0
  C  C226  1  0.299800  0.536000  0.197000  1.0
  C  C227  1  0.299800  0.036000  0.303000  1.0
  C  C228  1  0.700200  0.464000  0.803000  1.0
  C  C229  1  0.620800  0.912500  0.690000  1.0
  C  C230  1  0.379200  0.587500  0.190000  1.0
  C  C231  1  0.379200  0.087500  0.310000  1.0
  C  C232  1  0.620800  0.412500  0.810000  1.0
  C  C233  1  0.552900  0.890700  0.727900  1.0
  C  C234  1  0.447100  0.609300  0.227900  1.0
  C  C235  1  0.447100  0.109300  0.272100  1.0
  C  C236  1  0.552900  0.390700  0.772100  1.0
  C  C237  1  0.470600  0.835800  0.723300  1.0
  C  C238  1  0.529400  0.664200  0.223300  1.0
  C  C239  1  0.529400  0.164200  0.276700  1.0
  C  C240  1  0.470600  0.335800  0.776700  1.0
  C  C241  1  0.410300  0.819700  0.761700  1.0
  C  C242  1  0.589700  0.680300  0.261700  1.0
  C  C243  1  0.589700  0.180300  0.238300  1.0
  C  C244  1  0.410300  0.319700  0.738300  1.0
  C  C245  1  0.435100  0.856900  0.805000  1.0
  C  C246  1  0.564900  0.643100  0.305000  1.0
  C  C247  1  0.564900  0.143100  0.195000  1.0
  C  C248  1  0.435100  0.356900  0.695000  1.0
  C  C249  1  0.575200  0.924500  0.773400  1.0
  C  C250  1  0.424800  0.575500  0.273400  1.0
  C  C251  1  0.424800  0.075500  0.226600  1.0
  C  C252  1  0.575200  0.424500  0.726600  1.0
  C  C253  1  0.662000  0.979000  0.781100  1.0
  C  C254  1  0.338000  0.521000  0.281100  1.0
  C  C255  1  0.338000  0.021000  0.218900  1.0
  C  C256  1  0.662000  0.479000  0.718900  1.0
  C  C257  1  0.455000  0.926800  0.913800  1.0
  C  C258  1  0.545000  0.573200  0.413800  1.0
  C  C259  1  0.545000  0.073200  0.086200  1.0
  C  C260  1  0.455000  0.426800  0.586200  1.0
  C  C261  1  0.634700  0.017800  0.931500  1.0
  C  C262  1  0.365300  0.482200  0.431500  1.0
  C  C263  1  0.365300  0.982200  0.068500  1.0
  C  C264  1  0.634700  0.517800  0.568500  1.0
  C  C265  1  0.515800  0.064000  0.862100  1.0
  C  C266  1  0.484200  0.436000  0.362100  1.0
  C  C267  1  0.484200  0.936000  0.137900  1.0
  C  C268  1  0.515800  0.564000  0.637900  1.0
  C  C269  1  0.618300  0.865500  0.891200  1.0
  C  C270  1  0.381700  0.634500  0.391200  1.0
  C  C271  1  0.381700  0.134500  0.108800  1.0
  C  C272  1  0.618300  0.365500  0.608800  1.0
  C  C273  1  0.257800  0.752600  0.182200  1.0
  C  C274  1  0.742200  0.747400  0.682200  1.0
  C  C275  1  0.742200  0.247400  0.817800  1.0
  C  C276  1  0.257800  0.252600  0.317800  1.0
  C  C277  1  0.319200  0.769900  0.221300  1.0
  C  C278  1  0.680800  0.730100  0.721300  1.0
  C  C279  1  0.680800  0.230100  0.778700  1.0
  C  C280  1  0.319200  0.269900  0.278700  1.0
  C  C281  1  0.292500  0.733900  0.264600  1.0
  C  C282  1  0.707500  0.766100  0.764600  1.0
  C  C283  1  0.707500  0.266100  0.735400  1.0
  C  C284  1  0.292500  0.233900  0.235400  1.0
  C  C285  1  0.207900  0.681200  0.268500  1.0
  C  C286  1  0.792100  0.818800  0.768500  1.0
  C  C287  1  0.792100  0.318800  0.731500  1.0
  C  C288  1  0.207900  0.181200  0.231500  1.0
  C  C289  1  0.171900  0.639000  0.313100  1.0
  C  C290  1  0.828100  0.861000  0.813100  1.0
  C  C291  1  0.828100  0.361000  0.686900  1.0
  C  C292  1  0.171900  0.139000  0.186900  1.0
  C  C293  1  0.091900  0.585600  0.312800  1.0
  C  C294  1  0.908100  0.914400  0.812800  1.0
  C  C295  1  0.908100  0.414400  0.687200  1.0
  C  C296  1  0.091900  0.085600  0.187200  1.0
  C  C297  1  0.037200  0.567300  0.271800  1.0
  C  C298  1  0.962800  0.932700  0.771800  1.0
  C  C299  1  0.962800  0.432700  0.728200  1.0
  C  C300  1  0.037200  0.067300  0.228200  1.0
  C  C301  1  0.956100  0.509300  0.269600  1.0
  C  C302  1  0.043900  0.990700  0.769600  1.0
  C  C303  1  0.043900  0.490700  0.730400  1.0
  C  C304  1  0.956100  0.009300  0.230400  1.0
  C  C305  1  0.904600  0.496900  0.228400  1.0
  C  C306  1  0.095400  0.003100  0.728400  1.0
  C  C307  1  0.095400  0.503100  0.771600  1.0
  C  C308  1  0.904600  0.996900  0.271600  1.0
  C  C309  1  0.934800  0.542400  0.187900  1.0
  C  C310  1  0.065200  0.957600  0.687900  1.0
  C  C311  1  0.065200  0.457600  0.812100  1.0
  C  C312  1  0.934800  0.042400  0.312100  1.0
  C  C313  1  0.064900  0.609900  0.228500  1.0
  C  C314  1  0.935100  0.890100  0.728500  1.0
  C  C315  1  0.935100  0.390100  0.771500  1.0
  C  C316  1  0.064900  0.109900  0.271500  1.0
  C  C317  1  0.151900  0.667300  0.227800  1.0
  C  C318  1  0.848100  0.832700  0.727800  1.0
  C  C319  1  0.848100  0.332700  0.772200  1.0
  C  C320  1  0.151900  0.167300  0.272200  1.0
  C  C321  1  0.129700  0.753100  0.085400  1.0
  C  C322  1  0.870300  0.746900  0.585400  1.0
  C  C323  1  0.870300  0.246900  0.914600  1.0
  C  C324  1  0.129700  0.253100  0.414600  1.0
  C  C325  1  0.142000  0.596100  0.103500  1.0
  C  C326  1  0.858000  0.903900  0.603500  1.0
  C  C327  1  0.858000  0.403900  0.896500  1.0
  C  C328  1  0.142000  0.096100  0.396500  1.0
  C  C329  1  0.997700  0.752700  0.163000  1.0
  C  C330  1  0.002300  0.747300  0.663000  1.0
  C  C331  1  0.002300  0.247300  0.837000  1.0
  C  C332  1  0.997700  0.252700  0.337000  1.0
  C  C333  1  0.963300  0.641300  0.086400  1.0
  C  C334  1  0.036700  0.858700  0.586400  1.0
  C  C335  1  0.036700  0.358700  0.913600  1.0
  C  C336  1  0.963300  0.141300  0.413600  1.0
  C  C337  1  0.140000  0.651400  0.980900  1.0
  C  C338  1  0.860000  0.848600  0.480900  1.0
  C  C339  1  0.860000  0.348600  0.019100  1.0
  C  C340  1  0.140000  0.151400  0.519100  1.0
  C  C341  1  0.082600  0.579800  0.970800  1.0
  C  C342  1  0.917400  0.920200  0.470800  1.0
  C  C343  1  0.917400  0.420200  0.029200  1.0
  C  C344  1  0.082600  0.079800  0.529200  1.0
  C  C345  1  0.036500  0.570700  0.928100  1.0
  C  C346  1  0.963500  0.929300  0.428100  1.0
  C  C347  1  0.963500  0.429300  0.071900  1.0
  C  C348  1  0.036500  0.070700  0.571900  1.0
  C  C349  1  0.049600  0.632600  0.894800  1.0
  C  C350  1  0.950400  0.867400  0.394800  1.0
  C  C351  1  0.950400  0.367400  0.105200  1.0
  C  C352  1  0.049600  0.132600  0.605200  1.0
  C  C353  1  0.005900  0.627400  0.848300  1.0
  C  C354  1  0.994100  0.872600  0.348300  1.0
  C  C355  1  0.994100  0.372600  0.151700  1.0
  C  C356  1  0.005900  0.127400  0.651700  1.0
  C  C357  1  0.029200  0.683900  0.815100  1.0
  C  C358  1  0.970800  0.816100  0.315100  1.0
  C  C359  1  0.970800  0.316100  0.184900  1.0
  C  C360  1  0.029200  0.183900  0.684900  1.0
  C  C361  1  0.096100  0.755100  0.826700  1.0
  C  C362  1  0.903900  0.744900  0.326700  1.0
  C  C363  1  0.903900  0.244900  0.173300  1.0
  C  C364  1  0.096100  0.255100  0.673300  1.0
  C  C365  1  0.125700  0.813200  0.792900  1.0
  C  C366  1  0.874300  0.686800  0.292900  1.0
  C  C367  1  0.874300  0.186800  0.207100  1.0
  C  C368  1  0.125700  0.313200  0.707100  1.0
  C  C369  1  0.189800  0.878300  0.806000  1.0
  C  C370  1  0.810200  0.621700  0.306000  1.0
  C  C371  1  0.810200  0.121700  0.194000  1.0
  C  C372  1  0.189800  0.378300  0.694000  1.0
  C  C373  1  0.219300  0.886800  0.854200  1.0
  C  C374  1  0.780700  0.613200  0.354200  1.0
  C  C375  1  0.780700  0.113200  0.145800  1.0
  C  C376  1  0.219300  0.386800  0.645800  1.0
  C  C377  1  0.132800  0.765100  0.873500  1.0
  C  C378  1  0.867200  0.734900  0.373500  1.0
  C  C379  1  0.867200  0.234900  0.126500  1.0
  C  C380  1  0.132800  0.265100  0.626500  1.0
  C  C381  1  0.111500  0.702100  0.907700  1.0
  C  C382  1  0.888500  0.797900  0.407700  1.0
  C  C383  1  0.888500  0.297900  0.092300  1.0
  C  C384  1  0.111500  0.202100  0.592300  1.0
  C  C385  1  0.985100  0.795900  0.985000  1.0
  C  C386  1  0.014900  0.704100  0.485000  1.0
  C  C387  1  0.014900  0.204100  0.015000  1.0
  C  C388  1  0.985100  0.295900  0.515000  1.0
  C  C389  1  0.888300  0.794800  0.980100  1.0
  C  C390  1  0.111700  0.705200  0.480100  1.0
  C  C391  1  0.111700  0.205200  0.019900  1.0
  C  C392  1  0.888300  0.294800  0.519900  1.0
  C  C393  1  0.859500  0.860100  0.961600  1.0
  C  C394  1  0.140500  0.639900  0.461600  1.0
  C  C395  1  0.140500  0.139900  0.038400  1.0
  C  C396  1  0.859500  0.360100  0.538400  1.0
  C  C397  1  0.928700  0.925700  0.948800  1.0
  C  C398  1  0.071300  0.574300  0.448800  1.0
  C  C399  1  0.071300  0.074300  0.051200  1.0
  C  C400  1  0.928700  0.425700  0.551200  1.0
  C  C401  1  0.904600  0.997900  0.930400  1.0
  C  C402  1  0.095400  0.502100  0.430400  1.0
  C  C403  1  0.095400  0.002100  0.069600  1.0
  C  C404  1  0.904600  0.497900  0.569600  1.0
  C  C405  1  0.970800  0.057600  0.918400  1.0
  C  C406  1  0.029200  0.442400  0.418400  1.0
  C  C407  1  0.029200  0.942400  0.081600  1.0
  C  C408  1  0.970800  0.557600  0.581600  1.0
  C  C409  1  0.069900  0.056500  0.923400  1.0
  C  C410  1  0.930100  0.443500  0.423400  1.0
  C  C411  1  0.930100  0.943500  0.076600  1.0
  C  C412  1  0.069900  0.556500  0.576600  1.0
  C  C413  1  0.143200  0.118500  0.911600  1.0
  C  C414  1  0.856800  0.381500  0.411600  1.0
  C  C415  1  0.856800  0.881500  0.088400  1.0
  C  C416  1  0.143200  0.618500  0.588400  1.0
  C  C417  1  0.234800  0.114500  0.919900  1.0
  C  C418  1  0.765200  0.385500  0.419900  1.0
  C  C419  1  0.765200  0.885500  0.080100  1.0
  C  C420  1  0.234800  0.614500  0.580100  1.0
  C  C421  1  0.255900  0.045700  0.939800  1.0
  C  C422  1  0.744100  0.454300  0.439800  1.0
  C  C423  1  0.744100  0.954300  0.060200  1.0
  C  C424  1  0.255900  0.545700  0.560200  1.0
  C  C425  1  0.097500  0.987000  0.942500  1.0
  C  C426  1  0.902500  0.513000  0.442500  1.0
  C  C427  1  0.902500  0.013000  0.057500  1.0
  C  C428  1  0.097500  0.487000  0.557500  1.0
  C  C429  1  0.024000  0.921100  0.954500  1.0
  C  C430  1  0.976000  0.578900  0.454500  1.0
  C  C431  1  0.976000  0.078900  0.045500  1.0
  C  C432  1  0.024000  0.421100  0.545500  1.0
  N  N433  1  0.679800  0.006900  0.826800  1.0
  N  N434  1  0.320200  0.493100  0.326800  1.0
  N  N435  1  0.320200  0.993100  0.173200  1.0
  N  N436  1  0.679800  0.506900  0.673200  1.0
  N  N437  1  0.514800  0.908500  0.811200  1.0
  N  N438  1  0.485200  0.591500  0.311200  1.0
  N  N439  1  0.485200  0.091500  0.188800  1.0
  N  N440  1  0.514800  0.408500  0.688800  1.0
  N  N441  1  0.385300  0.904900  0.934200  1.0
  N  N442  1  0.614700  0.595100  0.434200  1.0
  N  N443  1  0.614700  0.095100  0.065800  1.0
  N  N444  1  0.385300  0.404900  0.565800  1.0
  N  N445  1  0.321100  0.950900  0.036500  1.0
  N  N446  1  0.678900  0.549100  0.536500  1.0
  N  N447  1  0.678900  0.049100  0.963500  1.0
  N  N448  1  0.321100  0.450900  0.463500  1.0
  N  N449  1  0.485500  0.121100  0.857000  1.0
  N  N450  1  0.514500  0.378900  0.357000  1.0
  N  N451  1  0.514500  0.878900  0.143000  1.0
  N  N452  1  0.485500  0.621100  0.643000  1.0
  N  N453  1  0.641600  0.807500  0.900000  1.0
  N  N454  1  0.358400  0.692500  0.400000  1.0
  N  N455  1  0.358400  0.192500  0.100000  1.0
  N  N456  1  0.641600  0.307500  0.600000  1.0
  N  N457  1  0.175900  0.704100  0.184800  1.0
  N  N458  1  0.824100  0.795900  0.684800  1.0
  N  N459  1  0.824100  0.295900  0.815200  1.0
  N  N460  1  0.175900  0.204100  0.315200  1.0
  N  N461  1  0.013300  0.597200  0.187500  1.0
  N  N462  1  0.986700  0.902800  0.687500  1.0
  N  N463  1  0.986700  0.402800  0.812500  1.0
  N  N464  1  0.013300  0.097200  0.312500  1.0
  N  N465  1  0.166800  0.798400  0.057200  1.0
  N  N466  1  0.833200  0.701600  0.557200  1.0
  N  N467  1  0.833200  0.201600  0.942800  1.0
  N  N468  1  0.166800  0.298400  0.442800  1.0
  N  N469  1  0.186400  0.552500  0.087000  1.0
  N  N470  1  0.813600  0.947500  0.587000  1.0
  N  N471  1  0.813600  0.447500  0.913000  1.0
  N  N472  1  0.186400  0.052500  0.413000  1.0
  N  N473  1  0.957400  0.794600  0.183400  1.0
  N  N474  1  0.042600  0.705400  0.683400  1.0
  N  N475  1  0.042600  0.205400  0.816600  1.0
  N  N476  1  0.957400  0.294600  0.316600  1.0
  N  N477  1  0.900200  0.620400  0.060600  1.0
  N  N478  1  0.099800  0.879600  0.560600  1.0
  N  N479  1  0.099800  0.379600  0.939400  1.0
  N  N480  1  0.900200  0.120400  0.439400  1.0
  N  N481  1  0.155400  0.712400  0.951300  1.0
  N  N482  1  0.844600  0.787600  0.451300  1.0
  N  N483  1  0.844600  0.287600  0.048700  1.0
  N  N484  1  0.155400  0.212400  0.548700  1.0
  N  N485  1  0.192500  0.831700  0.887200  1.0
  N  N486  1  0.807500  0.668300  0.387200  1.0
  N  N487  1  0.807500  0.168300  0.112800  1.0
  N  N488  1  0.192500  0.331700  0.612800  1.0
  N  N489  1  0.052500  0.856200  0.972600  1.0
  N  N490  1  0.947500  0.643800  0.472600  1.0
  N  N491  1  0.947500  0.143800  0.027400  1.0
  N  N492  1  0.052500  0.356200  0.527400  1.0
  N  N493  1  0.189200  0.983100  0.950500  1.0
  N  N494  1  0.810800  0.516900  0.450500  1.0
  N  N495  1  0.810800  0.016900  0.049500  1.0
  N  N496  1  0.189200  0.483100  0.549500  1.0
  O  O497  1  0.388100  0.556300  0.783700  1
  O  O498  1  0.611900  0.943700  0.283700  1
  O  O499  1  0.611900  0.443700  0.216300  1
  O  O500  1  0.388100  0.056300  0.716300  1
  O  O501  1  0.673700  0.656200  0.885600  1
  O  O502  1  0.326300  0.843800  0.385600  1
  O  O503  1  0.326300  0.343800  0.114400  1
  O  O504  1  0.673700  0.156200  0.614400  1
  O  O505  1  0.634200  0.352400  0.944400  1
  O  O506  1  0.365800  0.147600  0.444400  1
  O  O507  1  0.365800  0.647600  0.055600  1
  O  O508  1  0.634200  0.852400  0.555600  1
  O  O509  1  0.384400  0.261500  0.999900  1
  O  O510  1  0.615600  0.238500  0.499900  1
  O  O511  1  0.615600  0.738500  0.000100  1
  O  O512  1  0.384400  0.761500  0.500100  1
  O  O513  1  0.740000  0.481500  0.087600  1
  O  O514  1  0.260000  0.018500  0.587600  1
  O  O515  1  0.260000  0.518500  0.912400  1
  O  O516  1  0.740000  0.981500  0.412400  1
  O  O517  1  0.228100  0.199600  0.794900  1
  O  O518  1  0.771900  0.300400  0.294900  1
  O  O519  1  0.771900  0.800400  0.205100  1
  O  O520  1  0.228100  0.699600  0.705100  1
  O  O521  1  0.471500  0.267800  0.896100  1
  O  O522  1  0.528500  0.232200  0.396100  1
  O  O523  1  0.528500  0.732200  0.103900  1
  O  O524  1  0.471500  0.767800  0.603900  1
  O  O525  1  0.311300  0.069300  0.803000  1
  O  O526  1  0.688700  0.430700  0.303000  1
  O  O527  1  0.688700  0.930700  0.197000  1
  O  O528  1  0.311300  0.569300  0.697000  1
  O  O529  1  0.366000  0.456700  0.854200  1
  O  O530  1  0.634000  0.043300  0.354200  1
  O  O531  1  0.634000  0.543300  0.145800  1
  O  O532  1  0.366000  0.956700  0.645800  1
  O  O533  1  0.291000  0.650700  0.843000  1
  O  O534  1  0.709000  0.849300  0.343000  1
  O  O535  1  0.709000  0.349300  0.157000  1
  O  O536  1  0.291000  0.150700  0.657000  1
  O  O537  1  0.473800  0.125200  0.976600  1
  O  O538  1  0.526200  0.374800  0.476600  1
  O  O539  1  0.526200  0.874800  0.023400  1
  O  O540  1  0.473800  0.625200  0.523400  1
  O  O541  1  0.280400  0.311100  0.869800  1
  O  O542  1  0.719600  0.188900  0.369800  1
  O  O543  1  0.719600  0.688900  0.130200  1
  O  O544  1  0.280400  0.811100  0.630200  1
  O  O545  1  0.780400  0.558000  0.983000  1
  O  O546  1  0.219600  0.942000  0.483000  1
  O  O547  1  0.219600  0.442000  0.017000  1
  O  O548  1  0.780400  0.058000  0.517000  1
  O  O549  1  0.351100  0.769300  0.001700  1.0
  O  O550  1  0.648900  0.730700  0.501700  1.0
  O  O551  1  0.648900  0.230700  0.998300  1.0
  O  O552  1  0.351100  0.269300  0.498300  1.0
