# generated using pymatgen
data_K3ErH34Ru2C57N16O13
_symmetry_space_group_name_H-M   'P 1'
_cell_length_a   14.21800000
_cell_length_b   17.21000000
_cell_length_c   27.76000000
_cell_angle_alpha   90.00000000
_cell_angle_beta   90.00000000
_cell_angle_gamma   102.07700000
_symmetry_Int_Tables_number   1
_chemical_formula_structural   K3ErH34Ru2C57N16O13
_chemical_formula_sum   'K12 Er4 H136 Ru8 C228 N64 O52'
_cell_volume   6642.30429402
_cell_formula_units_Z   4
loop_
 _symmetry_equiv_pos_site_id
 _symmetry_equiv_pos_as_xyz
  1  'x, y, z'
loop_
 _atom_site_type_symbol
 _atom_site_label
 _atom_site_symmetry_multiplicity
 _atom_site_fract_x
 _atom_site_fract_y
 _atom_site_fract_z
 _atom_site_occupancy
  K  K1  1  0.901900  0.493000  0.556700  1
  K  K2  1  0.098100  0.007000  0.056700  1
  K  K3  1  0.098100  0.507000  0.443300  1
  K  K4  1  0.901900  0.993000  0.943300  1
  K  K5  1  0.908400  0.479980  0.513420  1
  K  K6  1  0.091600  0.020020  0.013420  1
  K  K7  1  0.091600  0.520020  0.486580  1
  K  K8  1  0.908400  0.979980  0.986580  1
  K  K9  1  0.875400  0.412200  0.490900  1
  K  K10  1  0.124600  0.087800  0.990900  1
  K  K11  1  0.124600  0.587800  0.509100  1
  K  K12  1  0.875400  0.912200  0.009100  1
  Er  Er13  1  0.267930  0.145015  0.480010  1.0
  Er  Er14  1  0.732070  0.354985  0.980010  1.0
  Er  Er15  1  0.732070  0.854985  0.519990  1.0
  Er  Er16  1  0.267930  0.645015  0.019990  1.0
  H  H17  1  0.726400  0.924900  0.364900  1.0
  H  H18  1  0.273600  0.575100  0.864900  1.0
  H  H19  1  0.273600  0.075100  0.635100  1.0
  H  H20  1  0.726400  0.424900  0.135100  1.0
  H  H21  1  0.619800  0.885100  0.300700  1.0
  H  H22  1  0.380200  0.614900  0.800700  1.0
  H  H23  1  0.380200  0.114900  0.699300  1.0
  H  H24  1  0.619800  0.385100  0.199300  1.0
  H  H25  1  0.655700  0.937000  0.225000  1.0
  H  H26  1  0.344300  0.563000  0.725000  1.0
  H  H27  1  0.344300  0.063000  0.775000  1.0
  H  H28  1  0.655700  0.437000  0.275000  1.0
  H  H29  1  0.772000  0.032300  0.170500  1.0
  H  H30  1  0.228000  0.467700  0.670500  1.0
  H  H31  1  0.228000  0.967700  0.829500  1.0
  H  H32  1  0.772000  0.532300  0.329500  1.0
  H  H33  1  0.911000  0.123900  0.162300  1.0
  H  H34  1  0.089000  0.376100  0.662300  1.0
  H  H35  1  0.089000  0.876100  0.837700  1.0
  H  H36  1  0.911000  0.623900  0.337700  1.0
  H  H37  1  0.066200  0.206300  0.201100  1.0
  H  H38  1  0.933800  0.293700  0.701100  1.0
  H  H39  1  0.933800  0.793700  0.798900  1.0
  H  H40  1  0.066200  0.706300  0.298900  1.0
  H  H41  1  0.163000  0.230900  0.267600  1.0
  H  H42  1  0.837000  0.269100  0.767600  1.0
  H  H43  1  0.837000  0.769100  0.732400  1.0
  H  H44  1  0.163000  0.730900  0.232400  1.0
  H  H45  1  0.116300  0.163500  0.340100  1.0
  H  H46  1  0.883700  0.336500  0.840100  1.0
  H  H47  1  0.883700  0.836500  0.659900  1.0
  H  H48  1  0.116300  0.663500  0.159900  1.0
  H  H49  1  0.602500  0.465100  0.662800  1.0
  H  H50  1  0.397500  0.034900  0.162800  1.0
  H  H51  1  0.397500  0.534900  0.337200  1.0
  H  H52  1  0.602500  0.965100  0.837200  1.0
  H  H53  1  0.644000  0.544000  0.731100  1.0
  H  H54  1  0.356000  0.956000  0.231100  1.0
  H  H55  1  0.356000  0.456000  0.268900  1.0
  H  H56  1  0.644000  0.044000  0.768900  1.0
  H  H57  1  0.555700  0.518400  0.800200  1.0
  H  H58  1  0.444300  0.981600  0.300200  1.0
  H  H59  1  0.444300  0.481600  0.199800  1.0
  H  H60  1  0.555700  0.018400  0.699800  1.0
  H  H61  1  0.419100  0.435500  0.841900  1.0
  H  H62  1  0.580900  0.064500  0.341900  1.0
  H  H63  1  0.580900  0.564500  0.158100  1.0
  H  H64  1  0.419100  0.935500  0.658100  1.0
  H  H65  1  0.280600  0.341600  0.841100  1.0
  H  H66  1  0.719400  0.158400  0.341100  1.0
  H  H67  1  0.719400  0.658400  0.158900  1.0
  H  H68  1  0.280600  0.841600  0.658900  1.0
  H  H69  1  0.155600  0.242900  0.789200  1.0
  H  H70  1  0.844400  0.257100  0.289200  1.0
  H  H71  1  0.844400  0.757100  0.210800  1.0
  H  H72  1  0.155600  0.742900  0.710800  1.0
  H  H73  1  0.111800  0.186300  0.713800  1.0
  H  H74  1  0.888200  0.313700  0.213800  1.0
  H  H75  1  0.888200  0.813700  0.286200  1.0
  H  H76  1  0.111800  0.686300  0.786200  1.0
  H  H77  1  0.217800  0.216800  0.649100  1.0
  H  H78  1  0.782200  0.283200  0.149100  1.0
  H  H79  1  0.782200  0.783200  0.350900  1.0
  H  H80  1  0.217800  0.716800  0.850900  1.0
  H  H81  1  0.176200  0.955200  0.450900  1.0
  H  H82  1  0.823800  0.544800  0.950900  1.0
  H  H83  1  0.823800  0.044800  0.549100  1.0
  H  H84  1  0.176200  0.455200  0.049100  1.0
  H  H85  1  0.210100  0.841000  0.416400  1.0
  H  H86  1  0.789900  0.659000  0.916400  1.0
  H  H87  1  0.789900  0.159000  0.583600  1.0
  H  H88  1  0.210100  0.341000  0.083600  1.0
  H  H89  1  0.368600  0.835000  0.400500  1.0
  H  H90  1  0.631400  0.665000  0.900500  1.0
  H  H91  1  0.631400  0.165000  0.599500  1.0
  H  H92  1  0.368600  0.335000  0.099500  1.0
  H  H93  1  0.545700  0.899500  0.406300  1.0
  H  H94  1  0.454300  0.600500  0.906300  1.0
  H  H95  1  0.454300  0.100500  0.593700  1.0
  H  H96  1  0.545700  0.399500  0.093700  1.0
  H  H97  1  0.662500  0.005900  0.427700  1.0
  H  H98  1  0.337500  0.494100  0.927700  1.0
  H  H99  1  0.337500  0.994100  0.572300  1.0
  H  H100  1  0.662500  0.505900  0.072300  1.0
  H  H101  1  0.708100  0.146400  0.457200  1.0
  H  H102  1  0.291900  0.353600  0.957200  1.0
  H  H103  1  0.291900  0.853600  0.542800  1.0
  H  H104  1  0.708100  0.646400  0.042800  1.0
  H  H105  1  0.659500  0.257100  0.488100  1.0
  H  H106  1  0.340500  0.242900  0.988100  1.0
  H  H107  1  0.340500  0.742900  0.511900  1.0
  H  H108  1  0.659500  0.757100  0.011900  1.0
  H  H109  1  0.496700  0.254800  0.500000  1.0
  H  H110  1  0.503300  0.245200  0.000000  1.0
  H  H111  1  0.503300  0.745200  0.500000  1.0
  H  H112  1  0.496700  0.754800  0.000000  1.0
  H  H113  1  0.240500  0.057800  0.367400  1.0
  H  H114  1  0.759500  0.442200  0.867400  1.0
  H  H115  1  0.759500  0.942200  0.632600  1.0
  H  H116  1  0.240500  0.557800  0.132600  1.0
  H  H117  1  0.287200  0.075000  0.286500  1.0
  H  H118  1  0.712800  0.425000  0.786500  1.0
  H  H119  1  0.712800  0.925000  0.713500  1.0
  H  H120  1  0.287200  0.575000  0.213500  1.0
  H  H121  1  0.395000  0.188900  0.263300  1.0
  H  H122  1  0.605000  0.311100  0.763300  1.0
  H  H123  1  0.605000  0.811100  0.736700  1.0
  H  H124  1  0.395000  0.688900  0.236700  1.0
  H  H125  1  0.497200  0.324500  0.287700  1.0
  H  H126  1  0.502800  0.175500  0.787700  1.0
  H  H127  1  0.502800  0.675500  0.712300  1.0
  H  H128  1  0.497200  0.824500  0.212300  1.0
  H  H129  1  0.533100  0.422600  0.342100  1.0
  H  H130  1  0.466900  0.077400  0.842100  1.0
  H  H131  1  0.466900  0.577400  0.657900  1.0
  H  H132  1  0.533100  0.922600  0.157900  1.0
  H  H133  1  0.494700  0.480800  0.422900  1.0
  H  H134  1  0.505300  0.019200  0.922900  1.0
  H  H135  1  0.505300  0.519200  0.577100  1.0
  H  H136  1  0.494700  0.980800  0.077100  1.0
  H  H137  1  0.412200  0.462600  0.494700  1.0
  H  H138  1  0.587800  0.037400  0.994700  1.0
  H  H139  1  0.587800  0.537400  0.505300  1.0
  H  H140  1  0.412200  0.962600  0.005300  1.0
  H  H141  1  0.319800  0.339400  0.514000  1.0
  H  H142  1  0.680200  0.160600  0.014000  1.0
  H  H143  1  0.680200  0.660600  0.486000  1.0
  H  H144  1  0.319800  0.839400  0.986000  1.0
  H  H145  1  0.152200  0.257800  0.521900  1.0
  H  H146  1  0.847800  0.242200  0.021900  1.0
  H  H147  1  0.847800  0.742200  0.478100  1.0
  H  H148  1  0.152200  0.757800  0.978100  1.0
  H  H149  1  0.103700  0.192700  0.499100  1.0
  H  H150  1  0.896300  0.307300  0.999100  1.0
  H  H151  1  0.896300  0.807300  0.500900  1.0
  H  H152  1  0.103700  0.692700  0.000900  1.0
  Ru  Ru153  1  0.934710  0.037950  0.378760  1.0
  Ru  Ru154  1  0.065290  0.462050  0.878760  1.0
  Ru  Ru155  1  0.065290  0.962050  0.621240  1.0
  Ru  Ru156  1  0.934710  0.537950  0.121240  1.0
  Ru  Ru157  1  0.428610  0.321230  0.632120  1.0
  Ru  Ru158  1  0.571390  0.178770  0.132120  1.0
  Ru  Ru159  1  0.571390  0.678770  0.367880  1.0
  Ru  Ru160  1  0.428610  0.821230  0.867880  1.0
  C  C161  1  0.736900  0.348600  0.378600  1
  C  C162  1  0.263100  0.151400  0.878600  1
  C  C163  1  0.263100  0.651400  0.621400  1
  C  C164  1  0.736900  0.848600  0.121400  1
  C  C165  1  0.742100  0.946700  0.333800  1.0
  C  C166  1  0.257900  0.553300  0.833800  1.0
  C  C167  1  0.257900  0.053300  0.666200  1.0
  C  C168  1  0.742100  0.446700  0.166200  1.0
  C  C169  1  0.678000  0.922800  0.295400  1.0
  C  C170  1  0.322000  0.577200  0.795400  1.0
  C  C171  1  0.322000  0.077200  0.704600  1.0
  C  C172  1  0.678000  0.422800  0.204600  1.0
  C  C173  1  0.699100  0.953300  0.250800  1.0
  C  C174  1  0.300900  0.546700  0.750800  1.0
  C  C175  1  0.300900  0.046700  0.749200  1.0
  C  C176  1  0.699100  0.453300  0.249200  1.0
  C  C177  1  0.784700  0.008800  0.242700  1.0
  C  C178  1  0.215300  0.491200  0.742700  1.0
  C  C179  1  0.215300  0.991200  0.757300  1.0
  C  C180  1  0.784700  0.508800  0.257300  1.0
  C  C181  1  0.812700  0.045900  0.197700  1.0
  C  C182  1  0.187300  0.454100  0.697700  1.0
  C  C183  1  0.187300  0.954100  0.802300  1.0
  C  C184  1  0.812700  0.545900  0.302300  1.0
  C  C185  1  0.895300  0.099700  0.192800  1.0
  C  C186  1  0.104700  0.400300  0.692800  1.0
  C  C187  1  0.104700  0.900300  0.807200  1.0
  C  C188  1  0.895300  0.599700  0.307200  1.0
  C  C189  1  0.961100  0.122000  0.232500  1.0
  C  C190  1  0.038900  0.378000  0.732500  1.0
  C  C191  1  0.038900  0.878000  0.767500  1.0
  C  C192  1  0.961100  0.622000  0.267500  1.0
  C  C193  1  0.047500  0.178400  0.230200  1.0
  C  C194  1  0.952500  0.321600  0.730200  1.0
  C  C195  1  0.952500  0.821600  0.769800  1.0
  C  C196  1  0.047500  0.678400  0.269800  1.0
  C  C197  1  0.103900  0.193100  0.269200  1.0
  C  C198  1  0.896100  0.306900  0.769200  1.0
  C  C199  1  0.896100  0.806900  0.730800  1.0
  C  C200  1  0.103900  0.693100  0.230800  1.0
  C  C201  1  0.075500  0.152500  0.312800  1.0
  C  C202  1  0.924500  0.347500  0.812800  1.0
  C  C203  1  0.924500  0.847500  0.687200  1.0
  C  C204  1  0.075500  0.652500  0.187200  1.0
  C  C205  1  0.935400  0.084600  0.277300  1.0
  C  C206  1  0.064600  0.415400  0.777300  1.0
  C  C207  1  0.064600  0.915400  0.722700  1.0
  C  C208  1  0.935400  0.584600  0.222700  1.0
  C  C209  1  0.845700  0.029600  0.283000  1.0
  C  C210  1  0.154300  0.470400  0.783000  1.0
  C  C211  1  0.154300  0.970400  0.717000  1.0
  C  C212  1  0.845700  0.529600  0.217000  1.0
  C  C213  1  0.888500  0.138300  0.396000  1.0
  C  C214  1  0.111500  0.361700  0.896000  1.0
  C  C215  1  0.111500  0.861700  0.604000  1.0
  C  C216  1  0.888500  0.638300  0.104000  1.0
  C  C217  1  0.051300  0.073500  0.417800  1.0
  C  C218  1  0.948700  0.426500  0.917800  1.0
  C  C219  1  0.948700  0.926500  0.582200  1.0
  C  C220  1  0.051300  0.573500  0.082200  1.0
  C  C221  1  0.988000  0.940800  0.363100  1.0
  C  C222  1  0.012000  0.559200  0.863100  1.0
  C  C223  1  0.012000  0.059200  0.636900  1.0
  C  C224  1  0.988000  0.440800  0.136900  1.0
  C  C225  1  0.562500  0.455700  0.690500  1.0
  C  C226  1  0.437500  0.044300  0.190500  1.0
  C  C227  1  0.437500  0.544300  0.309500  1.0
  C  C228  1  0.562500  0.955700  0.809500  1.0
  C  C229  1  0.588700  0.502000  0.731800  1.0
  C  C230  1  0.411300  0.998000  0.231800  1.0
  C  C231  1  0.411300  0.498000  0.268200  1.0
  C  C232  1  0.588700  0.002000  0.768200  1.0
  C  C233  1  0.537000  0.487600  0.772100  1.0
  C  C234  1  0.463000  0.012400  0.272100  1.0
  C  C235  1  0.463000  0.512400  0.227900  1.0
  C  C236  1  0.537000  0.987600  0.727900  1.0
  C  C237  1  0.456100  0.427600  0.772200  1.0
  C  C238  1  0.543900  0.072400  0.272200  1.0
  C  C239  1  0.543900  0.572400  0.227800  1.0
  C  C240  1  0.456100  0.927600  0.727800  1.0
  C  C241  1  0.399300  0.408400  0.812600  1.0
  C  C242  1  0.600700  0.091600  0.312600  1.0
  C  C243  1  0.600700  0.591600  0.187400  1.0
  C  C244  1  0.399300  0.908400  0.687400  1.0
  C  C245  1  0.317100  0.352900  0.812300  1.0
  C  C246  1  0.682900  0.147100  0.312300  1.0
  C  C247  1  0.682900  0.647100  0.187700  1.0
  C  C248  1  0.317100  0.852900  0.687700  1.0
  C  C249  1  0.283000  0.309400  0.767500  1.0
  C  C250  1  0.717000  0.190600  0.267500  1.0
  C  C251  1  0.717000  0.690600  0.232500  1.0
  C  C252  1  0.283000  0.809400  0.732500  1.0
  C  C253  1  0.197300  0.256200  0.762300  1.0
  C  C254  1  0.802700  0.243800  0.262300  1.0
  C  C255  1  0.802700  0.743800  0.237700  1.0
  C  C256  1  0.197300  0.756200  0.737700  1.0
  C  C257  1  0.171900  0.222000  0.718000  1.0
  C  C258  1  0.828100  0.278000  0.218000  1.0
  C  C259  1  0.828100  0.778000  0.282000  1.0
  C  C260  1  0.171900  0.722000  0.782000  1.0
  C  C261  1  0.235400  0.240500  0.679600  1.0
  C  C262  1  0.764600  0.259500  0.179600  1.0
  C  C263  1  0.764600  0.759500  0.320400  1.0
  C  C264  1  0.235400  0.740500  0.820400  1.0
  C  C265  1  0.342500  0.326600  0.727300  1.0
  C  C266  1  0.657500  0.173400  0.227300  1.0
  C  C267  1  0.657500  0.673400  0.272700  1.0
  C  C268  1  0.342500  0.826600  0.772700  1.0
  C  C269  1  0.430000  0.385800  0.729400  1.0
  C  C270  1  0.570000  0.114200  0.229400  1.0
  C  C271  1  0.570000  0.614200  0.270600  1.0
  C  C272  1  0.430000  0.885800  0.770600  1.0
  C  C273  1  0.499700  0.242600  0.662900  1.0
  C  C274  1  0.500300  0.257400  0.162900  1.0
  C  C275  1  0.500300  0.757400  0.337100  1.0
  C  C276  1  0.499700  0.742600  0.837100  1.0
  C  C277  1  0.368500  0.243200  0.583700  1.0
  C  C278  1  0.631500  0.256800  0.083700  1.0
  C  C279  1  0.631500  0.756800  0.416300  1.0
  C  C280  1  0.368500  0.743200  0.916300  1.0
  C  C281  1  0.539300  0.357200  0.587800  1.0
  C  C282  1  0.460700  0.142800  0.087800  1.0
  C  C283  1  0.460700  0.642800  0.412200  1.0
  C  C284  1  0.539300  0.857200  0.912200  1.0
  C  C285  1  0.358200  0.402400  0.604600  1.0
  C  C286  1  0.641800  0.097600  0.104600  1.0
  C  C287  1  0.641800  0.597600  0.395400  1.0
  C  C288  1  0.358200  0.902400  0.895400  1.0
  C  C289  1  0.241200  0.953800  0.443800  1.0
  C  C290  1  0.758800  0.546200  0.943800  1.0
  C  C291  1  0.758800  0.046200  0.556200  1.0
  C  C292  1  0.241200  0.453800  0.056200  1.0
  C  C293  1  0.260800  0.884900  0.423600  1.0
  C  C294  1  0.739200  0.615100  0.923600  1.0
  C  C295  1  0.739200  0.115100  0.576400  1.0
  C  C296  1  0.260800  0.384900  0.076400  1.0
  C  C297  1  0.354000  0.881500  0.414300  1.0
  C  C298  1  0.646000  0.618500  0.914300  1.0
  C  C299  1  0.646000  0.118500  0.585700  1.0
  C  C300  1  0.354000  0.381500  0.085700  1.0
  C  C301  1  0.428300  0.946500  0.425100  1.0
  C  C302  1  0.571700  0.553500  0.925100  1.0
  C  C303  1  0.571700  0.053500  0.574900  1.0
  C  C304  1  0.428300  0.446500  0.074900  1.0
  C  C305  1  0.527900  0.945600  0.419100  1.0
  C  C306  1  0.472100  0.554400  0.919100  1.0
  C  C307  1  0.472100  0.054400  0.580900  1.0
  C  C308  1  0.527900  0.445600  0.080900  1.0
  C  C309  1  0.596700  0.008600  0.431100  1.0
  C  C310  1  0.403300  0.491400  0.931100  1.0
  C  C311  1  0.403300  0.991400  0.568900  1.0
  C  C312  1  0.596700  0.508600  0.068900  1.0
  C  C313  1  0.572300  0.079200  0.449000  1.0
  C  C314  1  0.427700  0.420800  0.949000  1.0
  C  C315  1  0.427700  0.920800  0.551000  1.0
  C  C316  1  0.572300  0.579200  0.051000  1.0
  C  C317  1  0.641700  0.146000  0.461400  1.0
  C  C318  1  0.358300  0.354000  0.961400  1.0
  C  C319  1  0.358300  0.854000  0.538600  1.0
  C  C320  1  0.641700  0.646000  0.038600  1.0
  C  C321  1  0.613000  0.210900  0.479800  1.0
  C  C322  1  0.387000  0.289100  0.979800  1.0
  C  C323  1  0.387000  0.789100  0.520200  1.0
  C  C324  1  0.613000  0.710900  0.020200  1.0
  C  C325  1  0.515100  0.209600  0.486300  1.0
  C  C326  1  0.484900  0.290400  0.986300  1.0
  C  C327  1  0.484900  0.790400  0.513700  1.0
  C  C328  1  0.515100  0.709600  0.013700  1.0
  C  C329  1  0.473600  0.082200  0.456000  1.0
  C  C330  1  0.526400  0.417800  0.956000  1.0
  C  C331  1  0.526400  0.917800  0.544000  1.0
  C  C332  1  0.473600  0.582200  0.044000  1.0
  C  C333  1  0.402300  0.015100  0.444300  1.0
  C  C334  1  0.597700  0.484900  0.944300  1.0
  C  C335  1  0.597700  0.984900  0.555700  1.0
  C  C336  1  0.402300  0.515100  0.055700  1.0
  C  C337  1  0.281100  0.106500  0.357900  1.0
  C  C338  1  0.718900  0.393500  0.857900  1.0
  C  C339  1  0.718900  0.893500  0.642100  1.0
  C  C340  1  0.281100  0.606500  0.142100  1.0
  C  C341  1  0.310500  0.115600  0.309300  1.0
  C  C342  1  0.689500  0.384400  0.809300  1.0
  C  C343  1  0.689500  0.884400  0.690700  1.0
  C  C344  1  0.310500  0.615600  0.190700  1.0
  C  C345  1  0.372100  0.182800  0.295500  1.0
  C  C346  1  0.627900  0.317200  0.795500  1.0
  C  C347  1  0.627900  0.817200  0.704500  1.0
  C  C348  1  0.372100  0.682800  0.204500  1.0
  C  C349  1  0.401700  0.243000  0.329200  1.0
  C  C350  1  0.598300  0.257000  0.829200  1.0
  C  C351  1  0.598300  0.757000  0.670800  1.0
  C  C352  1  0.401700  0.743000  0.170800  1.0
  C  C353  1  0.468000  0.317400  0.318600  1.0
  C  C354  1  0.532000  0.182600  0.818600  1.0
  C  C355  1  0.532000  0.682600  0.681400  1.0
  C  C356  1  0.468000  0.817400  0.181400  1.0
  C  C357  1  0.488800  0.375100  0.350200  1.0
  C  C358  1  0.511200  0.124900  0.850200  1.0
  C  C359  1  0.511200  0.624900  0.649800  1.0
  C  C360  1  0.488800  0.875100  0.149800  1.0
  C  C361  1  0.445100  0.366600  0.397100  1.0
  C  C362  1  0.554900  0.133400  0.897100  1.0
  C  C363  1  0.554900  0.633400  0.602900  1.0
  C  C364  1  0.445100  0.866600  0.102900  1.0
  C  C365  1  0.454900  0.430700  0.430400  1.0
  C  C366  1  0.545100  0.069300  0.930400  1.0
  C  C367  1  0.545100  0.569300  0.569600  1.0
  C  C368  1  0.454900  0.930700  0.069600  1.0
  C  C369  1  0.407500  0.419800  0.472600  1.0
  C  C370  1  0.592500  0.080200  0.972600  1.0
  C  C371  1  0.592500  0.580200  0.527400  1.0
  C  C372  1  0.407500  0.919800  0.027400  1.0
  C  C373  1  0.351600  0.346000  0.483700  1.0
  C  C374  1  0.648400  0.154000  0.983700  1.0
  C  C375  1  0.648400  0.654000  0.516300  1.0
  C  C376  1  0.351600  0.846000  0.016300  1.0
  C  C377  1  0.385200  0.295400  0.410300  1.0
  C  C378  1  0.614800  0.204600  0.910300  1.0
  C  C379  1  0.614800  0.704600  0.589700  1.0
  C  C380  1  0.385200  0.795400  0.089700  1.0
  C  C381  1  0.365500  0.231200  0.376300  1.0
  C  C382  1  0.634500  0.268800  0.876300  1.0
  C  C383  1  0.634500  0.768800  0.623700  1.0
  C  C384  1  0.365500  0.731200  0.123700  1.0
  C  C385  1  0.862900  0.980700  0.433400  1.0
  C  C386  1  0.137100  0.519300  0.933400  1.0
  C  C387  1  0.137100  0.019300  0.566600  1.0
  C  C388  1  0.862900  0.480700  0.066600  1.0
  N  N389  1  0.824700  0.999800  0.327400  1.0
  N  N390  1  0.175300  0.500200  0.827400  1.0
  N  N391  1  0.175300  0.000200  0.672600  1.0
  N  N392  1  0.824700  0.499800  0.172600  1.0
  N  N393  1  0.993800  0.099600  0.316600  1.0
  N  N394  1  0.006200  0.400400  0.816600  1.0
  N  N395  1  0.006200  0.900400  0.683400  1.0
  N  N396  1  0.993800  0.599600  0.183400  1.0
  N  N397  1  0.867200  0.197100  0.405600  1.0
  N  N398  1  0.132800  0.302900  0.905600  1.0
  N  N399  1  0.132800  0.802900  0.594400  1.0
  N  N400  1  0.867200  0.697100  0.094400  1.0
  N  N401  1  0.123600  0.094000  0.437900  1.0
  N  N402  1  0.876400  0.406000  0.937900  1.0
  N  N403  1  0.876400  0.906000  0.562100  1.0
  N  N404  1  0.123600  0.594000  0.062100  1.0
  N  N405  1  0.018800  0.884000  0.357100  1.0
  N  N406  1  0.981200  0.616000  0.857100  1.0
  N  N407  1  0.981200  0.116000  0.642900  1.0
  N  N408  1  0.018800  0.384000  0.142900  1.0
  N  N409  1  0.483300  0.399000  0.689100  1.0
  N  N410  1  0.516700  0.101000  0.189100  1.0
  N  N411  1  0.516700  0.601000  0.310900  1.0
  N  N412  1  0.483300  0.899000  0.810900  1.0
  N  N413  1  0.319000  0.289700  0.684200  1.0
  N  N414  1  0.681000  0.210300  0.184200  1.0
  N  N415  1  0.681000  0.710300  0.315800  1.0
  N  N416  1  0.319000  0.789700  0.815800  1.0
  N  N417  1  0.537900  0.199500  0.683100  1.0
  N  N418  1  0.462100  0.300500  0.183100  1.0
  N  N419  1  0.462100  0.800500  0.316900  1.0
  N  N420  1  0.537900  0.699500  0.816900  1.0
  N  N421  1  0.333200  0.199600  0.553800  1.0
  N  N422  1  0.666800  0.300400  0.053800  1.0
  N  N423  1  0.666800  0.800400  0.446200  1.0
  N  N424  1  0.333200  0.699600  0.946200  1.0
  N  N425  1  0.316900  0.449100  0.590100  1.0
  N  N426  1  0.683100  0.050900  0.090100  1.0
  N  N427  1  0.683100  0.550900  0.409900  1.0
  N  N428  1  0.316900  0.949100  0.909900  1.0
  N  N429  1  0.605100  0.380000  0.563100  1.0
  N  N430  1  0.394900  0.120000  0.063100  1.0
  N  N431  1  0.394900  0.620000  0.436900  1.0
  N  N432  1  0.605100  0.880000  0.936900  1.0
  N  N433  1  0.308300  0.017400  0.453700  1.0
  N  N434  1  0.691700  0.482600  0.953700  1.0
  N  N435  1  0.691700  0.982600  0.546300  1.0
  N  N436  1  0.308300  0.517400  0.046300  1.0
  N  N437  1  0.445500  0.146000  0.474000  1.0
  N  N438  1  0.554500  0.354000  0.974000  1.0
  N  N439  1  0.554500  0.854000  0.526000  1.0
  N  N440  1  0.445500  0.646000  0.026000  1.0
  N  N441  1  0.307000  0.162100  0.390800  1.0
  N  N442  1  0.693000  0.337900  0.890800  1.0
  N  N443  1  0.693000  0.837900  0.609200  1.0
  N  N444  1  0.307000  0.662100  0.109200  1.0
  N  N445  1  0.340300  0.283700  0.453900  1.0
  N  N446  1  0.659700  0.216300  0.953900  1.0
  N  N447  1  0.659700  0.716300  0.546100  1.0
  N  N448  1  0.340300  0.783700  0.046100  1.0
  N  N449  1  0.183800  0.053700  0.535800  1.0
  N  N450  1  0.816200  0.446300  0.035800  1.0
  N  N451  1  0.816200  0.946300  0.464200  1.0
  N  N452  1  0.183800  0.553700  0.964200  1.0
  O  O453  1  0.979100  0.121700  0.522600  1
  O  O454  1  0.020900  0.378300  0.022600  1
  O  O455  1  0.020900  0.878300  0.477400  1
  O  O456  1  0.979100  0.621700  0.977400  1
  O  O457  1  0.190300  0.923700  0.298200  1
  O  O458  1  0.809700  0.576300  0.798200  1
  O  O459  1  0.809700  0.076300  0.701800  1
  O  O460  1  0.190300  0.423700  0.201800  1
  O  O461  1  0.271100  0.295100  0.202600  1
  O  O462  1  0.728900  0.204900  0.702600  1
  O  O463  1  0.728900  0.704900  0.797400  1
  O  O464  1  0.271100  0.795100  0.297400  1
  O  O465  1  0.143200  0.339000  0.562500  1
  O  O466  1  0.856800  0.161000  0.062500  1
  O  O467  1  0.856800  0.661000  0.437500  1
  O  O468  1  0.143200  0.839000  0.937500  1
  O  O469  1  0.975700  0.265900  0.603200  1
  O  O470  1  0.024300  0.234100  0.103200  1
  O  O471  1  0.024300  0.734100  0.396800  1
  O  O472  1  0.975700  0.765900  0.896800  1
  O  O473  1  0.092400  0.286000  0.416200  1
  O  O474  1  0.907600  0.214000  0.916200  1
  O  O475  1  0.907600  0.714000  0.583800  1
  O  O476  1  0.092400  0.786000  0.083800  1
  O  O477  1  0.111200  0.940600  0.213500  1
  O  O478  1  0.888800  0.559400  0.713500  1
  O  O479  1  0.888800  0.059400  0.786500  1
  O  O480  1  0.111200  0.440600  0.286500  1
  O  O481  1  0.210000  0.369900  0.360200  1
  O  O482  1  0.790000  0.130100  0.860200  1
  O  O483  1  0.790000  0.630100  0.639800  1
  O  O484  1  0.210000  0.869900  0.139800  1
  O  O485  1  0.222800  0.185700  0.130400  1
  O  O486  1  0.777200  0.314300  0.630400  1
  O  O487  1  0.777200  0.814300  0.869600  1
  O  O488  1  0.222800  0.685700  0.369600  1
  O  O489  1  0.838600  0.352400  0.380200  1
  O  O490  1  0.161400  0.147600  0.880200  1
  O  O491  1  0.161400  0.647600  0.619800  1
  O  O492  1  0.838600  0.852400  0.119800  1
  O  O493  1  0.885400  0.262800  0.502600  1
  O  O494  1  0.114600  0.237200  0.002600  1
  O  O495  1  0.114600  0.737200  0.497400  1
  O  O496  1  0.885400  0.762800  0.997400  1
  O  O497  1  0.733000  0.442100  0.485000  1
  O  O498  1  0.267000  0.057900  0.985000  1
  O  O499  1  0.267000  0.557900  0.515000  1
  O  O500  1  0.733000  0.942100  0.015000  1
  O  O501  1  0.155900  0.220500  0.502300  1.0
  O  O502  1  0.844100  0.279500  0.002300  1.0
  O  O503  1  0.844100  0.779500  0.497700  1.0
  O  O504  1  0.155900  0.720500  0.997700  1.0
