# generated using pymatgen
data_H65Pd4C59N22O43
_symmetry_space_group_name_H-M   'P 1'
_cell_length_a   16.49400000
_cell_length_b   16.61000000
_cell_length_c   31.97700000
_cell_angle_alpha   78.43800000
_cell_angle_beta   86.28100000
_cell_angle_gamma   70.33300000
_symmetry_Int_Tables_number   1
_chemical_formula_structural   H65Pd4C59N22O43
_chemical_formula_sum   'H260 Pd16 C236 N88 O172'
_cell_volume   8082.10842888
_cell_formula_units_Z   4
loop_
 _symmetry_equiv_pos_site_id
 _symmetry_equiv_pos_as_xyz
  1  'x, y, z'
loop_
 _atom_site_type_symbol
 _atom_site_label
 _atom_site_symmetry_multiplicity
 _atom_site_fract_x
 _atom_site_fract_y
 _atom_site_fract_z
 _atom_site_occupancy
  H  H1  1  0.191800  0.624200  0.884600  1
  H  H2  1  0.808200  0.375800  0.115400  1
  H  H3  1  0.184600  0.540500  0.909100  1
  H  H4  1  0.815400  0.459500  0.090900  1
  H  H5  1  0.374300  0.546900  0.960200  1
  H  H6  1  0.625700  0.453100  0.039800  1
  H  H7  1  0.393900  0.609600  0.924400  1
  H  H8  1  0.606100  0.390400  0.075600  1
  H  H9  1  0.150100  0.655000  0.950400  1
  H  H10  1  0.849900  0.345000  0.049600  1
  H  H11  1  0.218300  0.563900  0.972700  1
  H  H12  1  0.781700  0.436100  0.027300  1
  H  H13  1  0.262100  0.707800  0.923000  1
  H  H14  1  0.737900  0.292200  0.077000  1
  H  H15  1  0.281600  0.670200  0.973300  1
  H  H16  1  0.718400  0.329800  0.026700  1
  H  H17  1  0.090400  0.651900  0.177700  1
  H  H18  1  0.909600  0.348100  0.822300  1
  H  H19  1  0.082100  0.600200  0.118200  1
  H  H20  1  0.917900  0.399800  0.881800  1
  H  H21  1  0.951600  0.602400  0.094600  1
  H  H22  1  0.048400  0.397600  0.905400  1
  H  H23  1  0.822700  0.675700  0.127800  1
  H  H24  1  0.177300  0.324300  0.872200  1
  H  H25  1  0.840500  0.721800  0.187800  1
  H  H26  1  0.159500  0.278200  0.812200  1
  H  H27  1  0.092100  0.681000  0.246300  1
  H  H28  1  0.907900  0.319000  0.753700  1
  H  H29  1  0.093400  0.741600  0.305200  1
  H  H30  1  0.906600  0.258400  0.694800  1
  H  H31  1  0.836200  0.860800  0.289500  1
  H  H32  1  0.163800  0.139200  0.710500  1
  H  H33  1  0.837800  0.805200  0.229900  1
  H  H34  1  0.162200  0.194800  0.770100  1
  H  H35  1  0.459300  0.571100  0.339300  1
  H  H36  1  0.540700  0.428900  0.660700  1
  H  H37  1  0.526100  0.571800  0.373900  1
  H  H38  1  0.473900  0.428200  0.626100  1
  H  H39  1  0.592300  0.485600  0.299000  1
  H  H40  1  0.407700  0.514400  0.701000  1
  H  H41  1  0.581700  0.428100  0.345200  1
  H  H42  1  0.418300  0.571900  0.654800  1
  H  H43  1  0.107100  0.437300  0.479700  1
  H  H44  1  0.892900  0.562700  0.520300  1
  H  H45  1  0.174900  0.370300  0.459700  1
  H  H46  1  0.825100  0.629700  0.540300  1
  H  H47  1  0.360500  0.415400  0.427700  1
  H  H48  1  0.639500  0.584600  0.572300  1
  H  H49  1  0.365900  0.461400  0.463000  1
  H  H50  1  0.634100  0.538600  0.537000  1
  H  H51  1  0.213200  0.336300  0.538500  1
  H  H52  1  0.786800  0.663700  0.461500  1
  H  H53  1  0.219600  0.433900  0.532400  1
  H  H54  1  0.780400  0.566100  0.467600  1
  H  H55  1  0.365200  0.327100  0.507600  1
  H  H56  1  0.634800  0.672900  0.492400  1
  H  H57  1  0.311400  0.309100  0.472900  1
  H  H58  1  0.688600  0.690900  0.527100  1
  H  H59  1  0.093000  0.685500  0.252600  1
  H  H60  1  0.907000  0.314500  0.747400  1
  H  H61  1  0.095000  0.621900  0.196100  1
  H  H62  1  0.905000  0.378100  0.803900  1
  H  H63  1  0.969900  0.663200  0.154000  1
  H  H64  1  0.030100  0.336800  0.846000  1
  H  H65  1  0.838000  0.736000  0.185400  1
  H  H66  1  0.162000  0.264000  0.814600  1
  H  H67  1  0.846900  0.808800  0.236700  1
  H  H68  1  0.153100  0.191200  0.763300  1
  H  H69  1  0.087500  0.758300  0.308200  1
  H  H70  1  0.912500  0.241700  0.691800  1
  H  H71  1  0.079200  0.821500  0.366600  1
  H  H72  1  0.920800  0.178500  0.633400  1
  H  H73  1  0.822100  0.922900  0.348700  1
  H  H74  1  0.177900  0.077100  0.651300  1
  H  H75  1  0.831000  0.851000  0.295100  1
  H  H76  1  0.169000  0.149000  0.704900  1
  H  H77  1  0.413300  0.862200  0.208400  1.0
  H  H78  1  0.586700  0.137800  0.791600  1.0
  H  H79  1  0.423300  0.809100  0.174600  1.0
  H  H80  1  0.576700  0.190900  0.825400  1.0
  H  H81  1  0.238400  0.998000  0.115500  1.0
  H  H82  1  0.761600  0.002000  0.884500  1.0
  H  H83  1  0.214200  0.045100  0.151900  1.0
  H  H84  1  0.785800  0.954900  0.848100  1.0
  H  H85  1  0.458900  0.946800  0.160000  1.0
  H  H86  1  0.541100  0.053200  0.840000  1.0
  H  H87  1  0.429500  0.910900  0.123000  1.0
  H  H88  1  0.570500  0.089100  0.877000  1.0
  H  H89  1  0.348800  0.041700  0.110900  1.0
  H  H90  1  0.651200  0.958300  0.889100  1.0
  H  H91  1  0.341300  0.049300  0.160100  1.0
  H  H92  1  0.658700  0.950700  0.839900  1.0
  H  H93  1  0.401300  0.220300  0.246800  1.0
  H  H94  1  0.598700  0.779700  0.753200  1.0
  H  H95  1  0.397200  0.276400  0.278500  1.0
  H  H96  1  0.602800  0.723600  0.721500  1.0
  H  H97  1  0.187600  0.225500  0.313000  1.0
  H  H98  1  0.812400  0.774500  0.687000  1.0
  H  H99  1  0.185200  0.190300  0.273900  1.0
  H  H100  1  0.814800  0.809700  0.726100  1.0
  H  H101  1  0.425400  0.113800  0.306300  1.0
  H  H102  1  0.574600  0.886200  0.693700  1.0
  H  H103  1  0.369800  0.181800  0.335100  1.0
  H  H104  1  0.630200  0.818200  0.664900  1.0
  H  H105  1  0.310500  0.097800  0.282200  1.0
  H  H106  1  0.689500  0.902200  0.717800  1.0
  H  H107  1  0.286100  0.103700  0.330900  1.0
  H  H108  1  0.713900  0.896300  0.669100  1.0
  H  H109  1  0.541800  0.230900  0.238800  1.0
  H  H110  1  0.458200  0.769100  0.761200  1.0
  H  H111  1  0.544000  0.286700  0.269800  1.0
  H  H112  1  0.456000  0.713300  0.730200  1.0
  H  H113  1  0.761700  0.307300  0.235400  1.0
  H  H114  1  0.238300  0.692700  0.764600  1.0
  H  H115  1  0.741600  0.279700  0.196800  1.0
  H  H116  1  0.258400  0.720300  0.803200  1.0
  H  H117  1  0.581200  0.314700  0.182900  1.0
  H  H118  1  0.418800  0.685300  0.817100  1.0
  H  H119  1  0.517700  0.384900  0.208600  1.0
  H  H120  1  0.482300  0.615100  0.791400  1.0
  H  H121  1  0.647900  0.409600  0.192300  1.0
  H  H122  1  0.352100  0.590400  0.807700  1.0
  H  H123  1  0.631000  0.392200  0.242800  1.0
  H  H124  1  0.369000  0.607800  0.757200  1.0
  H  H125  1  0.524200  0.528700  0.299000  1.0
  H  H126  1  0.475800  0.471300  0.701000  1.0
  H  H127  1  0.455300  0.570200  0.333700  1.0
  H  H128  1  0.544700  0.429800  0.666300  1.0
  H  H129  1  0.564600  0.519900  0.389300  1.0
  H  H130  1  0.435400  0.480100  0.610700  1.0
  H  H131  1  0.582800  0.436700  0.367300  1.0
  H  H132  1  0.417200  0.563300  0.632700  1.0
  H  H133  1  0.563300  0.059400  0.038000  1.0
  H  H134  1  0.436700  0.940600  0.962000  1.0
  H  H135  1  0.569100  0.109400  0.071000  1.0
  H  H136  1  0.430900  0.890600  0.929000  1.0
  H  H137  1  0.791600  0.115000  0.038900  1.0
  H  H138  1  0.208400  0.885000  0.961100  1.0
  H  H139  1  0.772000  0.089100  0.999600  1.0
  H  H140  1  0.228000  0.910900  0.000400  1.0
  H  H141  1  0.599900  0.146200  0.984800  1.0
  H  H142  1  0.400100  0.853800  0.015200  1.0
  H  H143  1  0.546000  0.213500  0.014300  1.0
  H  H144  1  0.454000  0.786500  0.985700  1.0
  H  H145  1  0.660900  0.213000  0.042800  1.0
  H  H146  1  0.339100  0.787000  0.957200  1.0
  H  H147  1  0.677000  0.224700  0.992400  1.0
  H  H148  1  0.323000  0.775300  0.007600  1.0
  H  H149  1  0.147100  0.459200  0.514300  1.0
  H  H150  1  0.852900  0.540800  0.485700  1.0
  H  H151  1  0.114700  0.437900  0.477100  1.0
  H  H152  1  0.885300  0.562100  0.522900  1.0
  H  H153  1  0.350100  0.462600  0.449400  1.0
  H  H154  1  0.649900  0.537400  0.550600  1.0
  H  H155  1  0.330300  0.507900  0.486200  1.0
  H  H156  1  0.669700  0.492100  0.513800  1.0
  H  H157  1  0.249100  0.319800  0.469900  1.0
  H  H158  1  0.750900  0.680200  0.530100  1.0
  H  H159  1  0.227800  0.305700  0.520500  1.0
  H  H160  1  0.772200  0.694300  0.479500  1.0
  H  H161  1  0.323600  0.385600  0.535200  1.0
  H  H162  1  0.676400  0.614400  0.464800  1.0
  H  H163  1  0.379600  0.334200  0.499800  1.0
  H  H164  1  0.620400  0.665800  0.500200  1.0
  H  H165  1  0.370900  0.516400  0.090900  1.0
  H  H166  1  0.629100  0.483600  0.909100  1.0
  H  H167  1  0.434600  0.419600  0.108800  1.0
  H  H168  1  0.565400  0.580400  0.891200  1.0
  H  H169  1  0.359000  0.581100  0.154900  1.0
  H  H170  1  0.641000  0.418900  0.845100  1.0
  H  H171  1  0.260800  0.478400  0.260500  1.0
  H  H172  1  0.739200  0.521600  0.739500  1.0
  H  H173  1  0.314600  0.355100  0.164400  1.0
  H  H174  1  0.685400  0.644900  0.835600  1.0
  H  H175  1  0.309500  0.559200  0.293500  1.0
  H  H176  1  0.690500  0.440800  0.706500  1.0
  H  H177  1  0.271800  0.813200  0.275400  1.0
  H  H178  1  0.728200  0.186800  0.724600  1.0
  H  H179  1  0.288400  0.704600  0.174900  1.0
  H  H180  1  0.711600  0.295400  0.825100  1.0
  H  H181  1  0.336700  0.775500  0.340000  1.0
  H  H182  1  0.663300  0.224500  0.660000  1.0
  H  H183  1  0.319300  0.775500  0.412000  1.0
  H  H184  1  0.680700  0.224500  0.588000  1.0
  H  H185  1  0.280900  0.663900  0.454700  1.0
  H  H186  1  0.719100  0.336100  0.545300  1.0
  H  H187  1  0.234500  0.584900  0.352600  1.0
  H  H188  1  0.765500  0.415100  0.647400  1.0
  H  H189  1  0.055700  0.680000  0.468400  1.0
  H  H190  1  0.944300  0.320000  0.531600  1.0
  H  H191  1  0.919200  0.755700  0.447300  1.0
  H  H192  1  0.080800  0.244300  0.552700  1.0
  H  H193  1  0.852400  0.723000  0.393300  1.0
  H  H194  1  0.147600  0.277000  0.606700  1.0
  H  H195  1  0.077300  0.532400  0.381200  1.0
  H  H196  1  0.922700  0.467600  0.618800  1.0
  H  H197  1  0.034000  0.535600  0.318800  1.0
  H  H198  1  0.966000  0.464400  0.681200  1.0
  H  H199  1  0.822400  0.525700  0.267500  1.0
  H  H200  1  0.177600  0.474300  0.732500  1.0
  H  H201  1  0.795700  0.645100  0.365700  1.0
  H  H202  1  0.204300  0.354900  0.634300  1.0
  H  H203  1  0.896900  0.509400  0.210900  1.0
  H  H204  1  0.103100  0.490600  0.789100  1.0
  H  H205  1  0.126700  0.344500  0.182400  1.0
  H  H206  1  0.873300  0.655500  0.817600  1.0
  H  H207  1  0.097700  0.419800  0.291900  1.0
  H  H208  1  0.902300  0.580200  0.708100  1.0
  H  H209  1  0.942000  0.375400  0.153300  1.0
  H  H210  1  0.058000  0.624600  0.846700  1.0
  H  H211  1  0.924800  0.478000  0.138000  1.0
  H  H212  1  0.075200  0.522000  0.862000  1.0
  H  H213  1  0.619800  0.147900  0.344600  1.0
  H  H214  1  0.380200  0.852100  0.655400  1.0
  H  H215  1  0.573900  0.036400  0.382600  1.0
  H  H216  1  0.426100  0.963600  0.617400  1.0
  H  H217  1  0.580000  0.918300  0.352500  1.0
  H  H218  1  0.420000  0.081700  0.647500  1.0
  H  H219  1  0.689700  0.022800  0.249800  1.0
  H  H220  1  0.310300  0.977200  0.750200  1.0
  H  H221  1  0.654900  0.792600  0.329800  1.0
  H  H222  1  0.345100  0.207400  0.670200  1.0
  H  H223  1  0.662000  0.701600  0.224500  1.0
  H  H224  1  0.338000  0.298400  0.775500  1.0
  H  H225  1  0.625900  0.954600  0.214900  1.0
  H  H226  1  0.374100  0.045400  0.785100  1.0
  H  H227  1  0.603100  0.736700  0.159800  1.0
  H  H228  1  0.396900  0.263300  0.840200  1.0
  H  H229  1  0.656200  0.867800  0.047300  1.0
  H  H230  1  0.343800  0.132200  0.952700  1.0
  H  H231  1  0.683200  0.944900  0.152100  1.0
  H  H232  1  0.316800  0.055100  0.847900  1.0
  H  H233  1  0.577700  0.693800  0.095700  1.0
  H  H234  1  0.422300  0.306200  0.904300  1.0
  H  H235  1  0.549000  0.771600  0.054900  1.0
  H  H236  1  0.451000  0.228400  0.945100  1.0
  H  H237  1  0.937000  0.284200  0.954000  1.0
  H  H238  1  0.063000  0.715800  0.046000  1.0
  H  H239  1  0.973100  0.210000  0.995400  1.0
  H  H240  1  0.026900  0.790000  0.004600  1.0
  H  H241  1  0.934200  0.200600  0.901000  1.0
  H  H242  1  0.065800  0.799400  0.099000  1.0
  H  H243  1  0.850700  0.990500  0.120300  1.0
  H  H244  1  0.149300  0.009500  0.879700  1.0
  H  H245  1  0.847400  0.861500  0.031500  1.0
  H  H246  1  0.152600  0.138500  0.968500  1.0
  H  H247  1  0.126200  0.867700  0.130600  1.0
  H  H248  1  0.873800  0.132300  0.869400  1.0
  H  H249  1  0.120200  0.970100  0.230500  1.0
  H  H250  1  0.879800  0.029900  0.769500  1.0
  H  H251  1  0.102400  0.028900  0.814700  1.0
  H  H252  1  0.897600  0.971100  0.185300  1.0
  H  H253  1  0.052500  0.992600  0.289800  1.0
  H  H254  1  0.947500  0.007400  0.710200  1.0
  H  H255  1  0.969800  0.065500  0.342300  1.0
  H  H256  1  0.030200  0.934500  0.657700  1.0
  H  H257  1  0.831300  0.153900  0.326400  1.0
  H  H258  1  0.168700  0.846100  0.673600  1.0
  H  H259  1  0.836400  0.081300  0.216400  1.0
  H  H260  1  0.163600  0.918700  0.783600  1.0
  Pd  Pd261  1  0.336190  0.519330  0.895240  1
  Pd  Pd262  1  0.663810  0.480670  0.104760  1
  Pd  Pd263  1  0.211400  0.512200  0.440500  1
  Pd  Pd264  1  0.788600  0.487800  0.559500  1
  Pd  Pd265  1  0.264110  0.886730  0.182230  1.0
  Pd  Pd266  1  0.735890  0.113270  0.817770  1.0
  Pd  Pd267  1  0.248300  0.310150  0.253160  1.0
  Pd  Pd268  1  0.751700  0.689850  0.746840  1.0
  Pd  Pd269  1  0.695600  0.192060  0.260220  1.0
  Pd  Pd270  1  0.304400  0.807940  0.739780  1.0
  Pd  Pd271  1  0.668610  0.617610  0.314940  1.0
  Pd  Pd272  1  0.331390  0.382390  0.685060  1.0
  Pd  Pd273  1  0.714340  0.008670  0.061300  1.0
  Pd  Pd274  1  0.285660  0.991330  0.938700  1.0
  Pd  Pd275  1  0.195100  0.542600  0.447900  1.0
  Pd  Pd276  1  0.804900  0.457400  0.552100  1.0
  C  C277  1  0.208100  0.612400  0.947800  1
  C  C278  1  0.791900  0.387600  0.052200  1
  C  C279  1  0.275200  0.654900  0.945600  1
  C  C280  1  0.724800  0.345100  0.054400  1
  C  C281  1  0.964700  0.698400  0.194100  1
  C  C282  1  0.035300  0.301600  0.805900  1
  C  C283  1  0.035000  0.657500  0.168800  1
  C  C284  1  0.965000  0.342500  0.831200  1
  C  C285  1  0.031000  0.625000  0.132900  1
  C  C286  1  0.969000  0.375000  0.867100  1
  C  C287  1  0.953000  0.628000  0.118400  1
  C  C288  1  0.047000  0.372000  0.881600  1
  C  C289  1  0.878000  0.668000  0.137700  1
  C  C290  1  0.122000  0.332000  0.862300  1
  C  C291  1  0.893000  0.697000  0.173600  1
  C  C292  1  0.107000  0.303000  0.826400  1
  C  C293  1  0.966100  0.732100  0.231700  1
  C  C294  1  0.033900  0.267900  0.768300  1
  C  C295  1  0.039100  0.718000  0.255400  1
  C  C296  1  0.960900  0.282000  0.744600  1
  C  C297  1  0.042000  0.751900  0.290300  1
  C  C298  1  0.958000  0.248100  0.709700  1
  C  C299  1  0.960000  0.804000  0.302300  1
  C  C300  1  0.040000  0.196000  0.697700  1
  C  C301  1  0.889000  0.823000  0.280400  1
  C  C302  1  0.111000  0.177000  0.719600  1
  C  C303  1  0.889500  0.789800  0.245600  1
  C  C304  1  0.110500  0.210200  0.754400  1
  C  C305  1  0.966000  0.840400  0.340100  1
  C  C306  1  0.034000  0.159600  0.659900  1
  C  C307  1  0.519000  0.569000  0.343800  1
  C  C308  1  0.481000  0.431000  0.656200  1
  C  C309  1  0.590000  0.483000  0.330200  1
  C  C310  1  0.410000  0.517000  0.669800  1
  C  C311  1  0.223000  0.385000  0.518100  1
  C  C312  1  0.777000  0.615000  0.481900  1
  C  C313  1  0.315000  0.354000  0.488000  1
  C  C314  1  0.685000  0.646000  0.512000  1
  C  C315  1  0.968000  0.757000  0.257300  1
  C  C316  1  0.032000  0.243000  0.742700  1
  C  C317  1  0.039000  0.700000  0.238800  1
  C  C318  1  0.961000  0.300000  0.761200  1
  C  C319  1  0.042000  0.662000  0.203900  1
  C  C320  1  0.958000  0.338000  0.796100  1
  C  C321  1  0.968000  0.682000  0.180400  1
  C  C322  1  0.032000  0.318000  0.819600  1
  C  C323  1  0.892000  0.729000  0.196600  1
  C  C324  1  0.108000  0.271000  0.803400  1
  C  C325  1  0.899000  0.767000  0.230300  1
  C  C326  1  0.101000  0.233000  0.769700  1
  C  C327  1  0.962000  0.797000  0.293300  1
  C  C328  1  0.038000  0.203000  0.706700  1
  C  C329  1  0.032000  0.791000  0.316900  1
  C  C330  1  0.968000  0.209000  0.683100  1
  C  C331  1  0.029000  0.828000  0.351300  1
  C  C332  1  0.971000  0.172000  0.648700  1
  C  C333  1  0.945000  0.879000  0.362800  1
  C  C334  1  0.055000  0.121000  0.637200  1
  C  C335  1  0.877000  0.887000  0.341000  1
  C  C336  1  0.123000  0.113000  0.659000  1
  C  C337  1  0.883000  0.846000  0.308500  1
  C  C338  1  0.117000  0.154000  0.691500  1
  C  C339  1  0.941000  0.916000  0.401700  1
  C  C340  1  0.059000  0.084000  0.598300  1
  C  C341  1  0.410600  0.933100  0.149800  1.0
  C  C342  1  0.589400  0.066900  0.850200  1.0
  C  C343  1  0.340700  0.011300  0.140000  1.0
  C  C344  1  0.659300  0.988700  0.860000  1.0
  C  C345  1  0.371800  0.163500  0.307300  1.0
  C  C346  1  0.628200  0.836500  0.692700  1.0
  C  C347  1  0.296700  0.137200  0.303000  1.0
  C  C348  1  0.703300  0.862800  0.697000  1.0
  C  C349  1  0.572900  0.336100  0.210200  1.0
  C  C350  1  0.427100  0.663900  0.789800  1.0
  C  C351  1  0.642600  0.365200  0.217100  1.0
  C  C352  1  0.357400  0.634800  0.782900  1.0
  C  C353  1  0.516000  0.557000  0.324100  1.0
  C  C354  1  0.484000  0.443000  0.675900  1.0
  C  C355  1  0.582000  0.498000  0.362500  1.0
  C  C356  1  0.418000  0.502000  0.637500  1.0
  C  C357  1  0.598300  0.162500  0.013000  1.0
  C  C358  1  0.401700  0.837500  0.987000  1.0
  C  C359  1  0.669400  0.183400  0.018100  1.0
  C  C360  1  0.330600  0.816600  0.981900  1.0
  C  C361  1  0.240000  0.346000  0.495700  1.0
  C  C362  1  0.760000  0.654000  0.504300  1.0
  C  C363  1  0.324000  0.378000  0.505100  1.0
  C  C364  1  0.676000  0.622000  0.494900  1.0
  C  C365  1  0.310600  0.438400  0.048300  1.0
  C  C366  1  0.689400  0.561600  0.951700  1.0
  C  C367  1  0.374100  0.458800  0.108100  1.0
  C  C368  1  0.625900  0.541200  0.891900  1.0
  C  C369  1  0.342600  0.467300  0.151800  1.0
  C  C370  1  0.657400  0.532700  0.848200  1.0
  C  C371  1  0.338900  0.536500  0.170500  1.0
  C  C372  1  0.661100  0.463500  0.829500  1.0
  C  C373  1  0.307100  0.542700  0.210500  1.0
  C  C374  1  0.692900  0.457300  0.789500  1.0
  C  C375  1  0.282200  0.475400  0.232400  1.0
  C  C376  1  0.717800  0.524600  0.767600  1.0
  C  C377  1  0.314100  0.403100  0.176400  1.0
  C  C378  1  0.685900  0.596900  0.823600  1.0
  C  C379  1  0.298900  0.619400  0.230000  1.0
  C  C380  1  0.701100  0.380600  0.770000  1.0
  C  C381  1  0.300000  0.614100  0.275000  1.0
  C  C382  1  0.700000  0.385900  0.725000  1.0
  C  C383  1  0.287600  0.685700  0.291900  1.0
  C  C384  1  0.712400  0.314300  0.708100  1.0
  C  C385  1  0.278800  0.762600  0.264000  1.0
  C  C386  1  0.721200  0.237400  0.736000  1.0
  C  C387  1  0.288800  0.698800  0.205100  1.0
  C  C388  1  0.711200  0.301200  0.794900  1.0
  C  C389  1  0.286000  0.679700  0.338400  1.0
  C  C390  1  0.714000  0.320300  0.661600  1.0
  C  C391  1  0.312900  0.735500  0.357400  1.0
  C  C392  1  0.687100  0.264500  0.642600  1.0
  C  C393  1  0.305800  0.733900  0.399700  1.0
  C  C394  1  0.694200  0.266100  0.600300  1.0
  C  C395  1  0.278800  0.670800  0.424600  1.0
  C  C396  1  0.721200  0.329200  0.575400  1.0
  C  C397  1  0.254100  0.622700  0.364800  1.0
  C  C398  1  0.745900  0.377300  0.635200  1.0
  C  C399  1  0.031700  0.665800  0.445900  1.0
  C  C400  1  0.968300  0.334200  0.554100  1.0
  C  C401  1  0.951200  0.709100  0.433600  1.0
  C  C402  1  0.048800  0.290900  0.566400  1.0
  C  C403  1  0.910300  0.690200  0.401500  1.0
  C  C404  1  0.089700  0.309800  0.598500  1.0
  C  C405  1  0.958100  0.621900  0.382500  1.0
  C  C406  1  0.041900  0.378100  0.617500  1.0
  C  C407  1  0.043400  0.578600  0.394800  1.0
  C  C408  1  0.956600  0.421400  0.605200  1.0
  C  C409  1  0.921900  0.593700  0.348800  1.0
  C  C410  1  0.078100  0.406300  0.651200  1.0
  C  C411  1  0.973400  0.548600  0.318400  1.0
  C  C412  1  0.026600  0.451400  0.681600  1.0
  C  C413  1  0.936900  0.523100  0.288100  1.0
  C  C414  1  0.063100  0.476900  0.711900  1.0
  C  C415  1  0.849000  0.541900  0.288400  1.0
  C  C416  1  0.151000  0.458100  0.711600  1.0
  C  C417  1  0.833000  0.612100  0.346800  1.0
  C  C418  1  0.167000  0.387900  0.653200  1.0
  C  C419  1  0.989600  0.472700  0.256700  1.0
  C  C420  1  0.010400  0.527300  0.743300  1.0
  C  C421  1  0.954700  0.474700  0.218200  1.0
  C  C422  1  0.045300  0.525300  0.781800  1.0
  C  C423  1  0.008000  0.423300  0.189800  1.0
  C  C424  1  0.992000  0.576700  0.810200  1.0
  C  C425  1  0.090800  0.378400  0.201300  1.0
  C  C426  1  0.909200  0.621600  0.798700  1.0
  C  C427  1  0.074100  0.422900  0.265100  1.0
  C  C428  1  0.925900  0.577100  0.734900  1.0
  C  C429  1  0.969200  0.421200  0.148600  1.0
  C  C430  1  0.030800  0.578800  0.851400  1.0
  C  C431  1  0.019200  0.423600  0.077800  1.0
  C  C432  1  0.980800  0.576400  0.922200  1.0
  C  C433  1  0.097600  0.401000  0.050600  1.0
  C  C434  1  0.902400  0.599000  0.949400  1.0
  C  C435  1  0.165900  0.426300  0.059400  1.0
  C  C436  1  0.834100  0.573700  0.940600  1.0
  C  C437  1  0.626100  0.098700  0.332300  1.0
  C  C438  1  0.373900  0.901300  0.667700  1.0
  C  C439  1  0.596800  0.032600  0.354800  1.0
  C  C440  1  0.403200  0.967400  0.645200  1.0
  C  C441  1  0.600600  0.962900  0.337400  1.0
  C  C442  1  0.399400  0.037100  0.662600  1.0
  C  C443  1  0.635400  0.959500  0.297200  1.0
  C  C444  1  0.364600  0.040500  0.702800  1.0
  C  C445  1  0.665100  0.025400  0.277400  1.0
  C  C446  1  0.334900  0.974600  0.722600  1.0
  C  C447  1  0.640800  0.886900  0.274200  1.0
  C  C448  1  0.359200  0.113100  0.725800  1.0
  C  C449  1  0.651300  0.802500  0.299600  1.0
  C  C450  1  0.348700  0.197500  0.700400  1.0
  C  C451  1  0.654700  0.750200  0.237500  1.0
  C  C452  1  0.345300  0.249800  0.762500  1.0
  C  C453  1  0.643900  0.829200  0.211500  1.0
  C  C454  1  0.356100  0.170800  0.788500  1.0
  C  C455  1  0.635600  0.898100  0.231700  1.0
  C  C456  1  0.364400  0.101900  0.768300  1.0
  C  C457  1  0.644100  0.840500  0.164400  1.0
  C  C458  1  0.355900  0.159500  0.835600  1.0
  C  C459  1  0.619700  0.783100  0.143500  1.0
  C  C460  1  0.380300  0.216900  0.856500  1.0
  C  C461  1  0.620800  0.796600  0.098800  1.0
  C  C462  1  0.379200  0.203400  0.901200  1.0
  C  C463  1  0.651000  0.860600  0.077500  1.0
  C  C464  1  0.349000  0.139400  0.922500  1.0
  C  C465  1  0.668900  0.905000  0.139000  1.0
  C  C466  1  0.331100  0.095000  0.861000  1.0
  C  C467  1  0.596300  0.737600  0.075400  1.0
  C  C468  1  0.403700  0.262400  0.924600  1.0
  C  C469  1  0.665200  0.671100  0.020400  1.0
  C  C470  1  0.334800  0.328900  0.979600  1.0
  C  C471  1  0.748800  0.638000  0.996400  1.0
  C  C472  1  0.251200  0.362000  0.003600  1.0
  C  C473  1  0.241800  0.405500  0.036200  1.0
  C  C474  1  0.758200  0.594500  0.963800  1.0
  C  C475  1  0.819800  0.660700  0.005400  1.0
  C  C476  1  0.180200  0.339300  0.994600  1.0
  C  C477  1  0.105800  0.357400  0.018700  1.0
  C  C478  1  0.894200  0.642600  0.981300  1.0
  C  C479  1  0.044500  0.308000  0.015000  1.0
  C  C480  1  0.955500  0.692000  0.985000  1.0
  C  C481  1  0.989800  0.241300  0.968400  1.0
  C  C482  1  0.010200  0.758700  0.031600  1.0
  C  C483  1  0.034800  0.180300  0.941100  1.0
  C  C484  1  0.965200  0.819700  0.058900  1.0
  C  C485  1  0.992700  0.166700  0.907400  1.0
  C  C486  1  0.007300  0.833300  0.092600  1.0
  C  C487  1  0.037100  0.102800  0.883100  1.0
  C  C488  1  0.962900  0.897200  0.116900  1.0
  C  C489  1  0.880200  0.945200  0.105300  1.0
  C  C490  1  0.119800  0.054800  0.894700  1.0
  C  C491  1  0.878800  0.871300  0.052800  1.0
  C  C492  1  0.121200  0.128700  0.947200  1.0
  C  C493  1  0.993400  0.084300  0.848100  1.0
  C  C494  1  0.006600  0.915700  0.151900  1.0
  C  C495  1  0.093500  0.895500  0.152300  1.0
  C  C496  1  0.906500  0.104500  0.847700  1.0
  C  C497  1  0.091000  0.954700  0.210300  1.0
  C  C498  1  0.909000  0.045300  0.789700  1.0
  C  C499  1  0.000400  0.978800  0.212500  1.0
  C  C500  1  0.999600  0.021200  0.787500  1.0
  C  C501  1  0.041700  0.042200  0.816100  1.0
  C  C502  1  0.958300  0.957800  0.183900  1.0
  C  C503  1  0.952100  0.027100  0.246300  1.0
  C  C504  1  0.047900  0.972900  0.753700  1.0
  C  C505  1  0.993100  0.024700  0.285100  1.0
  C  C506  1  0.006900  0.975300  0.714900  1.0
  C  C507  1  0.945000  0.069600  0.315600  1.0
  C  C508  1  0.055000  0.930400  0.684400  1.0
  C  C509  1  0.862200  0.119300  0.306500  1.0
  C  C510  1  0.137800  0.880700  0.693500  1.0
  C  C511  1  0.865600  0.077900  0.241700  1.0
  C  C512  1  0.134400  0.922100  0.758300  1.0
  N  N513  1  0.215000  0.578700  0.906700  1
  N  N514  1  0.785000  0.421300  0.093300  1
  N  N515  1  0.352800  0.585000  0.935200  1
  N  N516  1  0.647200  0.415000  0.064800  1
  N  N517  1  0.264600  0.467500  0.824700  1
  N  N518  1  0.735400  0.532500  0.175300  1
  N  N519  1  0.500300  0.637000  0.199800  1
  N  N520  1  0.499700  0.363000  0.800200  1
  N  N521  1  0.437400  0.867700  0.300800  1
  N  N522  1  0.562600  0.132300  0.699200  1
  N  N523  1  0.413800  0.044200  0.032600  1
  N  N524  1  0.586200  0.955800  0.967400  1
  N  N525  1  0.483500  0.129200  0.191600  1
  N  N526  1  0.516500  0.870800  0.808400  1
  N  N527  1  0.444400  0.373000  0.326000  1
  N  N528  1  0.555600  0.627000  0.674000  1
  N  N529  1  0.977400  0.432000  0.455100  1
  N  N530  1  0.022600  0.568000  0.544900  1
  N  N531  1  0.926100  0.125000  0.079000  1
  N  N532  1  0.073900  0.875000  0.921000  1
  N  N533  1  0.986300  0.229800  0.232300  1
  N  N534  1  0.013700  0.770200  0.767700  1
  N  N535  1  0.221000  0.410300  0.351500  1
  N  N536  1  0.779000  0.589700  0.648500  1
  N  N537  1  0.300000  0.813000  0.089500  1
  N  N538  1  0.700000  0.187000  0.910500  1
  N  N539  1  0.702500  0.111700  0.156700  1
  N  N540  1  0.297500  0.888300  0.843300  1
  N  N541  1  0.205000  0.983000  0.332300  1
  N  N542  1  0.795000  0.017000  0.667700  1
  N  N543  1  0.164900  0.415500  0.474100  1
  N  N544  1  0.835100  0.584500  0.525900  1
  N  N545  1  0.334000  0.435000  0.451800  1
  N  N546  1  0.666000  0.565000  0.548200  1
  N  N547  1  0.940000  0.287000  0.292100  1
  N  N548  1  0.060000  0.713000  0.707900  1
  N  N549  1  0.250500  0.683000  0.082400  1
  N  N550  1  0.749500  0.317000  0.917600  1
  N  N551  1  0.708100  0.106700  0.160200  1
  N  N552  1  0.291900  0.893300  0.839800  1
  N  N553  1  0.394700  0.862300  0.181900  1.0
  N  N554  1  0.605300  0.137700  0.818100  1.0
  N  N555  1  0.254800  0.999500  0.142200  1.0
  N  N556  1  0.745200  0.000500  0.857800  1.0
  N  N557  1  0.371300  0.241400  0.269800  1.0
  N  N558  1  0.628700  0.758600  0.730200  1.0
  N  N559  1  0.218600  0.208300  0.289500  1.0
  N  N560  1  0.781400  0.791700  0.710500  1.0
  N  N561  1  0.570800  0.264300  0.246500  1.0
  N  N562  1  0.429200  0.735700  0.753500  1.0
  N  N563  1  0.720900  0.293500  0.222800  1.0
  N  N564  1  0.279100  0.706500  0.777200  1.0
  N  N565  1  0.540600  0.637600  0.314400  1.0
  N  N566  1  0.459400  0.362400  0.685600  1.0
  N  N567  1  0.674800  0.501300  0.349200  1.0
  N  N568  1  0.325200  0.498700  0.650800  1.0
  N  N569  1  0.595100  0.088800  0.047100  1.0
  N  N570  1  0.404900  0.911200  0.952900  1.0
  N  N571  1  0.750200  0.104100  0.025200  1.0
  N  N572  1  0.249800  0.895900  0.974800  1.0
  N  N573  1  0.162300  0.443300  0.488200  1.0
  N  N574  1  0.837700  0.556700  0.511800  1.0
  N  N575  1  0.313000  0.474000  0.471900  1.0
  N  N576  1  0.687000  0.526000  0.528100  1.0
  N  N577  1  0.286000  0.406100  0.216600  1.0
  N  N578  1  0.714000  0.593900  0.783400  1.0
  N  N579  1  0.279500  0.769800  0.222100  1.0
  N  N580  1  0.720500  0.230200  0.777900  1.0
  N  N581  1  0.248900  0.617200  0.407300  1.0
  N  N582  1  0.751100  0.382800  0.592700  1.0
  N  N583  1  0.079500  0.601000  0.425900  1.0
  N  N584  1  0.920500  0.399000  0.574100  1.0
  N  N585  1  0.801200  0.582400  0.317900  1.0
  N  N586  1  0.198800  0.417600  0.682100  1.0
  N  N587  1  0.124300  0.379100  0.237500  1.0
  N  N588  1  0.875700  0.620900  0.762500  1.0
  N  N589  1  0.661200  0.094900  0.295500  1.0
  N  N590  1  0.338800  0.905100  0.704500  1.0
  N  N591  1  0.655700  0.737600  0.279300  1.0
  N  N592  1  0.344300  0.262400  0.720700  1.0
  N  N593  1  0.673700  0.913900  0.097300  1.0
  N  N594  1  0.326300  0.086100  0.902700  1.0
  N  N595  1  0.837600  0.933400  0.074600  1.0
  N  N596  1  0.162400  0.066600  0.925400  1.0
  N  N597  1  0.135400  0.913300  0.182500  1.0
  N  N598  1  0.864600  0.086700  0.817500  1.0
  N  N599  1  0.821400  0.122500  0.271400  1.0
  N  N600  1  0.178600  0.877500  0.728600  1.0
  O  O601  1  0.461800  0.472200  0.886200  1
  O  O602  1  0.538200  0.527800  0.113800  1
  O  O603  1  0.318900  0.439300  0.856400  1
  O  O604  1  0.681100  0.560700  0.143600  1
  O  O605  1  0.266800  0.423500  0.801500  1
  O  O606  1  0.733200  0.576500  0.198500  1
  O  O607  1  0.216300  0.545100  0.820700  1
  O  O608  1  0.783700  0.454900  0.179300  1
  O  O609  1  0.898000  0.892000  0.352300  1
  O  O610  1  0.102000  0.108000  0.647700  1
  O  O611  1  0.040000  0.815000  0.356800  1
  O  O612  1  0.960000  0.185000  0.643200  1
  O  O613  1  0.179600  0.132900  0.212400  1
  O  O614  1  0.820400  0.867100  0.787600  1
  O  O615  1  0.781000  0.367000  0.298400  1
  O  O616  1  0.219000  0.633000  0.701600  1
  O  O617  1  0.451000  0.601000  0.976600  1
  O  O618  1  0.549000  0.399000  0.023400  1
  O  O619  1  0.432000  0.639000  0.067900  1
  O  O620  1  0.568000  0.361000  0.932100  1
  O  O621  1  0.801000  0.275000  0.386500  1
  O  O622  1  0.199000  0.725000  0.613500  1
  O  O623  1  0.550100  0.289600  0.099400  1
  O  O624  1  0.449900  0.710400  0.900600  1
  O  O625  1  0.135000  0.188000  0.102800  1
  O  O626  1  0.865000  0.812000  0.897200  1
  O  O627  1  0.407200  0.209600  0.093500  1
  O  O628  1  0.592800  0.790400  0.906500  1
  O  O629  1  0.690000  0.289000  0.340100  1
  O  O630  1  0.310000  0.711000  0.659900  1
  O  O631  1  0.250000  0.241800  0.149200  1
  O  O632  1  0.750000  0.758200  0.850800  1
  O  O633  1  0.849100  0.255500  0.152900  1
  O  O634  1  0.150900  0.744500  0.847100  1
  O  O635  1  0.486600  0.203700  0.422700  1
  O  O636  1  0.513400  0.796300  0.577300  1
  O  O637  1  0.218500  0.142000  0.036100  1
  O  O638  1  0.781500  0.858000  0.963900  1
  O  O639  1  0.658000  0.726000  0.403400  1
  O  O640  1  0.342000  0.274000  0.596600  1
  O  O641  1  0.274600  0.024400  0.402800  1
  O  O642  1  0.725400  0.975600  0.597200  1
  O  O643  1  0.612000  0.826000  0.441500  1
  O  O644  1  0.388000  0.174000  0.558500  1
  O  O645  1  0.477700  0.661700  0.163100  1
  O  O646  1  0.522300  0.338300  0.836900  1
  O  O647  1  0.496300  0.688200  0.222600  1
  O  O648  1  0.503700  0.311800  0.777400  1
  O  O649  1  0.517700  0.558000  0.215100  1
  O  O650  1  0.482300  0.442000  0.784900  1
  O  O651  1  0.425100  0.949300  0.279400  1
  O  O652  1  0.574900  0.050700  0.720600  1
  O  O653  1  0.436500  0.825200  0.279100  1
  O  O654  1  0.563500  0.174800  0.720900  1
  O  O655  1  0.463400  0.834900  0.335900  1
  O  O656  1  0.536600  0.165100  0.664100  1
  O  O657  1  0.474000  0.003000  0.052600  1
  O  O658  1  0.526000  0.997000  0.947400  1
  O  O659  1  0.362000  0.008000  0.024400  1
  O  O660  1  0.638000  0.992000  0.975600  1
  O  O661  1  0.384300  0.129300  0.028200  1
  O  O662  1  0.615700  0.870700  0.971800  1
  O  O663  1  0.530500  0.111700  0.221800  1
  O  O664  1  0.469500  0.888300  0.778200  1
  O  O665  1  0.497700  0.085700  0.164300  1
  O  O666  1  0.502300  0.914300  0.835700  1
  O  O667  1  0.448000  0.209800  0.184100  1
  O  O668  1  0.552000  0.790200  0.815900  1
  O  O669  1  0.420400  0.421100  0.353400  1
  O  O670  1  0.579600  0.578900  0.646600  1
  O  O671  1  0.436800  0.400700  0.288500  1
  O  O672  1  0.563200  0.599300  0.711500  1
  O  O673  1  0.479600  0.288500  0.338800  1
  O  O674  1  0.520400  0.711500  0.661200  1
  O  O675  1  0.902000  0.460000  0.444500  1
  O  O676  1  0.098000  0.540000  0.555500  1
  O  O677  1  0.028000  0.372000  0.441600  1
  O  O678  1  0.972000  0.628000  0.558400  1
  O  O679  1  0.994000  0.460000  0.485500  1
  O  O680  1  0.006000  0.540000  0.514500  1
  O  O681  1  0.855000  0.158000  0.092000  1
  O  O682  1  0.145000  0.842000  0.908000  1
  O  O683  1  0.935000  0.099000  0.045400  1
  O  O684  1  0.065000  0.901000  0.954600  1
  O  O685  1  0.983900  0.110000  0.105200  1
  O  O686  1  0.016100  0.890000  0.894800  1
  O  O687  1  0.037700  0.224000  0.259600  1
  O  O688  1  0.962300  0.776000  0.740400  1
  O  O689  1  0.017100  0.209000  0.198900  1
  O  O690  1  0.982900  0.791000  0.801100  1
  O  O691  1  0.912300  0.276100  0.238900  1
  O  O692  1  0.087700  0.723900  0.761100  1
  O  O693  1  0.224200  0.404200  0.388800  1
  O  O694  1  0.775800  0.595800  0.611200  1
  O  O695  1  0.260500  0.345300  0.340000  1
  O  O696  1  0.739500  0.654700  0.660000  1
  O  O697  1  0.191300  0.483000  0.328400  1
  O  O698  1  0.808700  0.517000  0.671600  1
  O  O699  1  0.243000  0.881000  0.074800  1
  O  O700  1  0.757000  0.119000  0.925200  1
  O  O701  1  0.371000  0.815000  0.096400  1
  O  O702  1  0.629000  0.185000  0.903600  1
  O  O703  1  0.277000  0.748000  0.095700  1
  O  O704  1  0.723000  0.252000  0.904300  1
  O  O705  1  0.665900  0.115000  0.124600  1
  O  O706  1  0.334100  0.885000  0.875400  1
  O  O707  1  0.698700  0.176300  0.171300  1
  O  O708  1  0.301300  0.823700  0.828700  1
  O  O709  1  0.742000  0.036600  0.175500  1
  O  O710  1  0.258000  0.963400  0.824500  1
  O  O711  1  0.248000  0.932000  0.361700  1
  O  O712  1  0.752000  0.068000  0.638300  1
  O  O713  1  0.153000  0.048000  0.341000  1
  O  O714  1  0.847000  0.952000  0.659000  1
  O  O715  1  0.219000  0.963000  0.296500  1
  O  O716  1  0.781000  0.037000  0.703500  1
  O  O717  1  0.868000  0.957000  0.415000  1
  O  O718  1  0.132000  0.043000  0.585000  1
  O  O719  1  0.013000  0.903000  0.419000  1
  O  O720  1  0.987000  0.097000  0.581000  1
  O  O721  1  0.471000  0.582000  0.024500  1
  O  O722  1  0.529000  0.418000  0.975500  1
  O  O723  1  0.184000  0.975000  0.058000  1
  O  O724  1  0.816000  0.025000  0.942000  1
  O  O725  1  0.473000  0.086000  0.235700  1
  O  O726  1  0.527000  0.914000  0.764300  1
  O  O727  1  0.710000  0.235000  0.370600  1
  O  O728  1  0.290000  0.765000  0.629400  1
  O  O729  1  0.469000  0.967000  0.035700  1
  O  O730  1  0.531000  0.033000  0.964300  1
  O  O731  1  0.639000  0.687000  0.401000  1
  O  O732  1  0.361000  0.313000  0.599000  1
  O  O733  1  0.681000  0.761000  0.403600  1
  O  O734  1  0.319000  0.239000  0.596400  1
  O  O735  1  0.236000  0.968400  0.272600  1
  O  O736  1  0.764000  0.031600  0.727400  1
  O  O737  1  0.418000  0.945000  0.247400  1
  O  O738  1  0.582000  0.055000  0.752600  1
  O  O739  1  0.014000  0.250000  0.281800  1
  O  O740  1  0.986000  0.750000  0.718200  1
  O  O741  1  0.926000  0.311000  0.326000  1
  O  O742  1  0.074000  0.689000  0.674000  1
  O  O743  1  0.887000  0.307000  0.262900  1
  O  O744  1  0.113000  0.693000  0.737100  1
  O  O745  1  0.216000  0.637000  0.071100  1
  O  O746  1  0.784000  0.363000  0.928900  1
  O  O747  1  0.321300  0.686000  0.072100  1
  O  O748  1  0.678700  0.314000  0.927900  1
  O  O749  1  0.211300  0.716500  0.112600  1
  O  O750  1  0.788700  0.283500  0.887400  1
  O  O751  1  0.727000  0.123000  0.123200  1
  O  O752  1  0.273000  0.877000  0.876800  1
  O  O753  1  0.657000  0.166600  0.175500  1
  O  O754  1  0.343000  0.833400  0.824500  1
  O  O755  1  0.744000  0.033900  0.182100  1
  O  O756  1  0.256000  0.966100  0.817900  1
  O  O757  1  0.345200  0.482600  0.023300  1.0
  O  O758  1  0.654800  0.517400  0.976700  1.0
  O  O759  1  0.318200  0.422500  0.090100  1.0
  O  O760  1  0.681800  0.577500  0.909900  1.0
  O  O761  1  0.038000  0.403100  0.118200  1.0
  O  O762  1  0.962000  0.596900  0.881800  1.0
  O  O763  1  0.949000  0.465400  0.063600  1.0
  O  O764  1  0.051000  0.534600  0.936400  1.0
  O  O765  1  0.675100  0.695100  0.052900  1.0
  O  O766  1  0.324900  0.304900  0.947100  1.0
  O  O767  1  0.596700  0.678700  0.004200  1.0
  O  O768  1  0.403300  0.321300  0.995800  1.0
  O  O769  1  0.997700  0.292500  0.042600  1.0
  O  O770  1  0.002300  0.707500  0.957400  1.0
  O  O771  1  0.048200  0.285400  0.977000  1.0
  O  O772  1  0.951800  0.714600  0.023000  1.0
