# generated using pymatgen
data_H12PtC6N6O7
_symmetry_space_group_name_H-M   'P 1'
_cell_length_a   8.09320000
_cell_length_b   12.08500000
_cell_length_c   14.31800000
_cell_angle_alpha   78.24600000
_cell_angle_beta   81.78600000
_cell_angle_gamma   72.53000000
_symmetry_Int_Tables_number   1
_chemical_formula_structural   H12PtC6N6O7
_chemical_formula_sum   'H48 Pt4 C24 N24 O28'
_cell_volume   1302.77066039
_cell_formula_units_Z   4
loop_
 _symmetry_equiv_pos_site_id
 _symmetry_equiv_pos_as_xyz
  1  'x, y, z'
loop_
 _atom_site_type_symbol
 _atom_site_label
 _atom_site_symmetry_multiplicity
 _atom_site_fract_x
 _atom_site_fract_y
 _atom_site_fract_z
 _atom_site_occupancy
  H  H1  1  0.571100  0.950200  0.170100  1.0
  H  H2  1  0.428900  0.049800  0.829900  1.0
  H  H3  1  0.787000  0.791200  0.238600  1.0
  H  H4  1  0.213000  0.208800  0.761400  1.0
  H  H5  1  0.911100  0.003100  0.376400  1.0
  H  H6  1  0.088900  0.996900  0.623600  1.0
  H  H7  1  0.694800  0.159300  0.307700  1.0
  H  H8  1  0.305200  0.840700  0.692300  1.0
  H  H9  1  0.076500  0.811800  0.572100  1.0
  H  H10  1  0.923500  0.188200  0.427900  1.0
  H  H11  1  0.085000  0.171200  0.281200  1.0
  H  H12  1  0.915000  0.828800  0.718800  1.0
  H  H13  1  0.445400  0.276200  0.366200  1.0
  H  H14  1  0.554600  0.723800  0.633800  1.0
  H  H15  1  0.706000  0.717000  0.482400  1.0
  H  H16  1  0.294000  0.283000  0.517600  1.0
  H  H17  1  0.500700  0.144000  0.016700  1.0
  H  H18  1  0.499300  0.856000  0.983300  1.0
  H  H19  1  0.636300  0.195800  0.035400  1.0
  H  H20  1  0.363700  0.804200  0.964600  1.0
  H  H21  1  0.235900  0.416400  0.131400  1.0
  H  H22  1  0.764100  0.583600  0.868600  1.0
  H  H23  1  0.115700  0.340800  0.145500  1.0
  H  H24  1  0.884300  0.659200  0.854500  1.0
  H  H25  1  0.481300  0.380100  0.992100  1.0
  H  H26  1  0.518700  0.619900  0.007900  1.0
  H  H27  1  0.451500  0.312000  0.913600  1.0
  H  H28  1  0.548500  0.688000  0.086400  1.0
  H  H29  1  0.186600  0.292200  0.997900  1.0
  H  H30  1  0.813400  0.707800  0.002100  1.0
  H  H31  1  0.180600  0.429100  0.979300  1.0
  H  H32  1  0.819400  0.570900  0.020700  1.0
  H  H33  1  0.174300  0.684600  0.228100  1.0
  H  H34  1  0.825700  0.315400  0.771900  1.0
  H  H35  1  0.226600  0.791700  0.232000  1.0
  H  H36  1  0.773400  0.208300  0.768000  1.0
  H  H37  1  0.304200  0.649700  0.484100  1.0
  H  H38  1  0.695800  0.350300  0.515900  1.0
  H  H39  1  0.197400  0.565500  0.496600  1.0
  H  H40  1  0.802600  0.434500  0.503400  1.0
  H  H41  1  0.454800  0.694000  0.312800  1.0
  H  H42  1  0.545200  0.306000  0.687200  1.0
  H  H43  1  0.456400  0.607800  0.240800  1.0
  H  H44  1  0.543600  0.392200  0.759200  1.0
  H  H45  1  0.476900  0.508900  0.403000  1.0
  H  H46  1  0.523100  0.491100  0.597000  1.0
  H  H47  1  0.312100  0.498800  0.358000  1.0
  H  H48  1  0.687900  0.501200  0.642000  1.0
  Pt  Pt49  1  0.050150  0.746700  0.386160  1.0
  Pt  Pt50  1  0.949850  0.253300  0.613840  1.0
  Pt  Pt51  1  0.411970  0.208110  0.179210  1.0
  Pt  Pt52  1  0.588030  0.791890  0.820790  1.0
  C  C53  1  0.640500  0.961800  0.213500  1.0
  C  C54  1  0.359500  0.038200  0.786500  1.0
  C  C55  1  0.768900  0.866700  0.254600  1.0
  C  C56  1  0.231100  0.133300  0.745400  1.0
  C  C57  1  0.840500  0.989900  0.334500  1.0
  C  C58  1  0.159500  0.010100  0.665500  1.0
  C  C59  1  0.712100  0.083200  0.293200  1.0
  C  C60  1  0.287900  0.916800  0.706800  1.0
  C  C61  1  0.966900  0.795500  0.583100  1.0
  C  C62  1  0.033100  0.204500  0.416900  1.0
  C  C63  1  0.128800  0.195100  0.329500  1.0
  C  C64  1  0.871200  0.804900  0.670500  1.0
  C  C65  1  0.339800  0.254600  0.378900  1.0
  C  C66  1  0.660200  0.745400  0.621100  1.0
  C  C67  1  0.752400  0.738800  0.531000  1.0
  C  C68  1  0.247600  0.261200  0.469000  1.0
  C  C69  1  0.432000  0.317900  0.982500  1.0
  C  C70  1  0.568000  0.682100  0.017500  1.0
  C  C71  1  0.239600  0.349800  0.012800  1.0
  C  C72  1  0.760400  0.650200  0.987200  1.0
  C  C73  1  0.389100  0.645400  0.294900  1.0
  C  C74  1  0.610900  0.354600  0.705100  1.0
  C  C75  1  0.364000  0.554100  0.377600  1.0
  C  C76  1  0.636000  0.445900  0.622400  1.0
  N  N77  1  0.227300  0.990700  0.096500  1
  N  N78  1  0.772700  0.009300  0.903500  1
  N  N79  1  0.720300  0.370900  0.202000  1
  N  N80  1  0.279700  0.629100  0.798000  1
  N  N81  1  0.872100  0.542900  0.313900  1
  N  N82  1  0.127900  0.457100  0.686100  1
  N  N83  1  0.341800  0.890900  0.447100  1
  N  N84  1  0.658200  0.109100  0.552900  1
  N  N85  1  0.613000  0.068600  0.233900  1.0
  N  N86  1  0.387000  0.931400  0.766100  1.0
  N  N87  1  0.867300  0.880700  0.316500  1.0
  N  N88  1  0.132700  0.119300  0.683500  1.0
  N  N89  1  0.905300  0.763100  0.513200  1.0
  N  N90  1  0.094700  0.236900  0.486800  1.0
  N  N91  1  0.284500  0.219500  0.311700  1.0
  N  N92  1  0.715500  0.780500  0.688300  1.0
  N  N93  1  0.518500  0.205300  0.039100  1.0
  N  N94  1  0.481500  0.794700  0.960900  1.0
  N  N95  1  0.223700  0.347500  0.119300  1.0
  N  N96  1  0.776300  0.652500  0.880700  1.0
  N  N97  1  0.216700  0.720500  0.266300  1.0
  N  N98  1  0.783300  0.279500  0.733700  1.0
  N  N99  1  0.243800  0.617500  0.452500  1.0
  N  N100  1  0.756200  0.382500  0.547500  1.0
  O  O101  1  0.145100  0.597800  0.129700  1
  O  O102  1  0.854900  0.402200  0.870300  1
  O  O103  1  0.869600  0.215200  0.021000  1
  O  O104  1  0.130400  0.784800  0.979000  1
  O  O105  1  0.078000  0.002000  0.137900  1
  O  O106  1  0.922000  0.998000  0.862100  1
  O  O107  1  0.255600  0.055100  0.024400  1
  O  O108  1  0.744400  0.944900  0.975600  1
  O  O109  1  0.341900  0.903100  0.132300  1
  O  O110  1  0.658100  0.096900  0.867700  1
  O  O111  1  0.612600  0.429000  0.143100  1
  O  O112  1  0.387400  0.571000  0.856900  1
  O  O113  1  0.872300  0.317700  0.170000  1
  O  O114  1  0.127700  0.682300  0.830000  1
  O  O115  1  0.682300  0.360500  0.287200  1
  O  O116  1  0.317700  0.639500  0.712800  1
  O  O117  1  0.011700  0.465000  0.324000  1
  O  O118  1  0.988300  0.535000  0.676000  1
  O  O119  1  0.766600  0.568800  0.385600  1
  O  O120  1  0.233400  0.431200  0.614400  1
  O  O121  1  0.830200  0.598000  0.232600  1
  O  O122  1  0.169800  0.402000  0.767400  1
  O  O123  1  0.448000  0.914000  0.392000  1
  O  O124  1  0.552000  0.086000  0.608000  1
  O  O125  1  0.189100  0.958900  0.448900  1
  O  O126  1  0.810900  0.041100  0.551100  1
  O  O127  1  0.364800  0.796700  0.503700  1
  O  O128  1  0.635200  0.203300  0.496300  1
