# generated using pymatgen
data_H108Pt6C84N42O65
_symmetry_space_group_name_H-M   'P 1'
_cell_length_a   19.51500000
_cell_length_b   19.85160000
_cell_length_c   19.85160000
_cell_angle_alpha   120.00000000
_cell_angle_beta   90.00000000
_cell_angle_gamma   90.00000000
_symmetry_Int_Tables_number   1
_chemical_formula_structural   H108Pt6C84N42O65
_chemical_formula_sum   'H216 Pt12 C168 N84 O130'
_cell_volume   6660.24521046
_cell_formula_units_Z   2
loop_
 _symmetry_equiv_pos_site_id
 _symmetry_equiv_pos_as_xyz
  1  'x, y, z'
loop_
 _atom_site_type_symbol
 _atom_site_label
 _atom_site_symmetry_multiplicity
 _atom_site_fract_x
 _atom_site_fract_y
 _atom_site_fract_z
 _atom_site_occupancy
  H  H1  1  0.924100  0.888500  0.442200  1.0
  H  H2  1  0.924100  0.553700  0.111500  1.0
  H  H3  1  0.924100  0.557800  0.446300  1.0
  H  H4  1  0.075900  0.111500  0.557800  1.0
  H  H5  1  0.075900  0.446300  0.888500  1.0
  H  H6  1  0.075900  0.442200  0.553700  1.0
  H  H7  1  0.905300  0.808800  0.384100  1.0
  H  H8  1  0.905300  0.575300  0.191200  1.0
  H  H9  1  0.905300  0.615900  0.424700  1.0
  H  H10  1  0.094700  0.191200  0.615900  1.0
  H  H11  1  0.094700  0.424700  0.808800  1.0
  H  H12  1  0.094700  0.384100  0.575300  1.0
  H  H13  1  0.042400  0.845700  0.262800  1.0
  H  H14  1  0.042400  0.417100  0.154300  1.0
  H  H15  1  0.042400  0.737200  0.582900  1.0
  H  H16  1  0.957600  0.154300  0.737200  1.0
  H  H17  1  0.957600  0.582900  0.845700  1.0
  H  H18  1  0.957600  0.262800  0.417100  1.0
  H  H19  1  0.044500  0.925200  0.326800  1.0
  H  H20  1  0.044500  0.401600  0.074800  1.0
  H  H21  1  0.044500  0.673200  0.598400  1.0
  H  H22  1  0.955500  0.074800  0.673200  1.0
  H  H23  1  0.955500  0.598400  0.925200  1.0
  H  H24  1  0.955500  0.326800  0.401600  1.0
  H  H25  1  0.596900  0.811300  0.385400  1.0
  H  H26  1  0.596900  0.574100  0.188700  1.0
  H  H27  1  0.596900  0.614600  0.425900  1.0
  H  H28  1  0.403100  0.188700  0.614600  1.0
  H  H29  1  0.403100  0.425900  0.811300  1.0
  H  H30  1  0.403100  0.385400  0.574100  1.0
  H  H31  1  0.576900  0.891000  0.442500  1.0
  H  H32  1  0.576900  0.551500  0.109000  1.0
  H  H33  1  0.576900  0.557500  0.448500  1.0
  H  H34  1  0.423100  0.109000  0.557500  1.0
  H  H35  1  0.423100  0.448500  0.891000  1.0
  H  H36  1  0.423100  0.442500  0.551500  1.0
  H  H37  1  0.455000  0.924600  0.326500  1.0
  H  H38  1  0.455000  0.401900  0.075400  1.0
  H  H39  1  0.455000  0.673500  0.598100  1.0
  H  H40  1  0.545000  0.075400  0.673500  1.0
  H  H41  1  0.545000  0.598100  0.924600  1.0
  H  H42  1  0.545000  0.326500  0.401900  1.0
  H  H43  1  0.457300  0.844700  0.262700  1.0
  H  H44  1  0.457300  0.418000  0.155300  1.0
  H  H45  1  0.457300  0.737300  0.582000  1.0
  H  H46  1  0.542700  0.155300  0.737300  1.0
  H  H47  1  0.542700  0.582000  0.844700  1.0
  H  H48  1  0.542700  0.262700  0.418000  1.0
  H  H49  1  0.919900  0.811700  0.139400  1.0
  H  H50  1  0.919900  0.327700  0.188300  1.0
  H  H51  1  0.919900  0.860600  0.672300  1.0
  H  H52  1  0.080100  0.188300  0.860600  1.0
  H  H53  1  0.080100  0.672300  0.811700  1.0
  H  H54  1  0.080100  0.139400  0.327700  1.0
  H  H55  1  0.916600  0.842500  0.042600  1.0
  H  H56  1  0.916600  0.200100  0.157500  1.0
  H  H57  1  0.916600  0.957400  0.799900  1.0
  H  H58  1  0.083400  0.157500  0.957400  1.0
  H  H59  1  0.083400  0.799900  0.842500  1.0
  H  H60  1  0.083400  0.042600  0.200100  1.0
  H  H61  1  0.924100  0.064600  0.208300  1.0
  H  H62  1  0.924100  0.143700  0.935400  1.0
  H  H63  1  0.924100  0.791700  0.856300  1.0
  H  H64  1  0.075900  0.935400  0.791700  1.0
  H  H65  1  0.075900  0.856300  0.064600  1.0
  H  H66  1  0.075900  0.208300  0.143700  1.0
  H  H67  1  0.920600  0.025500  0.299100  1.0
  H  H68  1  0.920600  0.273600  0.974500  1.0
  H  H69  1  0.920600  0.700900  0.726400  1.0
  H  H70  1  0.079400  0.974500  0.700900  1.0
  H  H71  1  0.079400  0.726400  0.025500  1.0
  H  H72  1  0.079400  0.299100  0.273600  1.0
  H  H73  1  0.575900  0.810700  0.140600  1.0
  H  H74  1  0.575900  0.329900  0.189300  1.0
  H  H75  1  0.575900  0.859400  0.670100  1.0
  H  H76  1  0.424100  0.189300  0.859400  1.0
  H  H77  1  0.424100  0.670100  0.810700  1.0
  H  H78  1  0.424100  0.140600  0.329900  1.0
  H  H79  1  0.581800  0.843100  0.043600  1.0
  H  H80  1  0.581800  0.200500  0.156900  1.0
  H  H81  1  0.581800  0.956400  0.799500  1.0
  H  H82  1  0.418200  0.156900  0.956400  1.0
  H  H83  1  0.418200  0.799500  0.843100  1.0
  H  H84  1  0.418200  0.043600  0.200500  1.0
  H  H85  1  0.576400  0.063900  0.208200  1.0
  H  H86  1  0.576400  0.144300  0.936100  1.0
  H  H87  1  0.576400  0.791800  0.855700  1.0
  H  H88  1  0.423600  0.936100  0.791800  1.0
  H  H89  1  0.423600  0.855700  0.063900  1.0
  H  H90  1  0.423600  0.208200  0.144300  1.0
  H  H91  1  0.581100  0.024800  0.299800  1.0
  H  H92  1  0.581100  0.275000  0.975200  1.0
  H  H93  1  0.581100  0.700200  0.725000  1.0
  H  H94  1  0.418900  0.975200  0.700200  1.0
  H  H95  1  0.418900  0.725000  0.024800  1.0
  H  H96  1  0.418900  0.299800  0.275000  1.0
  H  H97  1  0.808900  0.772200  0.239900  1.0
  H  H98  1  0.808900  0.467700  0.227800  1.0
  H  H99  1  0.808900  0.760100  0.532300  1.0
  H  H100  1  0.191100  0.227800  0.760100  1.0
  H  H101  1  0.191100  0.532300  0.772200  1.0
  H  H102  1  0.191100  0.239900  0.467700  1.0
  H  H103  1  0.697800  0.771000  0.243700  1.0
  H  H104  1  0.697800  0.472700  0.229000  1.0
  H  H105  1  0.697800  0.756300  0.527300  1.0
  H  H106  1  0.302200  0.229000  0.756300  1.0
  H  H107  1  0.302200  0.527300  0.771000  1.0
  H  H108  1  0.302200  0.243700  0.472700  1.0
  H  H109  1  0.694000  0.993500  0.397100  1.0
  H  H110  1  0.694000  0.403600  0.006500  1.0
  H  H111  1  0.694000  0.602900  0.596400  1.0
  H  H112  1  0.306000  0.006500  0.602900  1.0
  H  H113  1  0.306000  0.596400  0.993500  1.0
  H  H114  1  0.306000  0.397100  0.403600  1.0
  H  H115  1  0.808600  0.992000  0.398300  1.0
  H  H116  1  0.808600  0.406300  0.008000  1.0
  H  H117  1  0.808600  0.601700  0.593700  1.0
  H  H118  1  0.191400  0.008000  0.601700  1.0
  H  H119  1  0.191400  0.593700  0.992000  1.0
  H  H120  1  0.191400  0.398300  0.406300  1.0
  H  H121  1  0.081800  0.894500  0.401400  1.0
  H  H122  1  0.081800  0.506900  0.105500  1.0
  H  H123  1  0.081800  0.598600  0.493100  1.0
  H  H124  1  0.918200  0.105500  0.598600  1.0
  H  H125  1  0.918200  0.493100  0.894500  1.0
  H  H126  1  0.918200  0.401400  0.506900  1.0
  H  H127  1  0.089400  0.810500  0.329100  1.0
  H  H128  1  0.089400  0.518600  0.189500  1.0
  H  H129  1  0.089400  0.670900  0.481400  1.0
  H  H130  1  0.910600  0.189500  0.670900  1.0
  H  H131  1  0.910600  0.481400  0.810500  1.0
  H  H132  1  0.910600  0.329100  0.518600  1.0
  H  H133  1  0.018900  0.838300  0.440800  1.0
  H  H134  1  0.018900  0.602500  0.161700  1.0
  H  H135  1  0.018900  0.559200  0.397500  1.0
  H  H136  1  0.981100  0.161700  0.559200  1.0
  H  H137  1  0.981100  0.397500  0.838300  1.0
  H  H138  1  0.981100  0.440800  0.602500  1.0
  H  H139  1  0.005300  0.768700  0.357700  1.0
  H  H140  1  0.005300  0.589000  0.231300  1.0
  H  H141  1  0.005300  0.642300  0.411000  1.0
  H  H142  1  0.994700  0.231300  0.642300  1.0
  H  H143  1  0.994700  0.411000  0.768700  1.0
  H  H144  1  0.994700  0.357700  0.589000  1.0
  H  H145  1  0.496800  0.769200  0.358600  1.0
  H  H146  1  0.496800  0.589400  0.230800  1.0
  H  H147  1  0.496800  0.641400  0.410600  1.0
  H  H148  1  0.503200  0.230800  0.641400  1.0
  H  H149  1  0.503200  0.410600  0.769200  1.0
  H  H150  1  0.503200  0.358600  0.589400  1.0
  H  H151  1  0.482800  0.838800  0.441500  1.0
  H  H152  1  0.482800  0.602700  0.161200  1.0
  H  H153  1  0.482800  0.558500  0.397300  1.0
  H  H154  1  0.517200  0.161200  0.558500  1.0
  H  H155  1  0.517200  0.397300  0.838800  1.0
  H  H156  1  0.517200  0.441500  0.602700  1.0
  H  H157  1  0.421800  0.894000  0.402600  1.0
  H  H158  1  0.421800  0.508600  0.106000  1.0
  H  H159  1  0.421800  0.597400  0.491400  1.0
  H  H160  1  0.578200  0.106000  0.597400  1.0
  H  H161  1  0.578200  0.491400  0.894000  1.0
  H  H162  1  0.578200  0.402600  0.508600  1.0
  H  H163  1  0.413700  0.809900  0.331100  1.0
  H  H164  1  0.413700  0.521200  0.190100  1.0
  H  H165  1  0.413700  0.668900  0.478800  1.0
  H  H166  1  0.586300  0.190100  0.668900  1.0
  H  H167  1  0.586300  0.478800  0.809900  1.0
  H  H168  1  0.586300  0.331100  0.521200  1.0
  H  H169  1  0.750200  0.279000  0.914100  1.0
  H  H170  1  0.750200  0.635100  0.721000  1.0
  H  H171  1  0.750200  0.085900  0.364900  1.0
  H  H172  1  0.249800  0.721000  0.085900  1.0
  H  H173  1  0.249800  0.364900  0.279000  1.0
  H  H174  1  0.249800  0.914100  0.635100  1.0
  H  H175  1  0.710800  0.202300  0.893700  1.0
  H  H176  1  0.710800  0.691400  0.797700  1.0
  H  H177  1  0.710800  0.106300  0.308600  1.0
  H  H178  1  0.289200  0.797700  0.106300  1.0
  H  H179  1  0.289200  0.308600  0.202300  1.0
  H  H180  1  0.289200  0.893700  0.691400  1.0
  H  H181  1  0.791100  0.203600  0.895200  1.0
  H  H182  1  0.791100  0.691600  0.796400  1.0
  H  H183  1  0.791100  0.104800  0.308400  1.0
  H  H184  1  0.208900  0.796400  0.104800  1.0
  H  H185  1  0.208900  0.308400  0.203600  1.0
  H  H186  1  0.208900  0.895200  0.691600  1.0
  H  H187  1  0.751000  0.372900  0.251700  1.0
  H  H188  1  0.751000  0.878800  0.627100  1.0
  H  H189  1  0.751000  0.748300  0.121200  1.0
  H  H190  1  0.249000  0.627100  0.748300  1.0
  H  H191  1  0.249000  0.121200  0.372900  1.0
  H  H192  1  0.249000  0.251700  0.878800  1.0
  H  H193  1  0.791400  0.298100  0.235600  1.0
  H  H194  1  0.791400  0.937500  0.701900  1.0
  H  H195  1  0.791400  0.764400  0.062500  1.0
  H  H196  1  0.208600  0.701900  0.764400  1.0
  H  H197  1  0.208600  0.062500  0.298100  1.0
  H  H198  1  0.208600  0.235600  0.937500  1.0
  H  H199  1  0.711100  0.298000  0.236200  1.0
  H  H200  1  0.711100  0.938200  0.702000  1.0
  H  H201  1  0.711100  0.763800  0.061800  1.0
  H  H202  1  0.288900  0.702000  0.763800  1.0
  H  H203  1  0.288900  0.061800  0.298000  1.0
  H  H204  1  0.288900  0.236200  0.938200  1.0
  H  H205  1  0.751500  0.103100  0.908900  1.0
  H  H206  1  0.751500  0.805800  0.896900  1.0
  H  H207  1  0.751500  0.091100  0.194200  1.0
  H  H208  1  0.248500  0.896900  0.091100  1.0
  H  H209  1  0.248500  0.194200  0.103100  1.0
  H  H210  1  0.248500  0.908900  0.805800  1.0
  H  H211  1  0.751200  0.173100  0.164100  1.0
  H  H212  1  0.751200  0.991000  0.826900  1.0
  H  H213  1  0.751200  0.835900  0.009000  1.0
  H  H214  1  0.248800  0.826900  0.835900  1.0
  H  H215  1  0.248800  0.009000  0.173100  1.0
  H  H216  1  0.248800  0.164100  0.991000  1.0
  Pt  Pt217  1  0.923380  0.881720  0.312260  1.0
  Pt  Pt218  1  0.923380  0.430540  0.118280  1.0
  Pt  Pt219  1  0.923380  0.687740  0.569460  1.0
  Pt  Pt220  1  0.076620  0.118280  0.687740  1.0
  Pt  Pt221  1  0.076620  0.569460  0.881720  1.0
  Pt  Pt222  1  0.076620  0.312260  0.430540  1.0
  Pt  Pt223  1  0.576560  0.881570  0.312190  1.0
  Pt  Pt224  1  0.576560  0.430620  0.118430  1.0
  Pt  Pt225  1  0.576560  0.687810  0.569380  1.0
  Pt  Pt226  1  0.423440  0.118430  0.687810  1.0
  Pt  Pt227  1  0.423440  0.569380  0.881570  1.0
  Pt  Pt228  1  0.423440  0.312190  0.430620  1.0
  C  C229  1  0.919600  0.863900  0.153300  1.0
  C  C230  1  0.919600  0.289400  0.136100  1.0
  C  C231  1  0.919600  0.846700  0.710600  1.0
  C  C232  1  0.080400  0.136100  0.846700  1.0
  C  C233  1  0.080400  0.710600  0.863900  1.0
  C  C234  1  0.080400  0.153300  0.289400  1.0
  C  C235  1  0.918300  0.881700  0.094300  1.0
  C  C236  1  0.918300  0.212600  0.118300  1.0
  C  C237  1  0.918300  0.905700  0.787400  1.0
  C  C238  1  0.081700  0.118300  0.905700  1.0
  C  C239  1  0.081700  0.787400  0.881700  1.0
  C  C240  1  0.081700  0.094300  0.212600  1.0
  C  C241  1  0.919600  0.957800  0.113400  1.0
  C  C242  1  0.919600  0.155600  0.042200  1.0
  C  C243  1  0.919600  0.886600  0.844400  1.0
  C  C244  1  0.080400  0.042200  0.886600  1.0
  C  C245  1  0.080400  0.844400  0.957800  1.0
  C  C246  1  0.080400  0.113400  0.155600  1.0
  C  C247  1  0.921900  0.011900  0.192100  1.0
  C  C248  1  0.921900  0.180200  0.988100  1.0
  C  C249  1  0.921900  0.807900  0.819800  1.0
  C  C250  1  0.078100  0.988100  0.807900  1.0
  C  C251  1  0.078100  0.819800  0.011900  1.0
  C  C252  1  0.078100  0.192100  0.180200  1.0
  C  C253  1  0.920900  0.988000  0.246700  1.0
  C  C254  1  0.920900  0.258700  0.012000  1.0
  C  C255  1  0.920900  0.753300  0.741300  1.0
  C  C256  1  0.079100  0.012000  0.753300  1.0
  C  C257  1  0.079100  0.741300  0.988000  1.0
  C  C258  1  0.079100  0.246700  0.258700  1.0
  C  C259  1  0.918900  0.980200  0.052500  1.0
  C  C260  1  0.918900  0.072300  0.019800  1.0
  C  C261  1  0.918900  0.947500  0.927700  1.0
  C  C262  1  0.081100  0.019800  0.947500  1.0
  C  C263  1  0.081100  0.927700  0.980200  1.0
  C  C264  1  0.081100  0.052500  0.072300  1.0
  C  C265  1  0.578100  0.862800  0.154200  1.0
  C  C266  1  0.578100  0.291400  0.137200  1.0
  C  C267  1  0.578100  0.845800  0.708600  1.0
  C  C268  1  0.421900  0.137200  0.845800  1.0
  C  C269  1  0.421900  0.708600  0.862800  1.0
  C  C270  1  0.421900  0.154200  0.291400  1.0
  C  C271  1  0.579900  0.882400  0.095500  1.0
  C  C272  1  0.579900  0.213100  0.117600  1.0
  C  C273  1  0.579900  0.904500  0.786900  1.0
  C  C274  1  0.420100  0.117600  0.904500  1.0
  C  C275  1  0.420100  0.786900  0.882400  1.0
  C  C276  1  0.420100  0.095500  0.213100  1.0
  C  C277  1  0.579100  0.958000  0.113300  1.0
  C  C278  1  0.579100  0.155300  0.042000  1.0
  C  C279  1  0.579100  0.886700  0.844700  1.0
  C  C280  1  0.420900  0.042000  0.886700  1.0
  C  C281  1  0.420900  0.844700  0.958000  1.0
  C  C282  1  0.420900  0.113300  0.155300  1.0
  C  C283  1  0.578100  0.011100  0.191800  1.0
  C  C284  1  0.578100  0.180700  0.988900  1.0
  C  C285  1  0.578100  0.808200  0.819300  1.0
  C  C286  1  0.421900  0.988900  0.808200  1.0
  C  C287  1  0.421900  0.819300  0.011100  1.0
  C  C288  1  0.421900  0.191800  0.180700  1.0
  C  C289  1  0.579700  0.987400  0.247300  1.0
  C  C290  1  0.579700  0.259900  0.012600  1.0
  C  C291  1  0.579700  0.752700  0.740100  1.0
  C  C292  1  0.420300  0.012600  0.752700  1.0
  C  C293  1  0.420300  0.740100  0.987400  1.0
  C  C294  1  0.420300  0.247300  0.259900  1.0
  C  C295  1  0.582000  0.979700  0.052300  1.0
  C  C296  1  0.582000  0.072600  0.020300  1.0
  C  C297  1  0.582000  0.947700  0.927400  1.0
  C  C298  1  0.418000  0.020300  0.947700  1.0
  C  C299  1  0.418000  0.927400  0.979700  1.0
  C  C300  1  0.418000  0.052300  0.072600  1.0
  C  C301  1  0.785300  0.817900  0.272500  1.0
  C  C302  1  0.785300  0.454600  0.182100  1.0
  C  C303  1  0.785300  0.727500  0.545400  1.0
  C  C304  1  0.214700  0.182100  0.727500  1.0
  C  C305  1  0.214700  0.545400  0.817900  1.0
  C  C306  1  0.214700  0.272500  0.454600  1.0
  C  C307  1  0.720200  0.818100  0.274000  1.0
  C  C308  1  0.720200  0.455900  0.181900  1.0
  C  C309  1  0.720200  0.726000  0.544100  1.0
  C  C310  1  0.279800  0.181900  0.726000  1.0
  C  C311  1  0.279800  0.544100  0.818100  1.0
  C  C312  1  0.279800  0.274000  0.455900  1.0
  C  C313  1  0.716600  0.947300  0.364000  1.0
  C  C314  1  0.716600  0.416700  0.052700  1.0
  C  C315  1  0.716600  0.636000  0.583300  1.0
  C  C316  1  0.283400  0.052700  0.636000  1.0
  C  C317  1  0.283400  0.583300  0.947300  1.0
  C  C318  1  0.283400  0.364000  0.416700  1.0
  C  C319  1  0.785100  0.946700  0.364300  1.0
  C  C320  1  0.785100  0.417600  0.053300  1.0
  C  C321  1  0.785100  0.635700  0.582400  1.0
  C  C322  1  0.214900  0.053300  0.635700  1.0
  C  C323  1  0.214900  0.582400  0.946700  1.0
  C  C324  1  0.214900  0.364300  0.417600  1.0
  C  C325  1  0.057200  0.852000  0.359000  1.0
  C  C326  1  0.057200  0.507000  0.148000  1.0
  C  C327  1  0.057200  0.641000  0.493000  1.0
  C  C328  1  0.942800  0.148000  0.641000  1.0
  C  C329  1  0.942800  0.493000  0.852000  1.0
  C  C330  1  0.942800  0.359000  0.507000  1.0
  C  C331  1  0.004800  0.825000  0.389000  1.0
  C  C332  1  0.004800  0.564000  0.175000  1.0
  C  C333  1  0.004800  0.611000  0.436000  1.0
  C  C334  1  0.995200  0.175000  0.611000  1.0
  C  C335  1  0.995200  0.436000  0.825000  1.0
  C  C336  1  0.995200  0.389000  0.564000  1.0
  C  C337  1  0.496900  0.826000  0.390000  1.0
  C  C338  1  0.496900  0.564000  0.174000  1.0
  C  C339  1  0.496900  0.610000  0.436000  1.0
  C  C340  1  0.503100  0.174000  0.610000  1.0
  C  C341  1  0.503100  0.436000  0.826000  1.0
  C  C342  1  0.503100  0.390000  0.564000  1.0
  C  C343  1  0.446200  0.852000  0.360300  1.0
  C  C344  1  0.446200  0.508300  0.148000  1.0
  C  C345  1  0.446200  0.639700  0.491700  1.0
  C  C346  1  0.553800  0.148000  0.639700  1.0
  C  C347  1  0.553800  0.491700  0.852000  1.0
  C  C348  1  0.553800  0.360300  0.508300  1.0
  C  C349  1  0.750500  0.233300  0.919000  1.0
  C  C350  1  0.750500  0.685700  0.766700  1.0
  C  C351  1  0.750500  0.081000  0.314300  1.0
  C  C352  1  0.249500  0.766700  0.081000  1.0
  C  C353  1  0.249500  0.314300  0.233300  1.0
  C  C354  1  0.249500  0.919000  0.685700  1.0
  C  C355  1  0.751000  0.317100  0.222900  1.0
  C  C356  1  0.751000  0.905800  0.682900  1.0
  C  C357  1  0.751000  0.777100  0.094200  1.0
  C  C358  1  0.249000  0.682900  0.777100  1.0
  C  C359  1  0.249000  0.094200  0.317100  1.0
  C  C360  1  0.249000  0.222900  0.905800  1.0
  C  C361  1  0.749800  0.195400  0.015200  1.0
  C  C362  1  0.749800  0.819800  0.804600  1.0
  C  C363  1  0.749800  0.984800  0.180200  1.0
  C  C364  1  0.250200  0.804600  0.984800  1.0
  C  C365  1  0.250200  0.180200  0.195400  1.0
  C  C366  1  0.250200  0.015200  0.819800  1.0
  C  C367  1  0.750700  0.117900  0.961400  1.0
  C  C368  1  0.750700  0.843500  0.882100  1.0
  C  C369  1  0.750700  0.038600  0.156500  1.0
  C  C370  1  0.249300  0.882100  0.038600  1.0
  C  C371  1  0.249300  0.156500  0.117900  1.0
  C  C372  1  0.249300  0.961400  0.843500  1.0
  C  C373  1  0.750300  0.059600  0.981500  1.0
  C  C374  1  0.750300  0.921900  0.940400  1.0
  C  C375  1  0.750300  0.018500  0.078100  1.0
  C  C376  1  0.249700  0.940400  0.018500  1.0
  C  C377  1  0.249700  0.078100  0.059600  1.0
  C  C378  1  0.249700  0.981500  0.921900  1.0
  C  C379  1  0.750200  0.080800  0.056300  1.0
  C  C380  1  0.750200  0.975500  0.919200  1.0
  C  C381  1  0.750200  0.943700  0.024500  1.0
  C  C382  1  0.249800  0.919200  0.943700  1.0
  C  C383  1  0.249800  0.024500  0.080800  1.0
  C  C384  1  0.249800  0.056300  0.975500  1.0
  C  C385  1  0.750800  0.158900  0.111800  1.0
  C  C386  1  0.750800  0.952900  0.841100  1.0
  C  C387  1  0.750800  0.888200  0.047100  1.0
  C  C388  1  0.249200  0.841100  0.888200  1.0
  C  C389  1  0.249200  0.047100  0.158900  1.0
  C  C390  1  0.249200  0.111800  0.952900  1.0
  C  C391  1  0.750700  0.216500  0.092300  1.0
  C  C392  1  0.750700  0.875800  0.783500  1.0
  C  C393  1  0.750700  0.907700  0.124200  1.0
  C  C394  1  0.249300  0.783500  0.907700  1.0
  C  C395  1  0.249300  0.124200  0.216500  1.0
  C  C396  1  0.249300  0.092300  0.875800  1.0
  N  N397  1  0.595000  0.948000  0.597000  1
  N  N398  1  0.595000  0.649000  0.052000  1
  N  N399  1  0.595000  0.403000  0.351000  1
  N  N400  1  0.405000  0.052000  0.403000  1
  N  N401  1  0.405000  0.351000  0.948000  1
  N  N402  1  0.405000  0.597000  0.649000  1
  N  N403  1  0.895000  0.163000  0.439000  1
  N  N404  1  0.895000  0.276000  0.837000  1
  N  N405  1  0.895000  0.561000  0.724000  1
  N  N406  1  0.105000  0.837000  0.561000  1
  N  N407  1  0.105000  0.724000  0.163000  1
  N  N408  1  0.105000  0.439000  0.276000  1
  N  N409  1  0.090000  0.055000  0.401000  1
  N  N410  1  0.090000  0.346000  0.945000  1
  N  N411  1  0.090000  0.599000  0.654000  1
  N  N412  1  0.910000  0.945000  0.599000  1
  N  N413  1  0.910000  0.654000  0.055000  1
  N  N414  1  0.910000  0.401000  0.346000  1
  N  N415  1  0.584000  0.165000  0.410000  1
  N  N416  1  0.584000  0.245000  0.835000  1
  N  N417  1  0.584000  0.590000  0.755000  1
  N  N418  1  0.416000  0.835000  0.590000  1
  N  N419  1  0.416000  0.755000  0.165000  1
  N  N420  1  0.416000  0.410000  0.245000  1
  N  N421  1  0.920300  0.915700  0.227600  1.0
  N  N422  1  0.920300  0.311900  0.084300  1.0
  N  N423  1  0.920300  0.772400  0.688100  1.0
  N  N424  1  0.079700  0.084300  0.772400  1.0
  N  N425  1  0.079700  0.688100  0.915700  1.0
  N  N426  1  0.079700  0.227600  0.311900  1.0
  N  N427  1  0.918500  0.925900  0.979300  1.0
  N  N428  1  0.918500  0.053400  0.074100  1.0
  N  N429  1  0.918500  0.020700  0.946600  1.0
  N  N430  1  0.081500  0.074100  0.020700  1.0
  N  N431  1  0.081500  0.946600  0.925900  1.0
  N  N432  1  0.081500  0.979300  0.053400  1.0
  N  N433  1  0.579400  0.916400  0.227600  1.0
  N  N434  1  0.579400  0.311200  0.083600  1.0
  N  N435  1  0.579400  0.772400  0.688800  1.0
  N  N436  1  0.420600  0.083600  0.772400  1.0
  N  N437  1  0.420600  0.688800  0.916400  1.0
  N  N438  1  0.420600  0.227600  0.311200  1.0
  N  N439  1  0.581600  0.925500  0.979500  1.0
  N  N440  1  0.581600  0.054000  0.074500  1.0
  N  N441  1  0.581600  0.020500  0.946000  1.0
  N  N442  1  0.418400  0.074500  0.020500  1.0
  N  N443  1  0.418400  0.946000  0.925500  1.0
  N  N444  1  0.418400  0.979500  0.054000  1.0
  N  N445  1  0.820100  0.883800  0.318000  1.0
  N  N446  1  0.820100  0.434200  0.116200  1.0
  N  N447  1  0.820100  0.682000  0.565800  1.0
  N  N448  1  0.179900  0.116200  0.682000  1.0
  N  N449  1  0.179900  0.565800  0.883800  1.0
  N  N450  1  0.179900  0.318000  0.434200  1.0
  N  N451  1  0.679700  0.885100  0.318800  1.0
  N  N452  1  0.679700  0.433700  0.114900  1.0
  N  N453  1  0.679700  0.681200  0.566300  1.0
  N  N454  1  0.320300  0.114900  0.681200  1.0
  N  N455  1  0.320300  0.566300  0.885100  1.0
  N  N456  1  0.320300  0.318800  0.433700  1.0
  N  N457  1  0.933600  0.848600  0.394300  1.0
  N  N458  1  0.933600  0.545700  0.151400  1.0
  N  N459  1  0.933600  0.605700  0.454300  1.0
  N  N460  1  0.066400  0.151400  0.605700  1.0
  N  N461  1  0.066400  0.454300  0.848600  1.0
  N  N462  1  0.066400  0.394300  0.545700  1.0
  N  N463  1  0.028300  0.877300  0.311900  1.0
  N  N464  1  0.028300  0.434600  0.122700  1.0
  N  N465  1  0.028300  0.688100  0.565400  1.0
  N  N466  1  0.971700  0.122700  0.688100  1.0
  N  N467  1  0.971700  0.565400  0.877300  1.0
  N  N468  1  0.971700  0.311900  0.434600  1.0
  N  N469  1  0.567900  0.850400  0.395000  1.0
  N  N470  1  0.567900  0.544600  0.149600  1.0
  N  N471  1  0.567900  0.605000  0.455400  1.0
  N  N472  1  0.432100  0.149600  0.605000  1.0
  N  N473  1  0.432100  0.455400  0.850400  1.0
  N  N474  1  0.432100  0.395000  0.544600  1.0
  N  N475  1  0.471800  0.876900  0.311500  1.0
  N  N476  1  0.471800  0.434600  0.123100  1.0
  N  N477  1  0.471800  0.688500  0.565400  1.0
  N  N478  1  0.528200  0.123100  0.688500  1.0
  N  N479  1  0.528200  0.565400  0.876900  1.0
  N  N480  1  0.528200  0.311500  0.434600  1.0
  O  O481  1  0.598000  0.974000  0.553000  1
  O  O482  1  0.598000  0.579000  0.026000  1
  O  O483  1  0.598000  0.447000  0.421000  1
  O  O484  1  0.402000  0.026000  0.447000  1
  O  O485  1  0.402000  0.421000  0.974000  1
  O  O486  1  0.402000  0.553000  0.579000  1
  O  O487  1  0.603700  0.877000  0.560000  1
  O  O488  1  0.603700  0.683000  0.123000  1
  O  O489  1  0.603700  0.440000  0.317000  1
  O  O490  1  0.396300  0.123000  0.440000  1
  O  O491  1  0.396300  0.317000  0.877000  1
  O  O492  1  0.396300  0.560000  0.683000  1
  O  O493  1  0.580500  0.974200  0.658300  1
  O  O494  1  0.580500  0.684100  0.025800  1
  O  O495  1  0.580500  0.341700  0.315900  1
  O  O496  1  0.419500  0.025800  0.341700  1
  O  O497  1  0.419500  0.315900  0.974200  1
  O  O498  1  0.419500  0.658300  0.684100  1
  O  O499  1  0.854000  0.215000  0.486000  1
  O  O500  1  0.854000  0.271000  0.785000  1
  O  O501  1  0.854000  0.514000  0.729000  1
  O  O502  1  0.146000  0.785000  0.514000  1
  O  O503  1  0.146000  0.729000  0.215000  1
  O  O504  1  0.146000  0.486000  0.271000  1
  O  O505  1  0.937700  0.158700  0.403700  1
  O  O506  1  0.937700  0.245000  0.841300  1
  O  O507  1  0.937700  0.596300  0.755000  1
  O  O508  1  0.062300  0.841300  0.596300  1
  O  O509  1  0.062300  0.755000  0.158700  1
  O  O510  1  0.062300  0.403700  0.245000  1
  O  O511  1  0.882900  0.096300  0.444200  1
  O  O512  1  0.882900  0.347900  0.903700  1
  O  O513  1  0.882900  0.555800  0.652100  1
  O  O514  1  0.117100  0.903700  0.555800  1
  O  O515  1  0.117100  0.652100  0.096300  1
  O  O516  1  0.117100  0.444200  0.347900  1
  O  O517  1  0.086000  0.030000  0.450000  1
  O  O518  1  0.086000  0.420000  0.970000  1
  O  O519  1  0.086000  0.550000  0.580000  1
  O  O520  1  0.914000  0.970000  0.550000  1
  O  O521  1  0.914000  0.580000  0.030000  1
  O  O522  1  0.914000  0.450000  0.420000  1
  O  O523  1  0.102600  0.127000  0.444000  1
  O  O524  1  0.102600  0.317000  0.873000  1
  O  O525  1  0.102600  0.556000  0.683000  1
  O  O526  1  0.897400  0.873000  0.556000  1
  O  O527  1  0.897400  0.683000  0.127000  1
  O  O528  1  0.897400  0.444000  0.317000  1
  O  O529  1  0.079700  0.022800  0.337100  1
  O  O530  1  0.079700  0.314300  0.977200  1
  O  O531  1  0.079700  0.662900  0.685700  1
  O  O532  1  0.920300  0.977200  0.662900  1
  O  O533  1  0.920300  0.685700  0.022800  1
  O  O534  1  0.920300  0.337100  0.314300  1
  O  O535  1  0.750800  0.624500  0.168400  1
  O  O536  1  0.750800  0.543900  0.375500  1
  O  O537  1  0.750800  0.831600  0.456100  1
  O  O538  1  0.249200  0.375500  0.831600  1
  O  O539  1  0.249200  0.456100  0.624500  1
  O  O540  1  0.249200  0.168400  0.543900  1
  O  O541  1  0.746000  0.120000  0.726000  1
  O  O542  1  0.746000  0.606000  0.880000  1
  O  O543  1  0.746000  0.274000  0.394000  1
  O  O544  1  0.254000  0.880000  0.274000  1
  O  O545  1  0.254000  0.394000  0.120000  1
  O  O546  1  0.254000  0.726000  0.606000  1
  O  O547  1  0.826000  0.937000  0.516000  1
  O  O548  1  0.826000  0.579000  0.063000  1
  O  O549  1  0.826000  0.484000  0.421000  1
  O  O550  1  0.174000  0.063000  0.484000  1
  O  O551  1  0.174000  0.421000  0.937000  1
  O  O552  1  0.174000  0.516000  0.579000  1
  O  O553  1  0.751000  0.037000  0.577000  1
  O  O554  1  0.751000  0.540000  0.963000  1
  O  O555  1  0.751000  0.423000  0.460000  1
  O  O556  1  0.249000  0.963000  0.423000  1
  O  O557  1  0.249000  0.460000  0.037000  1
  O  O558  1  0.249000  0.577000  0.540000  1
  O  O559  1  0.753000  0.147000  0.540000  1
  O  O560  1  0.753000  0.393000  0.853000  1
  O  O561  1  0.753000  0.460000  0.607000  1
  O  O562  1  0.247000  0.853000  0.460000  1
  O  O563  1  0.247000  0.607000  0.147000  1
  O  O564  1  0.247000  0.540000  0.393000  1
  O  O565  1  0.144000  0.921000  0.225000  1
  O  O566  1  0.144000  0.304000  0.079000  1
  O  O567  1  0.144000  0.775000  0.696000  1
  O  O568  1  0.856000  0.079000  0.775000  1
  O  O569  1  0.856000  0.696000  0.921000  1
  O  O570  1  0.856000  0.225000  0.304000  1
  O  O571  1  0.329000  0.666700  0.333367  1
  O  O572  1  0.671000  0.333300  0.666633  1
  O  O573  1  0.135000  0.666700  0.333367  1
  O  O574  1  0.865000  0.333300  0.666633  1
  O  O575  1  0.643000  0.081000  0.784000  1
  O  O576  1  0.643000  0.703000  0.919000  1
  O  O577  1  0.643000  0.216000  0.297000  1
  O  O578  1  0.357000  0.919000  0.216000  1
  O  O579  1  0.357000  0.297000  0.081000  1
  O  O580  1  0.357000  0.784000  0.703000  1
  O  O581  1  0.629000  0.202000  0.478000  1
  O  O582  1  0.629000  0.276000  0.798000  1
  O  O583  1  0.629000  0.522000  0.724000  1
  O  O584  1  0.371000  0.798000  0.522000  1
  O  O585  1  0.371000  0.724000  0.202000  1
  O  O586  1  0.371000  0.478000  0.276000  1
  O  O587  1  0.545000  0.148000  0.411000  1
  O  O588  1  0.545000  0.263000  0.852000  1
  O  O589  1  0.545000  0.589000  0.737000  1
  O  O590  1  0.455000  0.852000  0.589000  1
  O  O591  1  0.455000  0.737000  0.148000  1
  O  O592  1  0.455000  0.411000  0.263000  1
  O  O593  1  0.615800  0.103400  0.446300  1
  O  O594  1  0.615800  0.342900  0.896600  1
  O  O595  1  0.615800  0.553700  0.657100  1
  O  O596  1  0.384200  0.896600  0.553700  1
  O  O597  1  0.384200  0.657100  0.103400  1
  O  O598  1  0.384200  0.446300  0.342900  1
  O  O599  1  0.749400  0.256100  0.000900  1.0
  O  O600  1  0.749400  0.744800  0.743900  1.0
  O  O601  1  0.749400  0.999100  0.255200  1.0
  O  O602  1  0.250600  0.743900  0.999100  1.0
  O  O603  1  0.250600  0.255200  0.256100  1.0
  O  O604  1  0.250600  0.000900  0.744800  1.0
  O  O605  1  0.750500  0.292100  0.145400  1.0
  O  O606  1  0.750500  0.853300  0.707900  1.0
  O  O607  1  0.750500  0.854600  0.146700  1.0
  O  O608  1  0.249500  0.707900  0.854600  1.0
  O  O609  1  0.249500  0.146700  0.292100  1.0
  O  O610  1  0.249500  0.145400  0.853300  1.0
