# generated using pymatgen
data_Fe4As12H124C152N26OF72
_symmetry_space_group_name_H-M   'P 1'
_cell_length_a   18.03800000
_cell_length_b   22.42700000
_cell_length_c   26.77000000
_cell_angle_alpha   91.08000000
_cell_angle_beta   108.97000000
_cell_angle_gamma   95.93000000
_symmetry_Int_Tables_number   1
_chemical_formula_structural   Fe4As12H124C152N26OF72
_chemical_formula_sum   'Fe8 As24 H248 C304 N52 O2 F144'
_cell_volume   10170.68610402
_cell_formula_units_Z   2
loop_
 _symmetry_equiv_pos_site_id
 _symmetry_equiv_pos_as_xyz
  1  'x, y, z'
loop_
 _atom_site_type_symbol
 _atom_site_label
 _atom_site_symmetry_multiplicity
 _atom_site_fract_x
 _atom_site_fract_y
 _atom_site_fract_z
 _atom_site_occupancy
  Fe  Fe1  1  0.688640  0.031640  0.268920  1
  Fe  Fe2  1  0.311360  0.968360  0.731080  1
  Fe  Fe3  1  0.690720  0.456320  0.261370  1
  Fe  Fe4  1  0.309280  0.543680  0.738630  1
  Fe  Fe5  1  0.829500  0.243430  0.003210  1
  Fe  Fe6  1  0.170500  0.756570  0.996790  1
  Fe  Fe7  1  0.172600  0.282630  0.355220  1
  Fe  Fe8  1  0.827400  0.717370  0.644780  1
  As  As9  1  0.841350  0.252690  0.223590  1
  As  As10  1  0.158650  0.747310  0.776410  1
  As  As11  1  0.190200  0.568900  0.305100  1
  As  As12  1  0.809800  0.431100  0.694900  1
  As  As13  1  0.004190  0.894220  0.261220  1
  As  As14  1  0.995810  0.105780  0.738780  1
  As  As15  1  0.292000  0.119560  0.208710  1
  As  As16  1  0.708000  0.880440  0.791290  1
  As  As17  1  0.093500  0.463760  0.057200  1
  As  As18  1  0.906500  0.536240  0.942800  1
  As  As19  1  0.207100  0.579900  0.302820  1
  As  As20  1  0.792900  0.420100  0.697180  1
  As  As21  1  0.398300  0.482900  0.030420  1
  As  As22  1  0.601700  0.517100  0.969580  1
  As  As23  1  0.916770  0.960370  0.031070  1
  As  As24  1  0.083230  0.039630  0.968930  1
  As  As25  1  0.923700  0.476800  0.511700  1
  As  As26  1  0.076300  0.523200  0.488300  1
  As  As27  1  0.926670  0.480530  0.485960  1
  As  As28  1  0.073330  0.519470  0.514040  1
  As  As29  1  0.302000  0.145100  0.205200  1
  As  As30  1  0.698000  0.854900  0.794800  1
  As  As31  1  0.115500  0.452290  0.052340  1
  As  As32  1  0.884500  0.547710  0.947660  1
  H  H33  1  0.914600  0.808200  0.356100  1
  H  H34  1  0.085400  0.191800  0.643900  1
  H  H35  1  0.007800  0.822900  0.384700  1
  H  H36  1  0.992200  0.177100  0.615300  1
  H  H37  1  0.949400  0.868300  0.393200  1
  H  H38  1  0.050600  0.131700  0.606800  1
  H  H39  1  0.653500  0.350300  0.546800  1
  H  H40  1  0.346500  0.649700  0.453200  1
  H  H41  1  0.649500  0.420200  0.557300  1
  H  H42  1  0.350500  0.579800  0.442700  1
  H  H43  1  0.727600  0.398200  0.550700  1
  H  H44  1  0.272400  0.601800  0.449300  1
  H  H45  1  0.512500  0.684500  0.321400  1
  H  H46  1  0.487500  0.315500  0.678600  1
  H  H47  1  0.545600  0.752200  0.343500  1
  H  H48  1  0.454400  0.247800  0.656500  1
  H  H49  1  0.484800  0.739000  0.284700  1
  H  H50  1  0.515200  0.261000  0.715300  1
  H  H51  1  0.343000  0.797100  0.373900  1
  H  H52  1  0.657000  0.202900  0.626100  1
  H  H53  1  0.294200  0.735100  0.343500  1
  H  H54  1  0.705800  0.264900  0.656500  1
  H  H55  1  0.229800  0.793600  0.258000  1
  H  H56  1  0.770200  0.206400  0.742000  1
  H  H57  1  0.283100  0.853800  0.287200  1
  H  H58  1  0.716900  0.146200  0.712800  1
  H  H59  1  0.211500  0.826100  0.305700  1
  H  H60  1  0.788500  0.173900  0.694300  1
  H  H61  1  0.455100  0.739900  0.379900  1
  H  H62  1  0.544900  0.260100  0.620100  1
  H  H63  1  0.404700  0.687700  0.338000  1
  H  H64  1  0.595300  0.312300  0.662000  1
  H  H65  1  0.486200  0.923400  0.250700  1
  H  H66  1  0.513800  0.076600  0.749300  1
  H  H67  1  0.449200  0.819100  0.220300  1
  H  H68  1  0.550800  0.180900  0.779700  1
  H  H69  1  0.494400  0.777100  0.160400  1
  H  H70  1  0.505600  0.222900  0.839600  1
  H  H71  1  0.564600  0.830800  0.120900  1
  H  H72  1  0.435400  0.169200  0.879100  1
  H  H73  1  0.609300  0.934700  0.146200  1
  H  H74  1  0.390700  0.065300  0.853800  1
  H  H75  1  0.489600  0.025600  0.172900  1
  H  H76  1  0.510400  0.974400  0.827100  1
  H  H77  1  0.717300  0.167100  0.304100  1
  H  H78  1  0.282700  0.832900  0.695900  1
  H  H79  1  0.525700  0.237100  0.214800  1
  H  H80  1  0.474300  0.762900  0.785200  1
  H  H81  1  0.476000  0.143100  0.171300  1
  H  H82  1  0.524000  0.856900  0.828700  1
  H  H83  1  0.639900  0.320700  0.229700  1
  H  H84  1  0.360100  0.679300  0.770300  1
  H  H85  1  0.728500  0.333000  0.412900  1
  H  H86  1  0.271500  0.667000  0.587100  1
  H  H87  1  0.690700  0.239100  0.367300  1
  H  H88  1  0.309300  0.760900  0.632700  1
  H  H89  1  0.740600  0.451100  0.405100  1
  H  H90  1  0.259400  0.548900  0.594900  1
  H  H91  1  0.845000  0.551400  0.372200  1
  H  H92  1  0.155000  0.448600  0.627800  1
  H  H93  1  0.875000  0.648700  0.405700  1
  H  H94  1  0.125000  0.351300  0.594300  1
  H  H95  1  0.771900  0.700100  0.415500  1
  H  H96  1  0.228100  0.299900  0.584500  1
  H  H97  1  0.647000  0.656400  0.386300  1
  H  H98  1  0.353000  0.343600  0.613700  1
  H  H99  1  0.616100  0.557300  0.349700  1
  H  H100  1  0.383900  0.442700  0.650300  1
  H  H101  1  0.821700  0.964400  0.375900  1
  H  H102  1  0.178300  0.035600  0.624100  1
  H  H103  1  0.816300  0.892600  0.439400  1
  H  H104  1  0.183700  0.107400  0.560600  1
  H  H105  1  0.741200  0.803700  0.415600  1
  H  H106  1  0.258800  0.196300  0.584400  1
  H  H107  1  0.667000  0.778600  0.328500  1
  H  H108  1  0.333000  0.221400  0.671500  1
  H  H109  1  0.669200  0.846400  0.263200  1
  H  H110  1  0.330800  0.153600  0.736800  1
  H  H111  1  0.801100  0.914400  0.241100  1
  H  H112  1  0.198900  0.085600  0.758900  1
  H  H113  1  0.684800  0.109600  0.173900  1
  H  H114  1  0.315200  0.890400  0.826100  1
  H  H115  1  0.814800  0.034900  0.100000  1
  H  H116  1  0.185200  0.965100  0.900000  1
  H  H117  1  0.833400  0.959600  0.160400  1
  H  H118  1  0.166600  0.040400  0.839600  1
  H  H119  1  0.831600  0.150100  0.087800  1
  H  H120  1  0.168400  0.849900  0.912200  1
  H  H121  1  0.569200  0.176000  0.007000  1
  H  H122  1  0.430800  0.824000  0.993000  1
  H  H123  1  0.604900  0.116700  0.082600  1
  H  H124  1  0.395100  0.883300  0.917400  1
  H  H125  1  0.615200  0.239700  0.940200  1
  H  H126  1  0.384800  0.760300  0.059800  1
  H  H127  1  0.712900  0.369200  0.938700  1
  H  H128  1  0.287100  0.630800  0.061300  1
  H  H129  1  0.694000  0.423900  0.862900  1
  H  H130  1  0.306000  0.576100  0.137100  1
  H  H131  1  0.682400  0.375300  0.782100  1
  H  H132  1  0.317600  0.624700  0.217900  1
  H  H133  1  0.689700  0.271900  0.777200  1
  H  H134  1  0.310300  0.728100  0.222800  1
  H  H135  1  0.708600  0.217100  0.853100  1
  H  H136  1  0.291400  0.782900  0.146900  1
  H  H137  1  0.524800  0.071200  0.306100  1
  H  H138  1  0.475200  0.928800  0.693900  1
  H  H139  1  0.403100  0.026800  0.309400  1
  H  H140  1  0.596900  0.973200  0.690600  1
  H  H141  1  0.396700  0.933400  0.345800  1
  H  H142  1  0.603300  0.066600  0.654200  1
  H  H143  1  0.504400  0.880900  0.372200  1
  H  H144  1  0.495600  0.119100  0.627800  1
  H  H145  1  0.626800  0.925000  0.368600  1
  H  H146  1  0.373200  0.075000  0.631400  1
  H  H147  1  0.701900  0.062900  0.406300  1
  H  H148  1  0.298100  0.937100  0.593700  1
  H  H149  1  0.858300  0.079100  0.275500  1
  H  H150  1  0.141700  0.920900  0.724500  1
  H  H151  1  0.956300  0.162400  0.421300  1
  H  H152  1  0.043700  0.837600  0.578700  1
  H  H153  1  0.841200  0.127200  0.440300  1
  H  H154  1  0.158800  0.872800  0.559700  1
  H  H155  1  0.009200  0.222200  0.352200  1
  H  H156  1  0.990800  0.777800  0.647800  1
  H  H157  1  0.131100  0.069200  0.306500  1
  H  H158  1  0.868900  0.930800  0.693500  1
  H  H159  1  0.005100  0.047300  0.313500  1
  H  H160  1  0.994900  0.952700  0.686500  1
  H  H161  1  0.253800  0.150400  0.320000  1
  H  H162  1  0.746200  0.849600  0.680000  1
  H  H163  1  0.380300  0.212900  0.415900  1
  H  H164  1  0.619700  0.787100  0.584100  1
  H  H165  1  0.510700  0.245600  0.422200  1
  H  H166  1  0.489300  0.754400  0.577800  1
  H  H167  1  0.536700  0.303200  0.356600  1
  H  H168  1  0.463300  0.696800  0.643400  1
  H  H169  1  0.432300  0.328100  0.284500  1
  H  H170  1  0.567700  0.671900  0.715500  1
  H  H171  1  0.301900  0.295500  0.278200  1
  H  H172  1  0.698100  0.704500  0.721800  1
  H  H173  1  0.470300  0.528000  0.211100  1
  H  H174  1  0.529700  0.472000  0.788900  1
  H  H175  1  0.388800  0.558900  0.256600  1
  H  H176  1  0.611200  0.441100  0.743400  1
  H  H177  1  0.394400  0.519400  0.337900  1
  H  H178  1  0.605600  0.480600  0.662100  1
  H  H179  1  0.481600  0.448900  0.373600  1
  H  H180  1  0.518400  0.551100  0.626400  1
  H  H181  1  0.563100  0.418000  0.328000  1
  H  H182  1  0.436900  0.582000  0.672000  1
  H  H183  1  0.484300  0.416900  0.176100  1
  H  H184  1  0.515700  0.583100  0.823900  1
  H  H185  1  0.775600  0.424700  0.183200  1
  H  H186  1  0.224400  0.575300  0.816800  1
  H  H187  1  0.604800  0.345400  0.054400  1
  H  H188  1  0.395200  0.654600  0.945600  1
  H  H189  1  0.512500  0.360700  0.095100  1
  H  H190  1  0.487500  0.639300  0.904900  1
  H  H191  1  0.742500  0.290200  0.075900  1
  H  H192  1  0.257500  0.709800  0.924100  1
  H  H193  1  0.883800  0.458800  0.042500  1
  H  H194  1  0.116200  0.541200  0.957500  1
  H  H195  1  0.803900  0.468500  0.095700  1
  H  H196  1  0.196100  0.531500  0.904300  1
  H  H197  1  0.932100  0.386400  0.982800  1
  H  H198  1  0.067900  0.613600  0.017200  1
  H  H199  1  0.016800  0.242800  0.985800  1
  H  H200  1  0.983200  0.757200  0.014200  1
  H  H201  1  0.077600  0.222300  0.923300  1
  H  H202  1  0.922400  0.777700  0.076700  1
  H  H203  1  0.029600  0.256500  0.838000  1
  H  H204  1  0.970400  0.743500  0.162000  1
  H  H205  1  0.920900  0.311200  0.815100  1
  H  H206  1  0.079100  0.688800  0.184900  1
  H  H207  1  0.860100  0.331700  0.877500  1
  H  H208  1  0.139900  0.668300  0.122500  1
  H  H209  1  0.695700  0.638800  0.278100  1
  H  H210  1  0.304300  0.361200  0.721900  1
  H  H211  1  0.600100  0.703600  0.243200  1
  H  H212  1  0.399900  0.296400  0.756800  1
  H  H213  1  0.507200  0.681900  0.158800  1
  H  H214  1  0.492800  0.318100  0.841200  1
  H  H215  1  0.509900  0.595400  0.109400  1
  H  H216  1  0.490100  0.404600  0.890600  1
  H  H217  1  0.605500  0.530700  0.144300  1
  H  H218  1  0.394500  0.469300  0.855700  1
  H  H219  1  0.799100  0.589300  0.231500  1
  H  H220  1  0.200900  0.410700  0.768500  1
  H  H221  1  0.828700  0.384900  0.315200  1
  H  H222  1  0.171300  0.615100  0.684800  1
  H  H223  1  0.025700  0.482300  0.308100  1
  H  H224  1  0.974300  0.517700  0.691900  1
  H  H225  1  0.944900  0.554400  0.263200  1
  H  H226  1  0.055100  0.445600  0.736800  1
  H  H227  1  0.048300  0.369500  0.305500  1
  H  H228  1  0.951700  0.630500  0.694500  1
  H  H229  1  0.014300  0.322300  0.465100  1
  H  H230  1  0.985700  0.677700  0.534900  1
  H  H231  1  0.926300  0.379000  0.406900  1
  H  H232  1  0.073700  0.621000  0.593100  1
  H  H233  1  0.143000  0.268000  0.483600  1
  H  H234  1  0.857000  0.732000  0.516400  1
  H  H235  1  0.332700  0.308700  0.496500  1
  H  H236  1  0.667300  0.691300  0.503500  1
  H  H237  1  0.434200  0.256400  0.547500  1
  H  H238  1  0.565800  0.743600  0.452500  1
  H  H239  1  0.417000  0.151300  0.544300  1
  H  H240  1  0.583000  0.848700  0.455700  1
  H  H241  1  0.298400  0.098700  0.490200  1
  H  H242  1  0.701600  0.901300  0.509800  1
  H  H243  1  0.196900  0.151000  0.439100  1
  H  H244  1  0.803100  0.849000  0.560900  1
  H  H245  1  0.714500  0.108400  0.943500  1
  H  H246  1  0.285500  0.891600  0.056500  1
  H  H247  1  0.639200  0.060900  0.861500  1
  H  H248  1  0.360800  0.939100  0.138500  1
  H  H249  1  0.689000  0.064000  0.790900  1
  H  H250  1  0.311000  0.936000  0.209100  1
  H  H251  1  0.814100  0.114500  0.802400  1
  H  H252  1  0.185900  0.885500  0.197600  1
  H  H253  1  0.889300  0.162000  0.884400  1
  H  H254  1  0.110700  0.838000  0.115600  1
  H  H255  1  0.924900  0.109300  0.989800  1
  H  H256  1  0.075100  0.890700  0.010200  1
  H  H257  1  0.947700  0.299400  0.110400  1
  H  H258  1  0.052300  0.700600  0.889600  1
  H  H259  1  0.107900  0.183100  0.157100  1
  H  H260  1  0.892100  0.816900  0.842900  1
  H  H261  1  0.044300  0.124300  0.076700  1
  H  H262  1  0.955700  0.875700  0.923300  1
  H  H263  1  0.073000  0.231700  0.242000  1
  H  H264  1  0.927000  0.768300  0.758000  1
  H  H265  1  0.179700  0.421900  0.219900  1
  H  H266  1  0.820300  0.578100  0.780100  1
  H  H267  1  0.097600  0.362800  0.147000  1
  H  H268  1  0.902400  0.637200  0.853000  1
  H  H269  1  0.253600  0.428000  0.322600  1
  H  H270  1  0.746400  0.572000  0.677400  1
  H  H271  1  0.202200  0.414100  0.440100  1
  H  H272  1  0.797800  0.585900  0.559900  1
  H  H273  1  0.289500  0.462100  0.519900  1
  H  H274  1  0.710500  0.537900  0.480100  1
  H  H275  1  0.425400  0.465300  0.539000  1
  H  H276  1  0.574600  0.534700  0.461000  1
  H  H277  1  0.474900  0.418800  0.482700  1
  H  H278  1  0.525100  0.581200  0.517300  1
  H  H279  1  0.392500  0.372400  0.401700  1
  H  H280  1  0.607500  0.627600  0.598300  1
  C  C281  1  0.949700  0.794000  0.433500  1
  C  C282  1  0.050300  0.206000  0.566500  1
  C  C283  1  0.955900  0.825900  0.388200  1
  C  C284  1  0.044100  0.174100  0.611800  1
  C  C285  1  0.640300  0.397400  0.485000  1
  C  C286  1  0.359700  0.602600  0.515000  1
  C  C287  1  0.669900  0.391100  0.538800  1
  C  C288  1  0.330100  0.608900  0.461200  1
  C  C289  1  0.499500  0.725900  0.321000  1
  C  C290  1  0.500500  0.274100  0.679000  1
  C  C291  1  0.320300  0.774800  0.339100  1
  C  C292  1  0.679700  0.225200  0.660900  1
  C  C293  1  0.253000  0.816500  0.292000  1
  C  C294  1  0.747000  0.183500  0.708000  1
  C  C295  1  0.432000  0.729000  0.341500  1
  C  C296  1  0.568000  0.271000  0.658500  1
  C  C297  1  0.557400  0.937700  0.202000  1
  C  C298  1  0.442600  0.062300  0.798000  1
  C  C299  1  0.504800  0.905500  0.225300  1
  C  C300  1  0.495200  0.094500  0.774700  1
  C  C301  1  0.483100  0.843600  0.206300  1
  C  C302  1  0.516900  0.156400  0.793700  1
  C  C303  1  0.508400  0.818700  0.170000  1
  C  C304  1  0.491600  0.181300  0.830000  1
  C  C305  1  0.550400  0.849500  0.148100  1
  C  C306  1  0.449600  0.150500  0.851900  1
  C  C307  1  0.577800  0.912200  0.163200  1
  C  C308  1  0.422200  0.087800  0.836800  1
  C  C309  1  0.539400  0.037100  0.199200  1
  C  C310  1  0.460600  0.962900  0.800800  1
  C  C311  1  0.565000  0.100100  0.217300  1
  C  C312  1  0.435000  0.899900  0.782700  1
  C  C313  1  0.666900  0.162000  0.277500  1
  C  C314  1  0.333100  0.838000  0.722500  1
  C  C315  1  0.626500  0.211900  0.264100  1
  C  C316  1  0.373500  0.788100  0.735900  1
  C  C317  1  0.554800  0.203900  0.224900  1
  C  C318  1  0.445200  0.796100  0.775100  1
  C  C319  1  0.524300  0.148100  0.200000  1
  C  C320  1  0.475700  0.851900  0.800000  1
  C  C321  1  0.659300  0.269900  0.294500  1
  C  C322  1  0.340700  0.730100  0.705500  1
  C  C323  1  0.658400  0.323400  0.267300  1
  C  C324  1  0.341600  0.676600  0.732700  1
  C  C325  1  0.706400  0.381100  0.346000  1
  C  C326  1  0.293600  0.618900  0.654000  1
  C  C327  1  0.710400  0.329800  0.375300  1
  C  C328  1  0.289600  0.670200  0.624700  1
  C  C329  1  0.687200  0.274500  0.348100  1
  C  C330  1  0.312800  0.725500  0.651900  1
  C  C331  1  0.722700  0.442300  0.367900  1
  C  C332  1  0.277300  0.557700  0.632100  1
  C  C333  1  0.727800  0.544900  0.358400  1
  C  C334  1  0.272200  0.455100  0.641600  1
  C  C335  1  0.803900  0.573100  0.375100  1
  C  C336  1  0.196100  0.426900  0.624900  1
  C  C337  1  0.822300  0.629800  0.395100  1
  C  C338  1  0.177700  0.370200  0.604900  1
  C  C339  1  0.760700  0.660300  0.400000  1
  C  C340  1  0.239300  0.339700  0.600000  1
  C  C341  1  0.688100  0.634500  0.383500  1
  C  C342  1  0.311900  0.365500  0.616500  1
  C  C343  1  0.669300  0.575400  0.361800  1
  C  C344  1  0.330700  0.424600  0.638200  1
  C  C345  1  0.741800  0.912900  0.314100  1
  C  C346  1  0.258200  0.087100  0.685900  1
  C  C347  1  0.788900  0.927300  0.365800  1
  C  C348  1  0.211100  0.072700  0.634200  1
  C  C349  1  0.785800  0.883700  0.403200  1
  C  C350  1  0.214200  0.116300  0.596800  1
  C  C351  1  0.742000  0.831400  0.389400  1
  C  C352  1  0.258000  0.168600  0.610600  1
  C  C353  1  0.698000  0.816600  0.338000  1
  C  C354  1  0.302000  0.183400  0.662000  1
  C  C355  1  0.698400  0.857000  0.299400  1
  C  C356  1  0.301600  0.143000  0.700600  1
  C  C357  1  0.773500  0.948300  0.240700  1
  C  C358  1  0.226500  0.051700  0.759300  1
  C  C359  1  0.768500  0.992000  0.202200  1
  C  C360  1  0.231500  0.008000  0.797800  1
  C  C361  1  0.715200  0.078300  0.171000  1
  C  C362  1  0.284800  0.921700  0.829000  1
  C  C363  1  0.744100  0.079000  0.130000  1
  C  C364  1  0.255900  0.921000  0.870000  1
  C  C365  1  0.790900  0.034800  0.126800  1
  C  C366  1  0.209100  0.965200  0.873200  1
  C  C367  1  0.802400  0.990700  0.162700  1
  C  C368  1  0.197600  0.009300  0.837300  1
  C  C369  1  0.721400  0.124800  0.089700  1
  C  C370  1  0.278600  0.875200  0.910300  1
  C  C371  1  0.777600  0.155500  0.071500  1
  C  C372  1  0.222400  0.844500  0.928500  1
  C  C373  1  0.680100  0.196900  0.007000  1
  C  C374  1  0.319900  0.803100  0.993000  1
  C  C375  1  0.622800  0.170400  0.024300  1
  C  C376  1  0.377200  0.829600  0.975700  1
  C  C377  1  0.643500  0.134000  0.068400  1
  C  C378  1  0.356500  0.866000  0.931600  1
  C  C379  1  0.666900  0.232400  0.960800  1
  C  C380  1  0.333100  0.767600  0.039200  1
  C  C381  1  0.712600  0.288000  0.903020  1
  C  C382  1  0.287400  0.712000  0.096980  1
  C  C383  1  0.708200  0.349400  0.905900  1
  C  C384  1  0.291800  0.650600  0.094100  1
  C  C385  1  0.697000  0.381900  0.860900  1
  C  C386  1  0.303000  0.618100  0.139100  1
  C  C387  1  0.690100  0.353000  0.812900  1
  C  C388  1  0.309900  0.647000  0.187100  1
  C  C389  1  0.694400  0.291600  0.810010  1
  C  C390  1  0.305600  0.708400  0.189990  1
  C  C391  1  0.705700  0.259100  0.855100  1
  C  C392  1  0.294300  0.740900  0.144900  1
  C  C393  1  0.586700  0.001900  0.338000  1
  C  C394  1  0.413300  0.998100  0.662000  1
  C  C395  1  0.520600  0.032700  0.319800  1
  C  C396  1  0.479400  0.967300  0.680200  1
  C  C397  1  0.449000  0.006800  0.322000  1
  C  C398  1  0.551000  0.993200  0.678000  1
  C  C399  1  0.445400  0.950700  0.342900  1
  C  C400  1  0.554600  0.049300  0.657100  1
  C  C401  1  0.509000  0.919900  0.359300  1
  C  C402  1  0.491000  0.080100  0.640700  1
  C  C403  1  0.581500  0.945900  0.357100  1
  C  C404  1  0.418500  0.054100  0.642900  1
  C  C405  1  0.711700  0.058200  0.373700  1
  C  C406  1  0.288300  0.941800  0.626300  1
  C  C407  1  0.785000  0.083900  0.367700  1
  C  C408  1  0.215000  0.916100  0.632300  1
  C  C409  1  0.855600  0.088700  0.309500  1
  C  C410  1  0.144400  0.911300  0.690500  1
  C  C411  1  0.921400  0.118800  0.347400  1
  C  C412  1  0.078600  0.881200  0.652600  1
  C  C413  1  0.914700  0.137200  0.396200  1
  C  C414  1  0.085300  0.862800  0.603800  1
  C  C415  1  0.846200  0.117700  0.406900  1
  C  C416  1  0.153800  0.882300  0.593100  1
  C  C417  1  0.995600  0.132300  0.336200  1
  C  C418  1  0.004400  0.867700  0.663800  1
  C  C419  1  0.034700  0.190400  0.343600  1
  C  C420  1  0.965300  0.809600  0.656400  1
  C  C421  1  0.142700  0.158000  0.327800  1
  C  C422  1  0.857300  0.842000  0.672200  1
  C  C423  1  0.105700  0.100000  0.316800  1
  C  C424  1  0.894300  0.900000  0.683200  1
  C  C425  1  0.031300  0.087000  0.321000  1
  C  C426  1  0.968700  0.913000  0.679000  1
  C  C427  1  0.222400  0.177500  0.329100  1
  C  C428  1  0.777600  0.822500  0.670900  1
  C  C429  1  0.328900  0.251200  0.346500  1
  C  C430  1  0.671100  0.748800  0.653500  1
  C  C431  1  0.390900  0.236300  0.389200  1
  C  C432  1  0.609100  0.763700  0.610800  1
  C  C433  1  0.468300  0.255700  0.393000  1
  C  C434  1  0.531700  0.744300  0.607000  1
  C  C435  1  0.483700  0.289900  0.354000  1
  C  C436  1  0.516300  0.710100  0.646000  1
  C  C437  1  0.421700  0.304800  0.311200  1
  C  C438  1  0.578300  0.695200  0.688800  1
  C  C439  1  0.344300  0.285400  0.307400  1
  C  C440  1  0.655700  0.714600  0.692600  1
  C  C441  1  0.524300  0.470100  0.265300  1
  C  C442  1  0.475700  0.529900  0.734700  1
  C  C443  1  0.472600  0.511900  0.244100  1
  C  C444  1  0.527400  0.488100  0.755900  1
  C  C445  1  0.424200  0.530300  0.271100  1
  C  C446  1  0.575800  0.469700  0.728900  1
  C  C447  1  0.427500  0.506800  0.319400  1
  C  C448  1  0.572500  0.493200  0.680600  1
  C  C449  1  0.479300  0.465000  0.340600  1
  C  C450  1  0.520700  0.535000  0.659400  1
  C  C451  1  0.527700  0.446600  0.313500  1
  C  C452  1  0.472300  0.553400  0.686500  1
  C  C453  1  0.540100  0.424300  0.190700  1
  C  C454  1  0.459900  0.575700  0.809300  1
  C  C455  1  0.591000  0.406300  0.162200  1
  C  C456  1  0.409000  0.593700  0.837800  1
  C  C457  1  0.721200  0.412800  0.164800  1
  C  C458  1  0.278800  0.587200  0.835200  1
  C  C459  1  0.699700  0.385700  0.113300  1
  C  C460  1  0.300300  0.614300  0.886700  1
  C  C461  1  0.621100  0.365800  0.088300  1
  C  C462  1  0.378900  0.634200  0.911700  1
  C  C463  1  0.566600  0.375100  0.112100  1
  C  C464  1  0.433400  0.624900  0.887900  1
  C  C465  1  0.758100  0.380600  0.087100  1
  C  C466  1  0.241900  0.619400  0.912900  1
  C  C467  1  0.769900  0.325200  0.067900  1
  C  C468  1  0.230100  0.674800  0.932100  1
  C  C469  1  0.858200  0.368500  0.029300  1
  C  C470  1  0.141800  0.631500  0.970700  1
  C  C471  1  0.853800  0.424400  0.049400  1
  C  C472  1  0.146200  0.575600  0.950600  1
  C  C473  1  0.805000  0.430400  0.079900  1
  C  C474  1  0.195000  0.569600  0.920100  1
  C  C475  1  0.900300  0.355600  0.992900  1
  C  C476  1  0.099700  0.644400  0.007100  1
  C  C477  1  0.932700  0.289200  0.937500  1
  C  C478  1  0.067300  0.710800  0.062500  1
  C  C479  1  0.997400  0.256700  0.951100  1
  C  C480  1  0.002600  0.743300  0.048900  1
  C  C481  1  0.033500  0.244500  0.914000  1
  C  C482  1  0.966500  0.755500  0.086000  1
  C  C483  1  0.005000  0.264800  0.863300  1
  C  C484  1  0.995000  0.735200  0.136700  1
  C  C485  1  0.940300  0.297300  0.849700  1
  C  C486  1  0.059700  0.702700  0.150300  1
  C  C487  1  0.904200  0.309500  0.886800  1
  C  C488  1  0.095800  0.690500  0.113200  1
  C  C489  1  0.659600  0.578700  0.214500  1
  C  C490  1  0.340400  0.421300  0.785500  1
  C  C491  1  0.658000  0.630000  0.243900  1
  C  C492  1  0.342000  0.370000  0.756100  1
  C  C493  1  0.601200  0.668500  0.223100  1
  C  C494  1  0.398800  0.331500  0.776900  1
  C  C495  1  0.546000  0.655600  0.173000  1
  C  C496  1  0.454000  0.344400  0.827000  1
  C  C497  1  0.547600  0.604200  0.143600  1
  C  C498  1  0.452400  0.395800  0.856400  1
  C  C499  1  0.604400  0.565800  0.164400  1
  C  C500  1  0.395600  0.434200  0.835600  1
  C  C501  1  0.783400  0.551600  0.242800  1
  C  C502  1  0.216600  0.448400  0.757200  1
  C  C503  1  0.841800  0.510600  0.266600  1
  C  C504  1  0.158200  0.489400  0.733400  1
  C  C505  1  0.852900  0.420300  0.305300  1
  C  C506  1  0.147100  0.579700  0.694700  1
  C  C507  1  0.935500  0.427300  0.319000  1
  C  C508  1  0.064500  0.572700  0.681000  1
  C  C509  1  0.970500  0.477100  0.301900  1
  C  C510  1  0.029500  0.522900  0.698100  1
  C  C511  1  0.922500  0.519700  0.275200  1
  C  C512  1  0.077500  0.480300  0.724800  1
  C  C513  1  0.982500  0.384000  0.352100  1
  C  C514  1  0.017500  0.616000  0.647900  1
  C  C515  1  0.041800  0.360100  0.338400  1
  C  C516  1  0.958200  0.639900  0.661600  1
  C  C517  1  0.081300  0.313000  0.417200  1
  C  C518  1  0.918700  0.687000  0.582800  1
  C  C519  1  0.020600  0.332500  0.432300  1
  C  C520  1  0.979400  0.667500  0.567700  1
  C  C521  1  0.970000  0.366900  0.398500  1
  C  C522  1  0.030000  0.633100  0.601500  1
  C  C523  1  0.142500  0.279500  0.449500  1
  C  C524  1  0.857500  0.720500  0.550500  1
  C  C525  1  0.255200  0.234800  0.463000  1
  C  C526  1  0.744800  0.765200  0.537000  1
  C  C527  1  0.325700  0.266100  0.495200  1
  C  C528  1  0.674300  0.733900  0.504800  1
  C  C529  1  0.386000  0.235000  0.525500  1
  C  C530  1  0.614000  0.765000  0.474500  1
  C  C531  1  0.375800  0.172600  0.523600  1
  C  C532  1  0.624200  0.827400  0.476400  1
  C  C533  1  0.305300  0.141300  0.491400  1
  C  C534  1  0.694700  0.858700  0.508600  1
  C  C535  1  0.245000  0.172400  0.461100  1
  C  C536  1  0.755000  0.827600  0.538900  1
  C  C537  1  0.809000  0.139700  0.921680  1
  C  C538  1  0.191000  0.860300  0.078320  1
  C  C539  1  0.734700  0.109600  0.914900  1
  C  C540  1  0.265300  0.890400  0.085100  1
  C  C541  1  0.690000  0.081400  0.866100  1
  C  C542  1  0.310000  0.918600  0.133900  1
  C  C543  1  0.719600  0.083300  0.824200  1
  C  C544  1  0.280400  0.916700  0.175800  1
  C  C545  1  0.793900  0.113300  0.831000  1
  C  C546  1  0.206100  0.886700  0.169000  1
  C  C547  1  0.838500  0.141500  0.879800  1
  C  C548  1  0.161500  0.858500  0.120200  1
  C  C549  1  0.911500  0.146200  0.000600  1
  C  C550  1  0.088500  0.853800  0.999400  1
  C  C551  1  0.957500  0.178100  0.050900  1
  C  C552  1  0.042500  0.821900  0.949100  1
  C  C553  1  0.967200  0.263400  0.103600  1
  C  C554  1  0.032800  0.736600  0.896400  1
  C  C555  1  0.036800  0.247700  0.139600  1
  C  C556  1  0.963200  0.752300  0.860400  1
  C  C557  1  0.063100  0.195700  0.131300  1
  C  C558  1  0.936900  0.804300  0.868700  1
  C  C559  1  0.024500  0.159700  0.084500  1
  C  C560  1  0.975500  0.840300  0.915500  1
  C  C561  1  0.083600  0.290400  0.186700  1
  C  C562  1  0.916400  0.709600  0.813300  1
  C  C563  1  0.097300  0.270000  0.237600  1
  C  C564  1  0.902700  0.730000  0.762400  1
  C  C565  1  0.174500  0.358700  0.273000  1
  C  C566  1  0.825500  0.641300  0.727000  1
  C  C567  1  0.158400  0.382400  0.223800  1
  C  C568  1  0.841600  0.617600  0.776200  1
  C  C569  1  0.111200  0.347200  0.181100  1
  C  C570  1  0.888800  0.652800  0.818900  1
  C  C571  1  0.227500  0.388900  0.322100  1
  C  C572  1  0.772500  0.611100  0.677900  1
  C  C573  1  0.289500  0.389500  0.413200  1
  C  C574  1  0.710500  0.610500  0.586800  1
  C  C575  1  0.257700  0.415500  0.448200  1
  C  C576  1  0.742300  0.584500  0.551800  1
  C  C577  1  0.309800  0.443900  0.495600  1
  C  C578  1  0.690200  0.556100  0.504400  1
  C  C579  1  0.390500  0.445300  0.507100  1
  C  C580  1  0.609500  0.554700  0.492900  1
  C  C581  1  0.419400  0.418500  0.473500  1
  C  C582  1  0.580600  0.581500  0.526500  1
  C  C583  1  0.370800  0.390400  0.425400  1
  C  C584  1  0.629200  0.609600  0.574600  1
  N  N585  1  0.949100  0.770200  0.468800  1
  N  N586  1  0.050900  0.229800  0.531200  1
  N  N587  1  0.617700  0.406600  0.441900  1
  N  N588  1  0.382300  0.593400  0.558100  1
  N  N589  1  0.584200  0.998900  0.219000  1
  N  N590  1  0.415800  0.001100  0.781000  1
  N  N591  1  0.638100  0.106700  0.254600  1
  N  N592  1  0.361900  0.893300  0.745400  1
  N  N593  1  0.682300  0.377200  0.292100  1
  N  N594  1  0.317700  0.622800  0.707900  1
  N  N595  1  0.712000  0.483700  0.335600  1
  N  N596  1  0.288000  0.516300  0.664400  1
  N  N597  1  0.739100  0.956900  0.274700  1
  N  N598  1  0.260900  0.043100  0.725300  1
  N  N599  1  0.726000  0.037800  0.207300  1
  N  N600  1  0.274000  0.962200  0.792700  1
  N  N601  1  0.758500  0.192500  0.032000  1
  N  N602  1  0.241500  0.807500  0.968000  1
  N  N603  1  0.726600  0.253300  0.948900  1
  N  N604  1  0.273400  0.746700  0.051100  1
  N  N605  1  0.660900  0.029100  0.334100  1
  N  N606  1  0.339100  0.970900  0.665900  1
  N  N607  1  0.788000  0.072600  0.319300  1
  N  N608  1  0.212000  0.927400  0.680700  1
  N  N609  1  0.106900  0.203600  0.339300  1
  N  N610  1  0.893100  0.796400  0.660700  1
  N  N611  1  0.248700  0.232700  0.343000  1
  N  N612  1  0.751300  0.767300  0.657000  1
  N  N613  1  0.574000  0.450500  0.236400  1
  N  N614  1  0.426000  0.549500  0.763600  1
  N  N615  1  0.670300  0.422200  0.188700  1
  N  N616  1  0.329700  0.577800  0.811300  1
  N  N617  1  0.817000  0.317400  0.038900  1
  N  N618  1  0.183000  0.682600  0.961100  1
  N  N619  1  0.892700  0.302100  0.975300  1
  N  N620  1  0.107300  0.697900  0.024700  1
  N  N621  1  0.713100  0.536400  0.237800  1
  N  N622  1  0.286900  0.463600  0.762200  1
  N  N623  1  0.806400  0.459300  0.279600  1
  N  N624  1  0.193600  0.540700  0.720400  1
  N  N625  1  0.089700  0.324800  0.369200  1
  N  N626  1  0.910300  0.675200  0.630800  1
  N  N627  1  0.195300  0.266100  0.430700  1
  N  N628  1  0.804700  0.733900  0.569300  1
  N  N629  1  0.851500  0.170800  0.971300  1
  N  N630  1  0.148500  0.829200  0.028700  1
  N  N631  1  0.927300  0.229300  0.059900  1
  N  N632  1  0.072700  0.770700  0.940100  1
  N  N633  1  0.144400  0.303700  0.280500  1
  N  N634  1  0.855600  0.696300  0.719500  1
  N  N635  1  0.237900  0.360800  0.364800  1
  N  N636  1  0.762100  0.639200  0.635200  1
  O  O637  1  0.368900  0.769700  0.319000  1
  O  O638  1  0.631100  0.230300  0.681000  1
  F  F639  1  0.834500  0.255800  0.286200  1
  F  F640  1  0.165500  0.744200  0.713800  1
  F  F641  1  0.846000  0.250300  0.162410  1
  F  F642  1  0.154000  0.749700  0.837590  1
  F  F643  1  0.937800  0.267000  0.253200  1
  F  F644  1  0.062200  0.733000  0.746800  1
  F  F645  1  0.739800  0.233300  0.193700  1
  F  F646  1  0.260200  0.766700  0.806300  1
  F  F647  1  0.826100  0.323100  0.221600  1
  F  F648  1  0.173900  0.676900  0.778400  1
  F  F649  1  0.841400  0.180500  0.226400  1
  F  F650  1  0.158600  0.819500  0.773600  1
  F  F651  1  0.284100  0.559200  0.341300  1
  F  F652  1  0.715900  0.440800  0.658700  1
  F  F653  1  0.197200  0.531200  0.252500  1
  F  F654  1  0.802800  0.468800  0.747500  1
  F  F655  1  0.156700  0.504800  0.327300  1
  F  F656  1  0.843300  0.495200  0.672700  1
  F  F657  1  0.182300  0.609500  0.357300  1
  F  F658  1  0.817700  0.390500  0.642700  1
  F  F659  1  0.226100  0.635100  0.284800  1
  F  F660  1  0.773900  0.364900  0.715200  1
  F  F661  1  0.097100  0.582700  0.269200  1
  F  F662  1  0.902900  0.417300  0.730800  1
  F  F663  1  0.946200  0.829100  0.258800  1
  F  F664  1  0.053800  0.170900  0.741200  1
  F  F665  1  0.060700  0.859900  0.233700  1
  F  F666  1  0.939300  0.140100  0.766300  1
  F  F667  1  0.943700  0.909800  0.200900  1
  F  F668  1  0.056300  0.090200  0.799100  1
  F  F669  1  0.949500  0.930100  0.291200  1
  F  F670  1  0.050500  0.069900  0.708800  1
  F  F671  1  0.062900  0.878000  0.323380  1
  F  F672  1  0.937100  0.122000  0.676620  1
  F  F673  1  0.063700  0.960100  0.267200  1
  F  F674  1  0.936300  0.039900  0.732800  1
  F  F675  1  0.339800  0.065200  0.192300  1
  F  F676  1  0.660200  0.934800  0.807700  1
  F  F677  1  0.370000  0.142500  0.262100  1
  F  F678  1  0.630000  0.857500  0.737900  1
  F  F679  1  0.325900  0.167700  0.170900  1
  F  F680  1  0.674100  0.832300  0.829100  1
  F  F681  1  0.210500  0.095800  0.155700  1
  F  F682  1  0.789500  0.904200  0.844300  1
  F  F683  1  0.256100  0.068700  0.245300  1
  F  F684  1  0.743900  0.931300  0.754700  1
  F  F685  1  0.239900  0.171400  0.225300  1
  F  F686  1  0.760100  0.828600  0.774700  1
  F  F687  1  0.148700  0.467300  0.122100  1
  F  F688  1  0.851300  0.532700  0.877900  1
  F  F689  1  0.031000  0.407600  0.066000  1
  F  F690  1  0.969000  0.592400  0.934000  1
  F  F691  1  0.038800  0.515500  0.069800  1
  F  F692  1  0.961200  0.484500  0.930200  1
  F  F693  1  0.157800  0.519400  0.046600  1
  F  F694  1  0.842200  0.480600  0.953400  1
  F  F695  1  0.152200  0.412800  0.045400  1
  F  F696  1  0.847800  0.587200  0.954600  1
  F  F697  1  0.042300  0.459600  0.991040  1
  F  F698  1  0.957700  0.540400  0.008960  1
  F  F699  1  0.200100  0.629100  0.349400  1
  F  F700  1  0.799900  0.370900  0.650600  1
  F  F701  1  0.185700  0.630600  0.256700  1
  F  F702  1  0.814300  0.369400  0.743300  1
  F  F703  1  0.304900  0.603100  0.319500  1
  F  F704  1  0.695100  0.396900  0.680500  1
  F  F705  1  0.226200  0.526500  0.348500  1
  F  F706  1  0.773800  0.473500  0.651500  1
  F  F707  1  0.108000  0.555900  0.288200  1
  F  F708  1  0.892000  0.444100  0.711800  1
  F  F709  1  0.210300  0.527800  0.256500  1
  F  F710  1  0.789700  0.472200  0.743500  1
  F  F711  1  0.377500  0.554400  0.034200  1
  F  F712  1  0.622500  0.445600  0.965800  1
  F  F713  1  0.479700  0.505800  0.015700  1
  F  F714  1  0.520300  0.494200  0.984300  1
  F  F715  1  0.450200  0.488100  0.095980  1
  F  F716  1  0.549800  0.511900  0.904020  1
  F  F717  1  0.314200  0.457900  0.043400  1
  F  F718  1  0.685800  0.542100  0.956600  1
  F  F719  1  0.342700  0.478400  0.964100  1
  F  F720  1  0.657300  0.521600  0.035900  1
  F  F721  1  0.414400  0.409900  0.024000  1
  F  F722  1  0.585600  0.590100  0.976000  1
  F  F723  1  0.937100  0.987800  0.977800  1
  F  F724  1  0.062900  0.012200  0.022200  1
  F  F725  1  0.012100  0.953700  0.062300  1
  F  F726  1  0.987900  0.046300  0.937700  1
  F  F727  1  0.927500  0.031100  0.057800  1
  F  F728  1  0.072500  0.968900  0.942200  1
  F  F729  1  0.818800  0.964500  0.999400  1
  F  F730  1  0.181200  0.035500  0.000600  1
  F  F731  1  0.903400  0.889100  0.001800  1
  F  F732  1  0.096600  0.110900  0.998200  1
  F  F733  1  0.892900  0.929700  0.082500  1
  F  F734  1  0.107100  0.070300  0.917500  1
  F  F735  1  0.893400  0.463800  0.445200  1
  F  F736  1  0.106600  0.536200  0.554800  1
  F  F737  1  0.858000  0.421300  0.517600  1
  F  F738  1  0.142000  0.578700  0.482400  1
  F  F739  1  0.992700  0.428800  0.518700  1
  F  F740  1  0.007300  0.571200  0.481300  1
  F  F741  1  0.989300  0.535100  0.506800  1
  F  F742  1  0.010700  0.464900  0.493200  1
  F  F743  1  0.854800  0.527000  0.503000  1
  F  F744  1  0.145200  0.473000  0.497000  1
  F  F745  1  0.953100  0.493700  0.578200  1
  F  F746  1  0.046900  0.506300  0.421800  1
  F  F747  1  0.964210  0.423470  0.523030  1
  F  F748  1  0.035790  0.576530  0.476970  1
  F  F749  1  0.926250  0.520050  0.539540  1
  F  F750  1  0.073750  0.479950  0.460460  1
  F  F751  1  0.019250  0.512180  0.493110  1
  F  F752  1  0.980750  0.487820  0.506890  1
  F  F753  1  0.923530  0.440370  0.430350  1
  F  F754  1  0.076470  0.559630  0.569650  1
  F  F755  1  0.833170  0.445930  0.477880  1
  F  F756  1  0.166830  0.554070  0.522120  1
  F  F757  1  0.884640  0.535280  0.446680  1
  F  F758  1  0.115360  0.464720  0.553320  1
  F  F759  1  0.253000  0.083800  0.221100  1
  F  F760  1  0.747000  0.916200  0.778900  1
  F  F761  1  0.367500  0.153600  0.266500  1
  F  F762  1  0.632500  0.846400  0.733500  1
  F  F763  1  0.358700  0.100700  0.185300  1
  F  F764  1  0.641300  0.899300  0.814700  1
  F  F765  1  0.234500  0.139100  0.143000  1
  F  F766  1  0.765500  0.860900  0.857000  1
  F  F767  1  0.241300  0.188900  0.224000  1
  F  F768  1  0.758700  0.811100  0.776000  1
  F  F769  1  0.346800  0.208700  0.188300  1
  F  F770  1  0.653200  0.791300  0.811700  1
  F  F771  1  0.177100  0.456300  0.115700  1
  F  F772  1  0.822900  0.543700  0.884300  1
  F  F773  1  0.036300  0.439000  0.071800  1
  F  F774  1  0.963700  0.561000  0.928200  1
  F  F775  1  0.111600  0.527400  0.056000  1
  F  F776  1  0.888400  0.472600  0.944000  1
  F  F777  1  0.195300  0.463500  0.031100  1
  F  F778  1  0.804700  0.536500  0.968900  1
  F  F779  1  0.123100  0.376300  0.049400  1
  F  F780  1  0.876900  0.623700  0.950600  1
  F  F781  1  0.056100  0.445200  0.987800  1
  F  F782  1  0.943900  0.554800  0.012200  1
