# generated using pymatgen
data_Mo3H39C63N9O20
_symmetry_space_group_name_H-M   'P 1'
_cell_length_a   24.65600000
_cell_length_b   25.28485286
_cell_length_c   25.28485286
_cell_angle_alpha   76.24803110
_cell_angle_beta   60.81936274
_cell_angle_gamma   60.81936274
_symmetry_Int_Tables_number   1
_chemical_formula_structural   Mo3H39C63N9O20
_chemical_formula_sum   'Mo12 H156 C252 N36 O80'
_cell_volume   12015.95859520
_cell_formula_units_Z   4
loop_
 _symmetry_equiv_pos_site_id
 _symmetry_equiv_pos_as_xyz
  1  'x, y, z'
loop_
 _atom_site_type_symbol
 _atom_site_label
 _atom_site_symmetry_multiplicity
 _atom_site_fract_x
 _atom_site_fract_y
 _atom_site_fract_z
 _atom_site_occupancy
  C  C1  1  0.248200  0.019400  0.484200  1.0
  C  C2  1  0.751800  0.980600  0.515800  1.0
  C  C3  1  0.267600  0.484200  0.980600  1.0
  C  C4  1  0.732400  0.515800  0.019400  1.0
  C  C5  1  0.293100  0.949200  0.108800  1.0
  C  C6  1  0.351100  0.050800  0.891200  1.0
  C  C7  1  0.242300  0.108800  0.050800  1.0
  C  C8  1  0.401900  0.891200  0.949200  1.0
  C  C9  1  0.706900  0.050800  0.891200  1.0
  C  C10  1  0.648900  0.949200  0.108800  1.0
  C  C11  1  0.757700  0.891200  0.949200  1.0
  C  C12  1  0.598100  0.108800  0.050800  1.0
  C  C13  1  0.277100  0.926940  0.171860  1.0
  C  C14  1  0.375900  0.073060  0.828140  1.0
  C  C15  1  0.204040  0.171860  0.073060  1.0
  C  C16  1  0.448960  0.828140  0.926940  1.0
  C  C17  1  0.722900  0.073060  0.828140  1.0
  C  C18  1  0.624100  0.926940  0.171860  1.0
  C  C19  1  0.795960  0.828140  0.926940  1.0
  C  C20  1  0.551040  0.171860  0.073060  1.0
  C  C21  1  0.292600  0.942800  0.210000  1.0
  C  C22  1  0.445400  0.057200  0.790000  1.0
  C  C23  1  0.235400  0.210000  0.057200  1.0
  C  C24  1  0.502600  0.790000  0.942800  1.0
  C  C25  1  0.707400  0.057200  0.790000  1.0
  C  C26  1  0.554600  0.942800  0.210000  1.0
  C  C27  1  0.764600  0.790000  0.942800  1.0
  C  C28  1  0.497400  0.210000  0.057200  1.0
  C  C29  1  0.269900  0.925700  0.270500  1.0
  C  C30  1  0.466100  0.074300  0.729500  1.0
  C  C31  1  0.195600  0.270500  0.074300  1.0
  C  C32  1  0.540400  0.729500  0.925700  1.0
  C  C33  1  0.730100  0.074300  0.729500  1.0
  C  C34  1  0.533900  0.925700  0.270500  1.0
  C  C35  1  0.804400  0.729500  0.925700  1.0
  C  C36  1  0.459600  0.270500  0.074300  1.0
  C  C37  1  0.231700  0.892500  0.292900  1.0
  C  C38  1  0.417100  0.107500  0.707100  1.0
  C  C39  1  0.124200  0.292900  0.107500  1.0
  C  C40  1  0.524600  0.707100  0.892500  1.0
  C  C41  1  0.768300  0.107500  0.707100  1.0
  C  C42  1  0.582900  0.892500  0.292900  1.0
  C  C43  1  0.875800  0.707100  0.892500  1.0
  C  C44  1  0.475400  0.292900  0.107500  1.0
  C  C45  1  0.216200  0.876600  0.254800  1.0
  C  C46  1  0.347600  0.123400  0.745200  1.0
  C  C47  1  0.092800  0.254800  0.123400  1.0
  C  C48  1  0.471000  0.745200  0.876600  1.0
  C  C49  1  0.783800  0.123400  0.745200  1.0
  C  C50  1  0.652400  0.876600  0.254800  1.0
  C  C51  1  0.907200  0.745200  0.876600  1.0
  C  C52  1  0.529000  0.254800  0.123400  1.0
  C  C53  1  0.238900  0.893800  0.194200  1.0
  C  C54  1  0.326900  0.106200  0.805800  1.0
  C  C55  1  0.132700  0.194200  0.106200  1.0
  C  C56  1  0.433100  0.805800  0.893800  1.0
  C  C57  1  0.761100  0.106200  0.805800  1.0
  C  C58  1  0.673100  0.893800  0.194200  1.0
  C  C59  1  0.867300  0.805800  0.893800  1.0
  C  C60  1  0.566900  0.194200  0.106200  1.0
  C  C61  1  0.240900  0.959500  0.365700  1.0
  C  C62  1  0.566100  0.040500  0.634300  1.0
  C  C63  1  0.200400  0.365700  0.040500  1.0
  C  C64  1  0.606600  0.634300  0.959500  1.0
  C  C65  1  0.759100  0.040500  0.634300  1.0
  C  C66  1  0.433900  0.959500  0.365700  1.0
  C  C67  1  0.799600  0.634300  0.959500  1.0
  C  C68  1  0.393400  0.365700  0.040500  1.0
  C  C69  1  0.264670  0.978500  0.398700  1.0
  C  C70  1  0.641870  0.021500  0.601300  1.0
  C  C71  1  0.243170  0.398700  0.021500  1.0
  C  C72  1  0.663370  0.601300  0.978500  1.0
  C  C73  1  0.735330  0.021500  0.601300  1.0
  C  C74  1  0.358130  0.978500  0.398700  1.0
  C  C75  1  0.756830  0.601300  0.978500  1.0
  C  C76  1  0.336630  0.398700  0.021500  1.0
  C  C77  1  0.219760  0.006400  0.455600  1.0
  C  C78  1  0.681760  0.993600  0.544400  1.0
  C  C79  1  0.226160  0.455600  0.993600  1.0
  C  C80  1  0.675360  0.544400  0.006400  1.0
  C  C81  1  0.780240  0.993600  0.544400  1.0
  C  C82  1  0.318240  0.006400  0.455600  1.0
  C  C83  1  0.773840  0.544400  0.006400  1.0
  C  C84  1  0.324640  0.455600  0.993600  1.0
  C  C85  1  0.175800  0.242500  0.259900  1.0
  C  C86  1  0.678200  0.757500  0.740100  1.0
  C  C87  1  0.418300  0.259900  0.757500  1.0
  C  C88  1  0.435700  0.740100  0.242500  1.0
  C  C89  1  0.824200  0.757500  0.740100  1.0
  C  C90  1  0.321800  0.242500  0.259900  1.0
  C  C91  1  0.581700  0.740100  0.242500  1.0
  C  C92  1  0.564300  0.259900  0.757500  1.0
  C  C93  1  0.161700  0.189100  0.273900  1.0
  C  C94  1  0.624700  0.810900  0.726100  1.0
  C  C95  1  0.350800  0.273900  0.810900  1.0
  C  C96  1  0.435600  0.726100  0.189100  1.0
  C  C97  1  0.838300  0.810900  0.726100  1.0
  C  C98  1  0.375300  0.189100  0.273900  1.0
  C  C99  1  0.649200  0.726100  0.189100  1.0
  C  C100  1  0.564400  0.273900  0.810900  1.0
  C  C101  1  0.129600  0.171800  0.333200  1.0
  C  C102  1  0.634600  0.828200  0.666800  1.0
  C  C103  1  0.301400  0.333200  0.828200  1.0
  C  C104  1  0.462800  0.666800  0.171800  1.0
  C  C105  1  0.870400  0.828200  0.666800  1.0
  C  C106  1  0.365400  0.171800  0.333200  1.0
  C  C107  1  0.698600  0.666800  0.171800  1.0
  C  C108  1  0.537200  0.333200  0.828200  1.0
  C  C109  1  0.121500  0.119000  0.344600  1.0
  C  C110  1  0.585100  0.881000  0.655400  1.0
  C  C111  1  0.240500  0.344600  0.881000  1.0
  C  C112  1  0.466100  0.655400  0.119000  1.0
  C  C113  1  0.878500  0.881000  0.655400  1.0
  C  C114  1  0.414900  0.119000  0.344600  1.0
  C  C115  1  0.759500  0.655400  0.119000  1.0
  C  C116  1  0.533900  0.344600  0.881000  1.0
  C  C117  1  0.145500  0.083300  0.296700  1.0
  C  C118  1  0.525500  0.916700  0.703300  1.0
  C  C119  1  0.228800  0.296700  0.916700  1.0
  C  C120  1  0.442200  0.703300  0.083300  1.0
  C  C121  1  0.854500  0.916700  0.703300  1.0
  C  C122  1  0.474500  0.083300  0.296700  1.0
  C  C123  1  0.771200  0.703300  0.083300  1.0
  C  C124  1  0.557800  0.296700  0.916700  1.0
  C  C125  1  0.177600  0.100500  0.237300  1.0
  C  C126  1  0.515400  0.899500  0.762700  1.0
  C  C127  1  0.278100  0.237300  0.899500  1.0
  C  C128  1  0.414900  0.762700  0.100500  1.0
  C  C129  1  0.822400  0.899500  0.762700  1.0
  C  C130  1  0.484600  0.100500  0.237300  1.0
  C  C131  1  0.721900  0.762700  0.100500  1.0
  C  C132  1  0.585100  0.237300  0.899500  1.0
  C  C133  1  0.185600  0.153400  0.226000  1.0
  C  C134  1  0.565000  0.846600  0.774000  1.0
  C  C135  1  0.339000  0.226000  0.846600  1.0
  C  C136  1  0.411600  0.774000  0.153400  1.0
  C  C137  1  0.814400  0.846600  0.774000  1.0
  C  C138  1  0.435000  0.153400  0.226000  1.0
  C  C139  1  0.661000  0.774000  0.153400  1.0
  C  C140  1  0.588400  0.226000  0.846600  1.0
  C  C141  1  0.037400  0.137400  0.451600  1.0
  C  C142  1  0.626400  0.862600  0.548400  1.0
  C  C143  1  0.174800  0.451600  0.862600  1.0
  C  C144  1  0.489000  0.548400  0.137400  1.0
  C  C145  1  0.962600  0.862600  0.548400  1.0
  C  C146  1  0.373600  0.137400  0.451600  1.0
  C  C147  1  0.825200  0.548400  0.137400  1.0
  C  C148  1  0.511000  0.451600  0.862600  1.0
  C  C149  1  0.010300  0.109100  0.503100  1.0
  C  C150  1  0.622500  0.890900  0.496900  1.0
  C  C151  1  0.119400  0.503100  0.890900  1.0
  C  C152  1  0.513400  0.496900  0.109100  1.0
  C  C153  1  0.989700  0.890900  0.496900  1.0
  C  C154  1  0.377500  0.109100  0.503100  1.0
  C  C155  1  0.880600  0.496900  0.109100  1.0
  C  C156  1  0.486600  0.503100  0.890900  1.0
  C  C157  1  0.953200  0.146900  0.551100  1.0
  C  C158  1  0.651200  0.853100  0.448900  1.0
  C  C159  1  0.100100  0.551100  0.853100  1.0
  C  C160  1  0.504300  0.448900  0.146900  1.0
  C  C161  1  0.046800  0.853100  0.448900  1.0
  C  C162  1  0.348800  0.146900  0.551100  1.0
  C  C163  1  0.899900  0.448900  0.146900  1.0
  C  C164  1  0.495700  0.551100  0.853100  1.0
  C  C165  1  0.923600  0.119800  0.605400  1.0
  C  C166  1  0.648800  0.880200  0.394600  1.0
  C  C167  1  0.043400  0.605400  0.880200  1.0
  C  C168  1  0.529000  0.394600  0.119800  1.0
  C  C169  1  0.076400  0.880200  0.394600  1.0
  C  C170  1  0.351200  0.119800  0.605400  1.0
  C  C171  1  0.956600  0.394600  0.119800  1.0
  C  C172  1  0.471000  0.605400  0.880200  1.0
  C  C173  1  0.952400  0.056600  0.608800  1.0
  C  C174  1  0.617800  0.943400  0.391200  1.0
  C  C175  1  0.009000  0.608800  0.943400  1.0
  C  C176  1  0.561200  0.391200  0.056600  1.0
  C  C177  1  0.047600  0.943400  0.391200  1.0
  C  C178  1  0.382200  0.056600  0.608800  1.0
  C  C179  1  0.991000  0.391200  0.056600  1.0
  C  C180  1  0.438800  0.608800  0.943400  1.0
  C  C181  1  0.009600  0.023900  0.557500  1.0
  C  C182  1  0.591000  0.976100  0.442500  1.0
  C  C183  1  0.033500  0.557500  0.976100  1.0
  C  C184  1  0.567100  0.442500  0.023900  1.0
  C  C185  1  0.990400  0.976100  0.442500  1.0
  C  C186  1  0.409000  0.023900  0.557500  1.0
  C  C187  1  0.966500  0.442500  0.023900  1.0
  C  C188  1  0.432900  0.557500  0.976100  1.0
  C  C189  1  0.041800  0.952000  0.565600  1.0
  C  C190  1  0.559400  0.048000  0.434400  1.0
  C  C191  1  0.993800  0.565600  0.048000  1.0
  C  C192  1  0.607400  0.434400  0.952000  1.0
  C  C193  1  0.958200  0.048000  0.434400  1.0
  C  C194  1  0.440600  0.952000  0.565600  1.0
  C  C195  1  0.006200  0.434400  0.952000  1.0
  C  C196  1  0.392600  0.565600  0.048000  1.0
  C  C197  1  0.141500  0.864300  0.514500  1.0
  C  C198  1  0.520300  0.135700  0.485500  1.0
  C  C199  1  0.005800  0.514500  0.135700  1.0
  C  C200  1  0.656000  0.485500  0.864300  1.0
  C  C201  1  0.858500  0.135700  0.485500  1.0
  C  C202  1  0.479700  0.864300  0.514500  1.0
  C  C203  1  0.994200  0.485500  0.864300  1.0
  C  C204  1  0.344000  0.514500  0.135700  1.0
  C  C205  1  0.122500  0.819400  0.549600  1.0
  C  C206  1  0.491500  0.180600  0.450400  1.0
  C  C207  1  0.941900  0.549600  0.180600  1.0
  C  C208  1  0.672100  0.450400  0.819400  1.0
  C  C209  1  0.877500  0.180600  0.450400  1.0
  C  C210  1  0.508500  0.819400  0.549600  1.0
  C  C211  1  0.058100  0.450400  0.819400  1.0
  C  C212  1  0.327900  0.549600  0.180600  1.0
  C  C213  1  0.170800  0.758900  0.539900  1.0
  C  C214  1  0.469600  0.241100  0.460100  1.0
  C  C215  1  0.929700  0.539900  0.241100  1.0
  C  C216  1  0.710700  0.460100  0.758900  1.0
  C  C217  1  0.829200  0.241100  0.460100  1.0
  C  C218  1  0.530400  0.758900  0.539900  1.0
  C  C219  1  0.070300  0.460100  0.758900  1.0
  C  C220  1  0.289300  0.539900  0.241100  1.0
  C  C221  1  0.238100  0.743400  0.495200  1.0
  C  C222  1  0.476700  0.256600  0.504800  1.0
  C  C223  1  0.981500  0.495200  0.256600  1.0
  C  C224  1  0.733300  0.504800  0.743400  1.0
  C  C225  1  0.761900  0.256600  0.504800  1.0
  C  C226  1  0.523300  0.743400  0.495200  1.0
  C  C227  1  0.018500  0.504800  0.743400  1.0
  C  C228  1  0.266700  0.495200  0.256600  1.0
  C  C229  1  0.257100  0.788400  0.460200  1.0
  C  C230  1  0.505700  0.211600  0.539800  1.0
  C  C231  1  0.045500  0.460200  0.211600  1.0
  C  C232  1  0.717300  0.539800  0.788400  1.0
  C  C233  1  0.742900  0.211600  0.539800  1.0
  C  C234  1  0.494300  0.788400  0.460200  1.0
  C  C235  1  0.954500  0.539800  0.788400  1.0
  C  C236  1  0.282700  0.460200  0.211600  1.0
  C  C237  1  0.208800  0.848800  0.469800  1.0
  C  C238  1  0.527400  0.151200  0.530200  1.0
  C  C239  1  0.057600  0.469800  0.151200  1.0
  C  C240  1  0.678600  0.530200  0.848800  1.0
  C  C241  1  0.791200  0.151200  0.530200  1.0
  C  C242  1  0.472600  0.848800  0.469800  1.0
  C  C243  1  0.942400  0.530200  0.848800  1.0
  C  C244  1  0.321400  0.469800  0.151200  1.0
  C  C245  1  0.329800  0.774600  0.415200  1.0
  C  C246  1  0.519600  0.225400  0.584800  1.0
  C  C247  1  0.104400  0.415200  0.225400  1.0
  C  C248  1  0.745000  0.584800  0.774600  1.0
  C  C249  1  0.670200  0.225400  0.584800  1.0
  C  C250  1  0.480400  0.774600  0.415200  1.0
  C  C251  1  0.895600  0.584800  0.774600  1.0
  C  C252  1  0.255000  0.415200  0.225400  1.0
  H  H253  1  0.218800  0.039700  0.522700  1.0
  H  H254  1  0.781200  0.960300  0.477300  1.0
  H  H255  1  0.258500  0.522700  0.960300  1.0
  H  H256  1  0.741500  0.477300  0.039700  1.0
  H  H257  1  0.322700  0.948900  0.290700  1.0
  H  H258  1  0.562300  0.051100  0.709300  1.0
  H  H259  1  0.271600  0.290700  0.051100  1.0
  H  H260  1  0.613400  0.709300  0.948900  1.0
  H  H261  1  0.677300  0.051100  0.709300  1.0
  H  H262  1  0.437700  0.948900  0.290700  1.0
  H  H263  1  0.728400  0.709300  0.948900  1.0
  H  H264  1  0.386600  0.290700  0.051100  1.0
  H  H265  1  0.319100  0.965600  0.194400  1.0
  H  H266  1  0.479100  0.034400  0.805600  1.0
  H  H267  1  0.284700  0.194400  0.034400  1.0
  H  H268  1  0.513500  0.805600  0.965600  1.0
  H  H269  1  0.680900  0.034400  0.805600  1.0
  H  H270  1  0.520900  0.965600  0.194400  1.0
  H  H271  1  0.715300  0.805600  0.965600  1.0
  H  H272  1  0.486500  0.194400  0.034400  1.0
  H  H273  1  0.216000  0.880700  0.334700  1.0
  H  H274  1  0.431400  0.119300  0.665300  1.0
  H  H275  1  0.096700  0.334700  0.119300  1.0
  H  H276  1  0.550700  0.665300  0.880700  1.0
  H  H277  1  0.784000  0.119300  0.665300  1.0
  H  H278  1  0.568600  0.880700  0.334700  1.0
  H  H279  1  0.903300  0.665300  0.880700  1.0
  H  H280  1  0.449300  0.334700  0.119300  1.0
  H  H281  1  0.189800  0.853800  0.270200  1.0
  H  H282  1  0.313800  0.146200  0.729800  1.0
  H  H283  1  0.043600  0.270200  0.146200  1.0
  H  H284  1  0.460000  0.729800  0.853800  1.0
  H  H285  1  0.810200  0.146200  0.729800  1.0
  H  H286  1  0.686200  0.853800  0.270200  1.0
  H  H287  1  0.956400  0.729800  0.853800  1.0
  H  H288  1  0.540000  0.270200  0.146200  1.0
  H  H289  1  0.228100  0.882900  0.167900  1.0
  H  H290  1  0.278900  0.117100  0.832100  1.0
  H  H291  1  0.111000  0.167900  0.117100  1.0
  H  H292  1  0.396000  0.832100  0.882900  1.0
  H  H293  1  0.771900  0.117100  0.832100  1.0
  H  H294  1  0.721100  0.882900  0.167900  1.0
  H  H295  1  0.889000  0.832100  0.882900  1.0
  H  H296  1  0.604000  0.167900  0.117100  1.0
  H  H297  1  0.172000  0.014500  0.474900  1.0
  H  H298  1  0.661400  0.985500  0.525100  1.0
  H  H299  1  0.186500  0.474900  0.985500  1.0
  H  H300  1  0.646900  0.525100  0.014500  1.0
  H  H301  1  0.828000  0.985500  0.525100  1.0
  H  H302  1  0.338600  0.014500  0.474900  1.0
  H  H303  1  0.813500  0.525100  0.014500  1.0
  H  H304  1  0.353100  0.474900  0.985500  1.0
  H  H305  1  0.102000  0.060600  0.408800  1.0
  H  H306  1  0.571400  0.939400  0.591200  1.0
  H  H307  1  0.162600  0.408800  0.939400  1.0
  H  H308  1  0.510800  0.591200  0.060600  1.0
  H  H309  1  0.898000  0.939400  0.591200  1.0
  H  H310  1  0.428600  0.060600  0.408800  1.0
  H  H311  1  0.837400  0.591200  0.060600  1.0
  H  H312  1  0.489200  0.408800  0.939400  1.0
  H  H313  1  0.111200  0.948800  0.487400  1.0
  H  H314  1  0.547400  0.051200  0.512600  1.0
  H  H315  1  0.060000  0.487400  0.051200  1.0
  H  H316  1  0.598600  0.512600  0.948800  1.0
  H  H317  1  0.888800  0.051200  0.512600  1.0
  H  H318  1  0.452600  0.948800  0.487400  1.0
  H  H319  1  0.940000  0.512600  0.948800  1.0
  H  H320  1  0.401400  0.487400  0.051200  1.0
  H  H321  1  0.113100  0.196500  0.366300  1.0
  H  H322  1  0.675900  0.803500  0.633700  1.0
  H  H323  1  0.309600  0.366300  0.803500  1.0
  H  H324  1  0.479400  0.633700  0.196500  1.0
  H  H325  1  0.886900  0.803500  0.633700  1.0
  H  H326  1  0.324100  0.196500  0.366300  1.0
  H  H327  1  0.690400  0.633700  0.196500  1.0
  H  H328  1  0.520600  0.366300  0.803500  1.0
  H  H329  1  0.140000  0.046700  0.304500  1.0
  H  H330  1  0.491200  0.953300  0.695500  1.0
  H  H331  1  0.186700  0.304500  0.953300  1.0
  H  H332  1  0.444500  0.695500  0.046700  1.0
  H  H333  1  0.860000  0.953300  0.695500  1.0
  H  H334  1  0.508800  0.046700  0.304500  1.0
  H  H335  1  0.813300  0.695500  0.046700  1.0
  H  H336  1  0.555500  0.304500  0.953300  1.0
  H  H337  1  0.194100  0.075900  0.204300  1.0
  H  H338  1  0.474300  0.924100  0.795700  1.0
  H  H339  1  0.270000  0.204300  0.924100  1.0
  H  H340  1  0.398400  0.795700  0.075900  1.0
  H  H341  1  0.805900  0.924100  0.795700  1.0
  H  H342  1  0.525700  0.075900  0.204300  1.0
  H  H343  1  0.730000  0.795700  0.075900  1.0
  H  H344  1  0.601600  0.204300  0.924100  1.0
  H  H345  1  0.207800  0.165300  0.185100  1.0
  H  H346  1  0.558200  0.834700  0.814900  1.0
  H  H347  1  0.373100  0.185100  0.834700  1.0
  H  H348  1  0.392900  0.814900  0.165300  1.0
  H  H349  1  0.792200  0.834700  0.814900  1.0
  H  H350  1  0.441800  0.165300  0.185100  1.0
  H  H351  1  0.626900  0.814900  0.165300  1.0
  H  H352  1  0.607100  0.185100  0.834700  1.0
  H  H353  1  0.934900  0.190100  0.546300  1.0
  H  H354  1  0.671300  0.809900  0.453700  1.0
  H  H355  1  0.125000  0.546300  0.809900  1.0
  H  H356  1  0.481200  0.453700  0.190100  1.0
  H  H357  1  0.065100  0.809900  0.453700  1.0
  H  H358  1  0.328700  0.190100  0.546300  1.0
  H  H359  1  0.875000  0.453700  0.190100  1.0
  H  H360  1  0.518800  0.546300  0.809900  1.0
  H  H361  1  0.883600  0.144600  0.639200  1.0
  H  H362  1  0.667400  0.855400  0.360800  1.0
  H  H363  1  0.028200  0.639200  0.855400  1.0
  H  H364  1  0.522800  0.360800  0.144600  1.0
  H  H365  1  0.116400  0.855400  0.360800  1.0
  H  H366  1  0.332600  0.144600  0.639200  1.0
  H  H367  1  0.971800  0.360800  0.144600  1.0
  H  H368  1  0.477200  0.639200  0.855400  1.0
  H  H369  1  0.932900  0.036800  0.645600  1.0
  H  H370  1  0.615300  0.963200  0.354400  1.0
  H  H371  1  0.969700  0.645600  0.963200  1.0
  H  H372  1  0.578500  0.354400  0.036800  1.0
  H  H373  1  0.067100  0.963200  0.354400  1.0
  H  H374  1  0.384700  0.036800  0.645600  1.0
  H  H375  1  0.030300  0.354400  0.036800  1.0
  H  H376  1  0.421500  0.645600  0.963200  1.0
  H  H377  1  0.076100  0.830000  0.580400  1.0
  H  H378  1  0.486500  0.170000  0.419600  1.0
  H  H379  1  0.906100  0.580400  0.170000  1.0
  H  H380  1  0.656500  0.419600  0.830000  1.0
  H  H381  1  0.923900  0.170000  0.419600  1.0
  H  H382  1  0.513500  0.830000  0.580400  1.0
  H  H383  1  0.093900  0.419600  0.830000  1.0
  H  H384  1  0.343500  0.580400  0.170000  1.0
  H  H385  1  0.157700  0.727900  0.564100  1.0
  H  H386  1  0.449700  0.272100  0.435900  1.0
  H  H387  1  0.885600  0.564100  0.272100  1.0
  H  H388  1  0.721800  0.435900  0.727900  1.0
  H  H389  1  0.842300  0.272100  0.435900  1.0
  H  H390  1  0.550300  0.727900  0.564100  1.0
  H  H391  1  0.114400  0.435900  0.727900  1.0
  H  H392  1  0.278200  0.564100  0.272100  1.0
  H  H393  1  0.271500  0.701700  0.488500  1.0
  H  H394  1  0.461700  0.298300  0.511500  1.0
  H  H395  1  0.973200  0.488500  0.298300  1.0
  H  H396  1  0.760000  0.511500  0.701700  1.0
  H  H397  1  0.728500  0.298300  0.511500  1.0
  H  H398  1  0.538300  0.701700  0.488500  1.0
  H  H399  1  0.026800  0.511500  0.701700  1.0
  H  H400  1  0.240000  0.488500  0.298300  1.0
  H  H401  1  0.222000  0.879800  0.445600  1.0
  H  H402  1  0.547400  0.120200  0.554400  1.0
  H  H403  1  0.101800  0.445600  0.120200  1.0
  H  H404  1  0.667600  0.554400  0.879800  1.0
  H  H405  1  0.778000  0.120200  0.554400  1.0
  H  H406  1  0.452600  0.879800  0.445600  1.0
  H  H407  1  0.898200  0.554400  0.879800  1.0
  H  H408  1  0.332400  0.445600  0.120200  1.0
  Mo  Mo409  1  0.367550  0.000000  0.000000  1.0
  Mo  Mo410  1  0.632450  0.000000  0.000000  1.0
  Mo  Mo411  1  0.282730  0.000000  0.000000  1.0
  Mo  Mo412  1  0.717270  0.000000  0.000000  1.0
  Mo  Mo413  1  0.241980  0.319510  0.196530  1.0
  Mo  Mo414  1  0.758020  0.680490  0.803470  1.0
  Mo  Mo415  1  0.561490  0.196530  0.680490  1.0
  Mo  Mo416  1  0.438510  0.803470  0.319510  1.0
  Mo  Mo417  1  0.185990  0.338890  0.289130  1.0
  Mo  Mo418  1  0.814010  0.661110  0.710870  1.0
  Mo  Mo419  1  0.524880  0.289130  0.661110  1.0
  Mo  Mo420  1  0.475120  0.710870  0.338890  1.0
  N  N421  1  0.332300  0.964200  0.371200  1.0
  N  N422  1  0.667700  0.035800  0.628800  1.0
  N  N423  1  0.296500  0.371200  0.035800  1.0
  N  N424  1  0.703500  0.628800  0.964200  1.0
  N  N425  1  0.283900  0.945400  0.306800  1.0
  N  N426  1  0.536100  0.054600  0.693200  1.0
  N  N427  1  0.229300  0.306800  0.054600  1.0
  N  N428  1  0.590700  0.693200  0.945400  1.0
  N  N429  1  0.716100  0.054600  0.693200  1.0
  N  N430  1  0.463900  0.945400  0.306800  1.0
  N  N431  1  0.770700  0.693200  0.945400  1.0
  N  N432  1  0.409300  0.306800  0.054600  1.0
  N  N433  1  0.089200  0.099800  0.403600  1.0
  N  N434  1  0.592600  0.900200  0.596400  1.0
  N  N435  1  0.189000  0.403600  0.900200  1.0
  N  N436  1  0.492800  0.596400  0.099800  1.0
  N  N437  1  0.910800  0.900200  0.596400  1.0
  N  N438  1  0.407400  0.099800  0.403600  1.0
  N  N439  1  0.811000  0.596400  0.099800  1.0
  N  N440  1  0.507200  0.403600  0.900200  1.0
  N  N441  1  0.097000  0.926600  0.518600  1.0
  N  N442  1  0.542200  0.073400  0.481400  1.0
  N  N443  1  0.023600  0.518600  0.073400  1.0
  N  N444  1  0.615600  0.481400  0.926600  1.0
  N  N445  1  0.903000  0.073400  0.481400  1.0
  N  N446  1  0.457800  0.926600  0.518600  1.0
  N  N447  1  0.976400  0.481400  0.926600  1.0
  N  N448  1  0.384400  0.518600  0.073400  1.0
  N  N449  1  0.038800  0.048700  0.505300  1.0
  N  N450  1  0.592800  0.951300  0.494700  1.0
  N  N451  1  0.087500  0.505300  0.951300  1.0
  N  N452  1  0.544100  0.494700  0.048700  1.0
  N  N453  1  0.961200  0.951300  0.494700  1.0
  N  N454  1  0.407200  0.048700  0.505300  1.0
  N  N455  1  0.912500  0.494700  0.048700  1.0
  N  N456  1  0.455900  0.505300  0.951300  1.0
  O  O457  1  0.458500  0.000000  0.000000  1.0
  O  O458  1  0.541500  0.000000  0.000000  1.0
  O  O459  1  0.185000  0.000000  0.000000  1.0
  O  O460  1  0.815000  0.000000  0.000000  1.0
  O  O461  1  0.119500  0.365600  0.395400  1.0
  O  O462  1  0.880500  0.634400  0.604600  1.0
  O  O463  1  0.485100  0.395400  0.634400  1.0
  O  O464  1  0.514900  0.604600  0.365600  1.0
  O  O465  1  0.347400  0.961200  0.084600  1.0
  O  O466  1  0.393200  0.038800  0.915400  1.0
  O  O467  1  0.308600  0.084600  0.038800  1.0
  O  O468  1  0.432000  0.915400  0.961200  1.0
  O  O469  1  0.652600  0.038800  0.915400  1.0
  O  O470  1  0.606800  0.961200  0.084600  1.0
  O  O471  1  0.691400  0.915400  0.961200  1.0
  O  O472  1  0.568000  0.084600  0.038800  1.0
  O  O473  1  0.259600  0.956300  0.084700  1.0
  O  O474  1  0.300600  0.043700  0.915300  1.0
  O  O475  1  0.215900  0.084700  0.043700  1.0
  O  O476  1  0.344300  0.915300  0.956300  1.0
  O  O477  1  0.740400  0.043700  0.915300  1.0
  O  O478  1  0.699400  0.956300  0.084700  1.0
  O  O479  1  0.784100  0.915300  0.956300  1.0
  O  O480  1  0.655700  0.084700  0.043700  1.0
  O  O481  1  0.180000  0.967300  0.390100  1.0
  O  O482  1  0.537400  0.032700  0.609900  1.0
  O  O483  1  0.147300  0.390100  0.032700  1.0
  O  O484  1  0.570100  0.609900  0.967300  1.0
  O  O485  1  0.820000  0.032700  0.609900  1.0
  O  O486  1  0.462600  0.967300  0.390100  1.0
  O  O487  1  0.852700  0.609900  0.967300  1.0
  O  O488  1  0.429900  0.390100  0.032700  1.0
  O  O489  1  0.338400  0.820500  0.383700  1.0
  O  O490  1  0.542600  0.179500  0.616300  1.0
  O  O491  1  0.158900  0.383700  0.179500  1.0
  O  O492  1  0.722100  0.616300  0.820500  1.0
  O  O493  1  0.661600  0.179500  0.616300  1.0
  O  O494  1  0.457400  0.820500  0.383700  1.0
  O  O495  1  0.841100  0.616300  0.820500  1.0
  O  O496  1  0.277900  0.383700  0.179500  1.0
  O  O497  1  0.377600  0.721800  0.401200  1.0
  O  O498  1  0.500600  0.278200  0.598800  1.0
  O  O499  1  0.099400  0.401200  0.278200  1.0
  O  O500  1  0.778800  0.598800  0.721800  1.0
  O  O501  1  0.622400  0.278200  0.598800  1.0
  O  O502  1  0.499400  0.721800  0.401200  1.0
  O  O503  1  0.900600  0.598800  0.721800  1.0
  O  O504  1  0.221200  0.401200  0.278200  1.0
  O  O505  1  0.153700  0.271600  0.305000  1.0
  O  O506  1  0.730300  0.728400  0.695000  1.0
  O  O507  1  0.425300  0.305000  0.728400  1.0
  O  O508  1  0.458700  0.695000  0.271600  1.0
  O  O509  1  0.846300  0.728400  0.695000  1.0
  O  O510  1  0.269700  0.271600  0.305000  1.0
  O  O511  1  0.574700  0.695000  0.271600  1.0
  O  O512  1  0.541300  0.305000  0.728400  1.0
  O  O513  1  0.212200  0.252000  0.207200  1.0
  O  O514  1  0.671400  0.748000  0.792800  1.0
  O  O515  1  0.464200  0.207200  0.748000  1.0
  O  O516  1  0.419400  0.792800  0.252000  1.0
  O  O517  1  0.787800  0.748000  0.792800  1.0
  O  O518  1  0.328600  0.252000  0.207200  1.0
  O  O519  1  0.535800  0.792800  0.252000  1.0
  O  O520  1  0.580600  0.207200  0.748000  1.0
  O  O521  1  0.022100  0.190900  0.444300  1.0
  O  O522  1  0.657300  0.809100  0.555700  1.0
  O  O523  1  0.213000  0.444300  0.809100  1.0
  O  O524  1  0.466400  0.555700  0.190900  1.0
  O  O525  1  0.977900  0.809100  0.555700  1.0
  O  O526  1  0.342700  0.190900  0.444300  1.0
  O  O527  1  0.787000  0.555700  0.190900  1.0
  O  O528  1  0.533600  0.444300  0.809100  1.0
  O  O529  1  0.013900  0.931100  0.612700  1.0
  O  O530  1  0.557700  0.068900  0.387300  1.0
  O  O531  1  0.945000  0.612700  0.068900  1.0
  O  O532  1  0.626600  0.387300  0.931100  1.0
  O  O533  1  0.986100  0.068900  0.387300  1.0
  O  O534  1  0.442300  0.931100  0.612700  1.0
  O  O535  1  0.055000  0.387300  0.931100  1.0
  O  O536  1  0.373400  0.612700  0.068900  1.0
