# generated using pymatgen
data_CuH13C21N3O7
_symmetry_space_group_name_H-M   'P 1'
_cell_length_a   26.27300000
_cell_length_b   26.68700000
_cell_length_c   29.10600000
_cell_angle_alpha   90.06700000
_cell_angle_beta   108.93000000
_cell_angle_gamma   105.38100000
_symmetry_Int_Tables_number   1
_chemical_formula_structural   CuH13C21N3O7
_chemical_formula_sum   'Cu12 H156 C252 N36 O84'
_cell_volume   18527.17281130
_cell_formula_units_Z   12
loop_
 _symmetry_equiv_pos_site_id
 _symmetry_equiv_pos_as_xyz
  1  'x, y, z'
loop_
 _atom_site_type_symbol
 _atom_site_label
 _atom_site_symmetry_multiplicity
 _atom_site_fract_x
 _atom_site_fract_y
 _atom_site_fract_z
 _atom_site_occupancy
  Cu  Cu1  1  0.920700  0.404420  0.066990  1.0
  Cu  Cu2  1  0.079300  0.595580  0.933010  1.0
  Cu  Cu3  1  0.834760  0.323380  0.061860  1.0
  Cu  Cu4  1  0.165240  0.676620  0.938140  1.0
  Cu  Cu5  1  0.815140  0.791310  0.326740  1.0
  Cu  Cu6  1  0.184860  0.208690  0.673260  1.0
  Cu  Cu7  1  0.755300  0.836330  0.257620  1.0
  Cu  Cu8  1  0.244700  0.163670  0.742380  1.0
  Cu  Cu9  1  0.385370  0.224630  0.323290  1.0
  Cu  Cu10  1  0.614630  0.775370  0.676710  1.0
  Cu  Cu11  1  0.415230  0.186780  0.255860  1.0
  Cu  Cu12  1  0.584770  0.813220  0.744140  1.0
  H  H13  1  0.069200  0.195000  0.270900  1.0
  H  H14  1  0.930800  0.805000  0.729100  1.0
  H  H15  1  0.047800  0.094000  0.315200  1.0
  H  H16  1  0.952200  0.906000  0.684800  1.0
  H  H17  1  0.837000  0.667900  0.055500  1.0
  H  H18  1  0.163000  0.332100  0.944500  1.0
  H  H19  1  0.815700  0.677600  0.948300  1.0
  H  H20  1  0.184300  0.322400  0.051700  1.0
  H  H21  1  0.594400  0.031900  0.484700  1.0
  H  H22  1  0.405600  0.968100  0.515300  1.0
  H  H23  1  0.666100  0.958300  0.483100  1.0
  H  H24  1  0.333900  0.041700  0.516900  1.0
  H  H25  1  0.773900  0.494200  0.276000  1.0
  H  H26  1  0.226100  0.505800  0.724000  1.0
  H  H27  1  0.686800  0.463700  0.317400  1.0
  H  H28  1  0.313200  0.536300  0.682600  1.0
  H  H29  1  0.514500  0.438000  0.775900  1.0
  H  H30  1  0.485500  0.562000  0.224100  1.0
  H  H31  1  0.635400  0.475800  0.845900  1.0
  H  H32  1  0.364600  0.524200  0.154100  1.0
  H  H33  1  0.074600  0.820700  0.151400  1.0
  H  H34  1  0.925400  0.179300  0.848600  1.0
  H  H35  1  0.124500  0.927100  0.209100  1.0
  H  H36  1  0.875500  0.072900  0.790900  1.0
  H  H37  1  0.052900  0.347300  0.161000  1.0
  H  H38  1  0.947100  0.652700  0.839000  1.0
  H  H39  1  0.112600  0.307400  0.217000  1.0
  H  H40  1  0.887400  0.692600  0.783000  1.0
  H  H41  1  0.977600  0.197200  0.226800  1.0
  H  H42  1  0.022400  0.802800  0.773200  1.0
  H  H43  1  0.918000  0.237100  0.170800  1.0
  H  H44  1  0.082000  0.762900  0.829200  1.0
  H  H45  1  0.247700  0.245600  0.331600  1.0
  H  H46  1  0.752300  0.754400  0.668400  1.0
  H  H47  1  0.282800  0.189200  0.387800  1.0
  H  H48  1  0.717200  0.810800  0.612200  1.0
  H  H49  1  0.220800  0.115300  0.402900  1.0
  H  H50  1  0.779200  0.884700  0.597100  1.0
  H  H51  1  0.050300  0.984100  0.381600  1.0
  H  H52  1  0.949700  0.015900  0.618400  1.0
  H  H53  1  0.972900  0.911100  0.368600  1.0
  H  H54  1  0.027100  0.088900  0.631400  1.0
  H  H55  1  0.879700  0.978200  0.260600  1.0
  H  H56  1  0.120300  0.021800  0.739400  1.0
  H  H57  1  0.957200  0.051200  0.273500  1.0
  H  H58  1  0.042800  0.948800  0.726500  1.0
  H  H59  1  0.854100  0.688000  0.238400  1.0
  H  H60  1  0.145900  0.312000  0.761600  1.0
  H  H61  1  0.870700  0.641200  0.179300  1.0
  H  H62  1  0.129300  0.358800  0.820700  1.0
  H  H63  1  0.804500  0.730300  0.076900  1.0
  H  H64  1  0.195500  0.269700  0.923100  1.0
  H  H65  1  0.787900  0.777200  0.135900  1.0
  H  H66  1  0.212100  0.222800  0.864100  1.0
  H  H67  1  0.934900  0.559900  0.067100  1.0
  H  H68  1  0.065100  0.440100  0.932900  1.0
  H  H69  1  0.955300  0.543400  0.996700  1.0
  H  H70  1  0.044700  0.456600  0.003300  1.0
  H  H71  1  0.922200  0.590000  0.930100  1.0
  H  H72  1  0.077800  0.410000  0.069900  1.0
  H  H73  1  0.811500  0.682800  0.824600  1.0
  H  H74  1  0.188500  0.317200  0.175400  1.0
  H  H75  1  0.748300  0.716800  0.765800  1.0
  H  H76  1  0.251700  0.283200  0.234200  1.0
  H  H77  1  0.681400  0.746800  0.866600  1.0
  H  H78  1  0.318600  0.253200  0.133400  1.0
  H  H79  1  0.744700  0.712800  0.925400  1.0
  H  H80  1  0.255300  0.287200  0.074600  1.0
  H  H81  1  0.688800  0.915600  0.341800  1.0
  H  H82  1  0.311200  0.084400  0.658200  1.0
  H  H83  1  0.654300  0.944100  0.398600  1.0
  H  H84  1  0.345700  0.055900  0.601400  1.0
  H  H85  1  0.744800  0.870600  0.502200  1.0
  H  H86  1  0.255200  0.129400  0.497800  1.0
  H  H87  1  0.779400  0.842200  0.445300  1.0
  H  H88  1  0.220600  0.157800  0.554700  1.0
  H  H89  1  0.659400  0.893700  0.617900  1.0
  H  H90  1  0.340600  0.106300  0.382100  1.0
  H  H91  1  0.623700  0.941300  0.662800  1.0
  H  H92  1  0.376300  0.058700  0.337200  1.0
  H  H93  1  0.585700  0.007000  0.627100  1.0
  H  H94  1  0.414300  0.993000  0.372900  1.0
  H  H95  1  0.566400  0.053400  0.405600  1.0
  H  H96  1  0.433600  0.946600  0.594400  1.0
  H  H97  1  0.523100  0.103400  0.347700  1.0
  H  H98  1  0.476900  0.896600  0.652300  1.0
  H  H99  1  0.475600  0.165200  0.449000  1.0
  H  H100  1  0.524400  0.834800  0.551000  1.0
  H  H101  1  0.518900  0.115200  0.506800  1.0
  H  H102  1  0.481100  0.884800  0.493200  1.0
  H  H103  1  0.560400  0.310900  0.262600  1.0
  H  H104  1  0.439600  0.689100  0.737400  1.0
  H  H105  1  0.636600  0.385500  0.277800  1.0
  H  H106  1  0.363400  0.614500  0.722200  1.0
  H  H107  1  0.592600  0.441800  0.384200  1.0
  H  H108  1  0.407400  0.558200  0.615800  1.0
  H  H109  1  0.516400  0.367200  0.369000  1.0
  H  H110  1  0.483600  0.632800  0.631000  1.0
  H  H111  1  0.736900  0.604000  0.415000  1.0
  H  H112  1  0.263100  0.396000  0.585000  1.0
  H  H113  1  0.809100  0.669700  0.402000  1.0
  H  H114  1  0.190900  0.330300  0.598000  1.0
  H  H115  1  0.842700  0.655900  0.338400  1.0
  H  H116  1  0.157300  0.344100  0.661600  1.0
  H  H117  1  0.757800  0.424200  0.228600  1.0
  H  H118  1  0.242200  0.575800  0.771400  1.0
  H  H119  1  0.778700  0.379300  0.171200  1.0
  H  H120  1  0.221300  0.620700  0.828800  1.0
  H  H121  1  0.899900  0.508800  0.168300  1.0
  H  H122  1  0.100100  0.491200  0.831700  1.0
  H  H123  1  0.879000  0.553700  0.225800  1.0
  H  H124  1  0.121000  0.446300  0.774200  1.0
  H  H125  1  0.839100  0.492500  0.961200  1.0
  H  H126  1  0.160900  0.507500  0.038800  1.0
  H  H127  1  0.780500  0.532500  0.904300  1.0
  H  H128  1  0.219500  0.467500  0.095700  1.0
  H  H129  1  0.646900  0.409200  0.894100  1.0
  H  H130  1  0.353100  0.590800  0.105900  1.0
  H  H131  1  0.705500  0.369300  0.951100  1.0
  H  H132  1  0.294500  0.630700  0.048900  1.0
  H  H133  1  0.675700  0.631200  0.804700  1.0
  H  H134  1  0.324300  0.368800  0.195300  1.0
  H  H135  1  0.600800  0.650600  0.744000  1.0
  H  H136  1  0.399200  0.349400  0.256000  1.0
  H  H137  1  0.512600  0.588600  0.720600  1.0
  H  H138  1  0.487400  0.411400  0.279400  1.0
  H  H139  1  0.379400  0.428100  0.696600  1.0
  H  H140  1  0.620600  0.571900  0.303400  1.0
  H  H141  1  0.306000  0.350800  0.677600  1.0
  H  H142  1  0.694000  0.649200  0.322400  1.0
  H  H143  1  0.400300  0.284400  0.785400  1.0
  H  H144  1  0.599700  0.715600  0.214600  1.0
  H  H145  1  0.473700  0.361600  0.804400  1.0
  H  H146  1  0.526300  0.638400  0.195600  1.0
  H  H147  1  0.242200  0.104700  0.315600  1.0
  H  H148  1  0.757800  0.895300  0.684400  1.0
  H  H149  1  0.161400  0.034300  0.299000  1.0
  H  H150  1  0.838600  0.965700  0.701000  1.0
  H  H151  1  0.201700  0.971900  0.193100  1.0
  H  H152  1  0.798300  0.028100  0.806900  1.0
  H  H153  1  0.282500  0.042200  0.209700  1.0
  H  H154  1  0.717500  0.957800  0.790300  1.0
  H  H155  1  0.994400  0.913800  0.273000  1.0
  H  H156  1  0.005600  0.086200  0.727000  1.0
  H  H157  1  0.928000  0.830900  0.254400  1.0
  H  H158  1  0.072000  0.169100  0.745600  1.0
  H  H159  1  0.933500  0.767700  0.201400  1.0
  H  H160  1  0.066500  0.232300  0.798600  1.0
  H  H161  1  0.131300  0.819300  0.106400  1.0
  H  H162  1  0.868700  0.180700  0.893600  1.0
  H  H163  1  0.152600  0.776000  0.048200  1.0
  H  H164  1  0.847400  0.224000  0.951800  1.0
  H  H165  1  0.020900  0.650800  0.038200  1.0
  H  H166  1  0.979100  0.349200  0.961800  1.0
  H  H167  1  0.999500  0.694200  0.096300  1.0
  H  H168  1  0.000500  0.305800  0.903700  1.0
  C  C169  1  0.940200  0.321300  0.126300  1.0
  C  C170  1  0.059800  0.678700  0.873700  1.0
  C  C171  1  0.979870  0.295950  0.160630  1.0
  C  C172  1  0.020130  0.704050  0.839370  1.0
  C  C173  1  0.037650  0.316840  0.174360  1.0
  C  C174  1  0.962350  0.683160  0.825640  1.0
  C  C175  1  0.073060  0.293140  0.207630  1.0
  C  C176  1  0.926940  0.706860  0.792370  1.0
  C  C177  1  0.050680  0.248560  0.227170  1.0
  C  C178  1  0.949320  0.751440  0.772830  1.0
  C  C179  1  0.992900  0.227670  0.213440  1.0
  C  C180  1  0.007100  0.772330  0.786560  1.0
  C  C181  1  0.957490  0.251370  0.180170  1.0
  C  C182  1  0.042510  0.748630  0.819830  1.0
  C  C183  1  0.142500  0.237900  0.280800  1.0
  C  C184  1  0.857500  0.762100  0.719200  1.0
  C  C185  1  0.166100  0.201900  0.316400  1.0
  C  C186  1  0.833900  0.798100  0.683600  1.0
  C  C187  1  0.223500  0.215400  0.338500  1.0
  C  C188  1  0.776500  0.784600  0.661500  1.0
  C  C189  1  0.243600  0.182000  0.371200  1.0
  C  C190  1  0.756400  0.818000  0.628800  1.0
  C  C191  1  0.207500  0.138200  0.380100  1.0
  C  C192  1  0.792500  0.861800  0.619900  1.0
  C  C193  1  0.151000  0.129100  0.354300  1.0
  C  C194  1  0.849000  0.870900  0.645700  1.0
  C  C195  1  0.111200  0.078400  0.359900  1.0
  C  C196  1  0.888800  0.921600  0.640100  1.0
  C  C197  1  0.011030  0.024530  0.328760  1.0
  C  C198  1  0.988970  0.975470  0.671240  1.0
  C  C199  1  0.015680  0.982920  0.357000  1.0
  C  C200  1  0.984320  0.017080  0.643000  1.0
  C  C201  1  0.969670  0.939570  0.349300  1.0
  C  C202  1  0.030330  0.060430  0.650700  1.0
  C  C203  1  0.919000  0.937820  0.313360  1.0
  C  C204  1  0.081000  0.062180  0.686640  1.0
  C  C205  1  0.914340  0.979420  0.285120  1.0
  C  C206  1  0.085660  0.020580  0.714880  1.0
  C  C207  1  0.960350  0.022780  0.292830  1.0
  C  C208  1  0.039650  0.977220  0.707170  1.0
  C  C209  1  0.868400  0.888700  0.304900  1.0
  C  C210  1  0.131600  0.111300  0.695100  1.0
  C  C211  1  0.811200  0.765300  0.231800  1.0
  C  C212  1  0.188800  0.234700  0.768200  1.0
  C  C213  1  0.819490  0.736990  0.192740  1.0
  C  C214  1  0.180510  0.263010  0.807260  1.0
  C  C215  1  0.844070  0.696600  0.205620  1.0
  C  C216  1  0.155930  0.303400  0.794380  1.0
  C  C217  1  0.853890  0.668790  0.170520  1.0
  C  C218  1  0.146110  0.331210  0.829480  1.0
  C  C219  1  0.839140  0.681360  0.122540  1.0
  C  C220  1  0.160860  0.318640  0.877460  1.0
  C  C221  1  0.814560  0.721750  0.109650  1.0
  C  C222  1  0.185440  0.278250  0.890350  1.0
  C  C223  1  0.804730  0.749560  0.144750  1.0
  C  C224  1  0.195270  0.250440  0.855250  1.0
  C  C225  1  0.880300  0.622800  0.086400  1.0
  C  C226  1  0.119700  0.377200  0.913600  1.0
  C  C227  1  0.891000  0.611300  0.040590  1.0
  C  C228  1  0.109000  0.388700  0.959410  1.0
  C  C229  1  0.921800  0.577100  0.039000  1.0
  C  C230  1  0.078200  0.422900  0.961000  1.0
  C  C231  1  0.934100  0.566800  0.997910  1.0
  C  C232  1  0.065900  0.433200  0.002090  1.0
  C  C233  1  0.913100  0.593300  0.958800  1.0
  C  C234  1  0.086900  0.406700  0.041200  1.0
  C  C235  1  0.879100  0.624400  0.960160  1.0
  C  C236  1  0.120900  0.375600  0.039840  1.0
  C  C237  1  0.854000  0.647300  0.914100  1.0
  C  C238  1  0.146000  0.352700  0.085900  1.0
  C  C239  1  0.784030  0.694580  0.880550  1.0
  C  C240  1  0.215970  0.305420  0.119450  1.0
  C  C241  1  0.785110  0.695760  0.833120  1.0
  C  C242  1  0.214890  0.304240  0.166880  1.0
  C  C243  1  0.747540  0.715960  0.798170  1.0
  C  C244  1  0.252460  0.284040  0.201830  1.0
  C  C245  1  0.708900  0.734990  0.810640  1.0
  C  C246  1  0.291100  0.265010  0.189360  1.0
  C  C247  1  0.707830  0.733800  0.858060  1.0
  C  C248  1  0.292170  0.266200  0.141940  1.0
  C  C249  1  0.745390  0.713600  0.893020  1.0
  C  C250  1  0.254610  0.286400  0.106980  1.0
  C  C251  1  0.668900  0.754700  0.771200  1.0
  C  C252  1  0.331100  0.245300  0.228800  1.0
  C  C253  1  0.760300  0.854900  0.355200  1.0
  C  C254  1  0.239700  0.145100  0.644800  1.0
  C  C255  1  0.737320  0.876190  0.388200  1.0
  C  C256  1  0.262680  0.123810  0.611800  1.0
  C  C257  1  0.700160  0.906460  0.374320  1.0
  C  C258  1  0.299840  0.093540  0.625680  1.0
  C  C259  1  0.679660  0.923390  0.408090  1.0
  C  C260  1  0.320340  0.076610  0.591910  1.0
  C  C261  1  0.696310  0.910040  0.455750  1.0
  C  C262  1  0.303690  0.089960  0.544250  1.0
  C  C263  1  0.733460  0.879770  0.469630  1.0
  C  C264  1  0.266540  0.120230  0.530370  1.0
  C  C265  1  0.753970  0.862840  0.435860  1.0
  C  C266  1  0.246030  0.137160  0.564140  1.0
  C  C267  1  0.668200  0.911100  0.531500  1.0
  C  C268  1  0.331800  0.088900  0.468500  1.0
  C  C269  1  0.645800  0.939600  0.561100  1.0
  C  C270  1  0.354200  0.060400  0.438900  1.0
  C  C271  1  0.645600  0.922200  0.605600  1.0
  C  C272  1  0.354400  0.077800  0.394400  1.0
  C  C273  1  0.623500  0.949400  0.630940  1.0
  C  C274  1  0.376500  0.050600  0.369060  1.0
  C  C275  1  0.601100  0.988400  0.609700  1.0
  C  C276  1  0.398900  0.011600  0.390300  1.0
  C  C277  1  0.600900  0.000800  0.563700  1.0
  C  C278  1  0.399100  0.999200  0.436300  1.0
  C  C279  1  0.571700  0.040600  0.540200  1.0
  C  C280  1  0.428300  0.959400  0.459800  1.0
  C  C281  1  0.546740  0.079630  0.461660  1.0
  C  C282  1  0.453260  0.920370  0.538340  1.0
  C  C283  1  0.547970  0.076110  0.414400  1.0
  C  C284  1  0.452030  0.923890  0.585600  1.0
  C  C285  1  0.522230  0.105780  0.380030  1.0
  C  C286  1  0.477770  0.894220  0.619970  1.0
  C  C287  1  0.495260  0.138980  0.392920  1.0
  C  C288  1  0.504740  0.861020  0.607080  1.0
  C  C289  1  0.494030  0.142500  0.440180  1.0
  C  C290  1  0.505970  0.857500  0.559820  1.0
  C  C291  1  0.519770  0.112830  0.474550  1.0
  C  C292  1  0.480230  0.887170  0.525450  1.0
  C  C293  1  0.458800  0.165300  0.356700  1.0
  C  C294  1  0.541200  0.834700  0.643300  1.0
  C  C295  1  0.480400  0.286700  0.304100  1.0
  C  C296  1  0.519600  0.713300  0.695900  1.0
  C  C297  1  0.531250  0.332060  0.314400  1.0
  C  C298  1  0.468750  0.667940  0.685600  1.0
  C  C299  1  0.566960  0.337510  0.287290  1.0
  C  C300  1  0.433040  0.662490  0.712710  1.0
  C  C301  1  0.612210  0.381820  0.296280  1.0
  C  C302  1  0.387790  0.618180  0.703720  1.0
  C  C303  1  0.621740  0.420700  0.332380  1.0
  C  C304  1  0.378260  0.579300  0.667620  1.0
  C  C305  1  0.586040  0.415260  0.359490  1.0
  C  C306  1  0.413960  0.584740  0.640510  1.0
  C  C307  1  0.540790  0.370940  0.350500  1.0
  C  C308  1  0.459210  0.629060  0.649500  1.0
  C  C309  1  0.687600  0.508400  0.367900  1.0
  C  C310  1  0.312400  0.491600  0.632100  1.0
  C  C311  1  0.735500  0.551600  0.362900  1.0
  C  C312  1  0.264500  0.448400  0.637100  1.0
  C  C313  1  0.752900  0.598540  0.391100  1.0
  C  C314  1  0.247100  0.401460  0.608900  1.0
  C  C315  1  0.794800  0.637100  0.382800  1.0
  C  C316  1  0.205200  0.362900  0.617200  1.0
  C  C317  1  0.816300  0.629100  0.346900  1.0
  C  C318  1  0.183700  0.370900  0.653100  1.0
  C  C319  1  0.796200  0.578850  0.324400  1.0
  C  C320  1  0.203800  0.421150  0.675600  1.0
  C  C321  1  0.820200  0.564200  0.287900  1.0
  C  C322  1  0.179800  0.435800  0.712100  1.0
  C  C323  1  0.816430  0.493190  0.232590  1.0
  C  C324  1  0.183570  0.506810  0.767410  1.0
  C  C325  1  0.786650  0.441370  0.216390  1.0
  C  C326  1  0.213350  0.558630  0.783610  1.0
  C  C327  1  0.799080  0.414670  0.182290  1.0
  C  C328  1  0.200920  0.585330  0.817710  1.0
  C  C329  1  0.841280  0.439780  0.164380  1.0
  C  C330  1  0.158720  0.560220  0.835620  1.0
  C  C331  1  0.871060  0.491600  0.180580  1.0
  C  C332  1  0.128940  0.508400  0.819420  1.0
  C  C333  1  0.858630  0.518310  0.214680  1.0
  C  C334  1  0.141370  0.481690  0.785320  1.0
  C  C335  1  0.855100  0.410300  0.127400  1.0
  C  C336  1  0.144900  0.589700  0.872600  1.0
  C  C337  1  0.818500  0.406300  0.997600  1.0
  C  C338  1  0.181500  0.593700  0.002400  1.0
  C  C339  1  0.777840  0.427180  0.961540  1.0
  C  C340  1  0.222160  0.572820  0.038460  1.0
  C  C341  1  0.800110  0.475630  0.947630  1.0
  C  C342  1  0.199890  0.524370  0.052370  1.0
  C  C343  1  0.765270  0.499350  0.913780  1.0
  C  C344  1  0.234730  0.500650  0.086220  1.0
  C  C345  1  0.708170  0.474600  0.893850  1.0
  C  C346  1  0.291830  0.525400  0.106150  1.0
  C  C347  1  0.685910  0.426150  0.907760  1.0
  C  C348  1  0.314090  0.573850  0.092240  1.0
  C  C349  1  0.720740  0.402440  0.941610  1.0
  C  C350  1  0.279260  0.597560  0.058390  1.0
  C  C351  1  0.681300  0.544400  0.844700  1.0
  C  C352  1  0.318700  0.455600  0.155300  1.0
  C  C353  1  0.631100  0.557600  0.809700  1.0
  C  C354  1  0.368900  0.442400  0.190300  1.0
  C  C355  1  0.639900  0.606300  0.792500  1.0
  C  C356  1  0.360100  0.393700  0.207500  1.0
  C  C357  1  0.595900  0.618000  0.757400  1.0
  C  C358  1  0.404100  0.382000  0.242600  1.0
  C  C359  1  0.544600  0.580700  0.742400  1.0
  C  C360  1  0.455400  0.419300  0.257600  1.0
  C  C361  1  0.539800  0.531900  0.759300  1.0
  C  C362  1  0.460200  0.468100  0.240700  1.0
  C  C363  1  0.483600  0.492500  0.747900  1.0
  C  C364  1  0.516400  0.507500  0.252100  1.0
  C  C365  1  0.433490  0.402110  0.752330  1.0
  C  C366  1  0.566510  0.597890  0.247670  1.0
  C  C367  1  0.383700  0.398900  0.714660  1.0
  C  C368  1  0.616300  0.601100  0.285340  1.0
  C  C369  1  0.340020  0.353010  0.703350  1.0
  C  C370  1  0.659980  0.646990  0.296650  1.0
  C  C371  1  0.346210  0.310330  0.729720  1.0
  C  C372  1  0.653790  0.689670  0.270280  1.0
  C  C373  1  0.396000  0.313530  0.767390  1.0
  C  C374  1  0.604000  0.686470  0.232610  1.0
  C  C375  1  0.439670  0.359420  0.778690  1.0
  C  C376  1  0.560330  0.640580  0.221310  1.0
  C  C377  1  0.294800  0.262500  0.718400  1.0
  C  C378  1  0.705200  0.737500  0.281600  1.0
  C  C379  1  0.319700  0.125300  0.274700  1.0
  C  C380  1  0.680300  0.874700  0.725300  1.0
  C  C381  1  0.269890  0.080050  0.264210  1.0
  C  C382  1  0.730110  0.919950  0.735790  1.0
  C  C383  1  0.233950  0.077710  0.290710  1.0
  C  C384  1  0.766050  0.922290  0.709290  1.0
  C  C385  1  0.186000  0.035930  0.280850  1.0
  C  C386  1  0.814000  0.964070  0.719150  1.0
  C  C387  1  0.174000  0.996490  0.244480  1.0
  C  C388  1  0.826000  0.003510  0.755520  1.0
  C  C389  1  0.209950  0.998840  0.217980  1.0
  C  C390  1  0.790050  0.001160  0.782020  1.0
  C  C391  1  0.257890  0.040620  0.227850  1.0
  C  C392  1  0.742110  0.959380  0.772150  1.0
  C  C393  1  0.083100  0.944700  0.248100  1.0
  C  C394  1  0.916900  0.055300  0.751900  1.0
  C  C395  1  0.037200  0.894000  0.231300  1.0
  C  C396  1  0.962800  0.106000  0.768700  1.0
  C  C397  1  0.995900  0.887200  0.252300  1.0
  C  C398  1  0.004100  0.112800  0.747700  1.0
  C  C399  1  0.957100  0.838700  0.240700  1.0
  C  C400  1  0.042900  0.161300  0.759300  1.0
  C  C401  1  0.959800  0.801300  0.209400  1.0
  C  C402  1  0.040200  0.198700  0.790600  1.0
  C  C403  1  0.002800  0.815400  0.190300  1.0
  C  C404  1  0.997200  0.184600  0.809700  1.0
  C  C405  1  0.005700  0.777400  0.153100  1.0
  C  C406  1  0.994300  0.222600  0.846900  1.0
  C  C407  1  0.063400  0.760840  0.106840  1.0
  C  C408  1  0.936600  0.239160  0.893160  1.0
  C  C409  1  0.108870  0.785130  0.092550  1.0
  C  C410  1  0.891130  0.214870  0.907450  1.0
  C  C411  1  0.121550  0.759370  0.058000  1.0
  C  C412  1  0.878450  0.240630  0.942000  1.0
  C  C413  1  0.088760  0.709320  0.037730  1.0
  C  C414  1  0.911240  0.290680  0.962270  1.0
  C  C415  1  0.043300  0.685030  0.052020  1.0
  C  C416  1  0.956700  0.314970  0.947980  1.0
  C  C417  1  0.030620  0.710790  0.086570  1.0
  C  C418  1  0.969380  0.289210  0.913430  1.0
  C  C419  1  0.097100  0.677700  0.999400  1.0
  C  C420  1  0.902900  0.322300  0.000600  1.0
  N  N421  1  0.128300  0.159700  0.322100  1.0
  N  N422  1  0.871700  0.840300  0.677900  1.0
  N  N423  1  0.086430  0.223790  0.261230  1.0
  N  N424  1  0.913570  0.776210  0.738770  1.0
  N  N425  1  0.056500  0.068860  0.332910  1.0
  N  N426  1  0.943500  0.931140  0.667090  1.0
  N  N427  1  0.869060  0.634220  0.001030  1.0
  N  N428  1  0.130940  0.365780  0.998970  1.0
  N  N429  1  0.850920  0.657980  0.084660  1.0
  N  N430  1  0.149080  0.342020  0.915340  1.0
  N  N431  1  0.817970  0.673510  0.919090  1.0
  N  N432  1  0.182030  0.326490  0.080910  1.0
  N  N433  1  0.622000  0.975300  0.538040  1.0
  N  N434  1  0.378000  0.024700  0.461960  1.0
  N  N435  1  0.574100  0.048050  0.494610  1.0
  N  N436  1  0.425900  0.951950  0.505390  1.0
  N  N437  1  0.675700  0.929300  0.490210  1.0
  N  N438  1  0.324300  0.070700  0.509790  1.0
  N  N439  1  0.754640  0.539130  0.328250  1.0
  N  N440  1  0.245360  0.460870  0.671750  1.0
  N  N441  1  0.800320  0.515060  0.266950  1.0
  N  N442  1  0.199680  0.484940  0.733050  1.0
  N  N443  1  0.668220  0.465110  0.337400  1.0
  N  N444  1  0.331780  0.534890  0.662600  1.0
  N  N445  1  0.582300  0.520050  0.793300  1.0
  N  N446  1  0.417700  0.479950  0.206700  1.0
  N  N447  1  0.482130  0.444110  0.760800  1.0
  N  N448  1  0.517870  0.555890  0.239200  1.0
  N  N449  1  0.669910  0.495990  0.859200  1.0
  N  N450  1  0.330090  0.504010  0.140800  1.0
  N  N451  1  0.043740  0.860440  0.200800  1.0
  N  N452  1  0.956260  0.139560  0.799200  1.0
  N  N453  1  0.050300  0.790160  0.139020  1.0
  N  N454  1  0.949700  0.209840  0.860980  1.0
  N  N455  1  0.126100  0.951520  0.230350  1.0
  N  N456  1  0.873900  0.048480  0.769650  1.0
  O  O457  1  0.997140  0.473750  0.080460  1.0
  O  O458  1  0.002860  0.526250  0.919540  1.0
  O  O459  1  0.963570  0.365070  0.115630  1.0
  O  O460  1  0.036430  0.634930  0.884370  1.0
  O  O461  1  0.761710  0.255470  0.054390  1.0
  O  O462  1  0.238290  0.744530  0.945610  1.0
  O  O463  1  0.889190  0.297900  0.112700  1.0
  O  O464  1  0.110810  0.702100  0.887300  1.0
  O  O465  1  0.877360  0.853560  0.331150  1.0
  O  O466  1  0.122640  0.146440  0.668850  1.0
  O  O467  1  0.866960  0.759180  0.384870  1.0
  O  O468  1  0.133040  0.240820  0.615130  1.0
  O  O469  1  0.706290  0.874650  0.201670  1.0
  O  O470  1  0.293710  0.125350  0.798330  1.0
  O  O471  1  0.825020  0.894310  0.274980  1.0
  O  O472  1  0.174980  0.105690  0.725020  1.0
  O  O473  1  0.367620  0.258790  0.382250  1.0
  O  O474  1  0.632380  0.741210  0.617750  1.0
  O  O475  1  0.173490  0.277100  0.273190  1.0
  O  O476  1  0.826510  0.722900  0.726810  1.0
  O  O477  1  0.440960  0.156170  0.198500  1.0
  O  O478  1  0.559040  0.843830  0.801500  1.0
  O  O479  1  0.129400  0.048400  0.390100  1.0
  O  O480  1  0.870600  0.951600  0.609900  1.0
  O  O481  1  0.829520  0.756620  0.274880  1.0
  O  O482  1  0.170480  0.243380  0.725120  1.0
  O  O483  1  0.781710  0.798570  0.214700  1.0
  O  O484  1  0.218290  0.201430  0.785300  1.0
  O  O485  1  0.665230  0.748420  0.729280  1.0
  O  O486  1  0.334770  0.251580  0.270720  1.0
  O  O487  1  0.635440  0.774740  0.786080  1.0
  O  O488  1  0.364560  0.225260  0.213920  1.0
  O  O489  1  0.897660  0.602440  0.123690  1.0
  O  O490  1  0.102340  0.397560  0.876310  1.0
  O  O491  1  0.864030  0.639610  0.877150  1.0
  O  O492  1  0.135970  0.360390  0.122850  1.0
  O  O493  1  0.794570  0.830540  0.370090  1.0
  O  O494  1  0.205430  0.169460  0.629910  1.0
  O  O495  1  0.737230  0.863900  0.310970  1.0
  O  O496  1  0.262770  0.136100  0.689030  1.0
  O  O497  1  0.437990  0.193700  0.368940  1.0
  O  O498  1  0.562010  0.806300  0.631060  1.0
  O  O499  1  0.457380  0.153530  0.310200  1.0
  O  O500  1  0.542620  0.846470  0.689800  1.0
  O  O501  1  0.548100  0.062400  0.560280  1.0
  O  O502  1  0.451900  0.937600  0.439720  1.0
  O  O503  1  0.678800  0.870100  0.544780  1.0
  O  O504  1  0.321200  0.129900  0.455220  1.0
  O  O505  1  0.449770  0.286720  0.328580  1.0
  O  O506  1  0.550230  0.713280  0.671420  1.0
  O  O507  1  0.478410  0.251820  0.274410  1.0
  O  O508  1  0.521590  0.748180  0.725590  1.0
  O  O509  1  0.899000  0.433660  0.117450  1.0
  O  O510  1  0.101000  0.566340  0.882550  1.0
  O  O511  1  0.824410  0.365130  0.112890  1.0
  O  O512  1  0.175590  0.634870  0.887110  1.0
  O  O513  1  0.859790  0.599870  0.280650  1.0
  O  O514  1  0.140210  0.400130  0.719350  1.0
  O  O515  1  0.666210  0.517540  0.400280  1.0
  O  O516  1  0.333790  0.482460  0.599720  1.0
  O  O517  1  0.866220  0.430160  0.017200  1.0
  O  O518  1  0.133780  0.569840  0.982800  1.0
  O  O519  1  0.793270  0.362730  0.009700  1.0
  O  O520  1  0.206730  0.637270  0.990300  1.0
  O  O521  1  0.254640  0.262530  0.687300  1.0
  O  O522  1  0.745360  0.737470  0.312700  1.0
  O  O523  1  0.305230  0.227240  0.747400  1.0
  O  O524  1  0.694770  0.772760  0.252600  1.0
  O  O525  1  0.437030  0.501520  0.722200  1.0
  O  O526  1  0.562970  0.498480  0.277800  1.0
  O  O527  1  0.729200  0.574760  0.856750  1.0
  O  O528  1  0.270800  0.425240  0.143250  1.0
  O  O529  1  0.327890  0.156610  0.306230  1.0
  O  O530  1  0.672110  0.843390  0.693770  1.0
  O  O531  1  0.348340  0.127160  0.248010  1.0
  O  O532  1  0.651660  0.872840  0.751990  1.0
  O  O533  1  0.069770  0.635010  0.984710  1.0
  O  O534  1  0.930230  0.364990  0.015290  1.0
  O  O535  1  0.141730  0.705410  0.989080  1.0
  O  O536  1  0.858270  0.294590  0.010920  1.0
  O  O537  1  0.970920  0.732620  0.143770  1.0
  O  O538  1  0.029080  0.267380  0.856230  1.0
  O  O539  1  0.075670  0.981990  0.269290  1.0
  O  O540  1  0.924330  0.018010  0.730710  1.0
