# generated using pymatgen
data_MoH13C21N3O7
_symmetry_space_group_name_H-M   'P 1'
_cell_length_a   16.42660000
_cell_length_b   25.82313616
_cell_length_c   25.82313616
_cell_angle_alpha   84.19391255
_cell_angle_beta   71.45437325
_cell_angle_gamma   71.45437325
_symmetry_Int_Tables_number   1
_chemical_formula_structural   MoH13C21N3O7
_chemical_formula_sum   'Mo8 H104 C168 N24 O56'
_cell_volume   9845.71086112
_cell_formula_units_Z   8
loop_
 _symmetry_equiv_pos_site_id
 _symmetry_equiv_pos_as_xyz
  1  'x, y, z'
loop_
 _atom_site_type_symbol
 _atom_site_label
 _atom_site_symmetry_multiplicity
 _atom_site_fract_x
 _atom_site_fract_y
 _atom_site_fract_z
 _atom_site_occupancy
  C  C1  1  0.214130  0.093460  0.710480  1.0
  C  C2  1  0.924610  0.289520  0.093460  1.0
  C  C3  1  0.018070  0.906540  0.289520  1.0
  C  C4  1  0.307590  0.710480  0.906540  1.0
  C  C5  1  0.785870  0.906540  0.289520  1.0
  C  C6  1  0.075390  0.710480  0.906540  1.0
  C  C7  1  0.981930  0.093460  0.710480  1.0
  C  C8  1  0.692410  0.289520  0.093460  1.0
  C  C9  1  0.290910  0.049930  0.720450  1.0
  C  C10  1  0.011360  0.279550  0.049930  1.0
  C  C11  1  0.061290  0.950070  0.279550  1.0
  C  C12  1  0.340840  0.720450  0.950070  1.0
  C  C13  1  0.709090  0.950070  0.279550  1.0
  C  C14  1  0.988640  0.720450  0.950070  1.0
  C  C15  1  0.938710  0.049930  0.720450  1.0
  C  C16  1  0.659160  0.279550  0.049930  1.0
  C  C17  1  0.302210  0.040870  0.772510  1.0
  C  C18  1  0.074720  0.227490  0.040870  1.0
  C  C19  1  0.115590  0.959130  0.227490  1.0
  C  C20  1  0.343080  0.772510  0.959130  1.0
  C  C21  1  0.697790  0.959130  0.227490  1.0
  C  C22  1  0.925280  0.772510  0.959130  1.0
  C  C23  1  0.884410  0.040870  0.772510  1.0
  C  C24  1  0.656920  0.227490  0.040870  1.0
  C  C25  1  0.373620  0.000130  0.780430  1.0
  C  C26  1  0.154050  0.219570  0.000130  1.0
  C  C27  1  0.154180  0.999870  0.219570  1.0
  C  C28  1  0.373750  0.780430  0.999870  1.0
  C  C29  1  0.626380  0.999870  0.219570  1.0
  C  C30  1  0.845950  0.780430  0.999870  1.0
  C  C31  1  0.845820  0.000130  0.780430  1.0
  C  C32  1  0.626250  0.219570  0.000130  1.0
  C  C33  1  0.434470  0.966290  0.737370  1.0
  C  C34  1  0.171840  0.262630  0.966290  1.0
  C  C35  1  0.138130  0.033710  0.262630  1.0
  C  C36  1  0.400760  0.737370  0.033710  1.0
  C  C37  1  0.565530  0.033710  0.262630  1.0
  C  C38  1  0.828160  0.737370  0.033710  1.0
  C  C39  1  0.861870  0.966290  0.737370  1.0
  C  C40  1  0.599240  0.262630  0.966290  1.0
  C  C41  1  0.424280  0.974200  0.686040  1.0
  C  C42  1  0.110320  0.313960  0.974200  1.0
  C  C43  1  0.084520  0.025800  0.313960  1.0
  C  C44  1  0.398480  0.686040  0.025800  1.0
  C  C45  1  0.575720  0.025800  0.313960  1.0
  C  C46  1  0.889680  0.686040  0.025800  1.0
  C  C47  1  0.915480  0.974200  0.686040  1.0
  C  C48  1  0.601520  0.313960  0.974200  1.0
  C  C49  1  0.351550  0.015280  0.678420  1.0
  C  C50  1  0.029970  0.321580  0.015280  1.0
  C  C51  1  0.045250  0.984720  0.321580  1.0
  C  C52  1  0.366830  0.678420  0.984720  1.0
  C  C53  1  0.648450  0.984720  0.321580  1.0
  C  C54  1  0.970030  0.678420  0.984720  1.0
  C  C55  1  0.954750  0.015280  0.678420  1.0
  C  C56  1  0.633170  0.321580  0.015280  1.0
  C  C57  1  0.514660  0.953800  0.592280  1.0
  C  C58  1  0.106940  0.407720  0.953800  1.0
  C  C59  1  0.060740  0.046200  0.407720  1.0
  C  C60  1  0.468460  0.592280  0.046200  1.0
  C  C61  1  0.485340  0.046200  0.407720  1.0
  C  C62  1  0.893060  0.592280  0.046200  1.0
  C  C63  1  0.939260  0.953800  0.592280  1.0
  C  C64  1  0.531540  0.407720  0.953800  1.0
  C  C65  1  0.565840  0.909430  0.549690  1.0
  C  C66  1  0.115530  0.450310  0.909430  1.0
  C  C67  1  0.024960  0.090570  0.450310  1.0
  C  C68  1  0.475270  0.549690  0.090570  1.0
  C  C69  1  0.434160  0.090570  0.450310  1.0
  C  C70  1  0.884470  0.549690  0.090570  1.0
  C  C71  1  0.975040  0.909430  0.549690  1.0
  C  C72  1  0.524730  0.450310  0.909430  1.0
  C  C73  1  0.598380  0.923180  0.495660  1.0
  C  C74  1  0.094040  0.504340  0.923180  1.0
  C  C75  1  0.017220  0.076820  0.504340  1.0
  C  C76  1  0.521560  0.495660  0.076820  1.0
  C  C77  1  0.401620  0.076820  0.504340  1.0
  C  C78  1  0.905960  0.495660  0.076820  1.0
  C  C79  1  0.982780  0.923180  0.495660  1.0
  C  C80  1  0.478440  0.504340  0.923180  1.0
  C  C81  1  0.644980  0.882380  0.457060  1.0
  C  C82  1  0.102040  0.542940  0.882380  1.0
  C  C83  1  0.984420  0.117620  0.542940  1.0
  C  C84  1  0.527360  0.457060  0.117620  1.0
  C  C85  1  0.355020  0.117620  0.542940  1.0
  C  C86  1  0.897960  0.457060  0.117620  1.0
  C  C87  1  0.015580  0.882380  0.457060  1.0
  C  C88  1  0.472640  0.542940  0.882380  1.0
  C  C89  1  0.657360  0.828800  0.474080  1.0
  C  C90  1  0.131440  0.525920  0.828800  1.0
  C  C91  1  0.960240  0.171200  0.525920  1.0
  C  C92  1  0.486160  0.474080  0.171200  1.0
  C  C93  1  0.342640  0.171200  0.525920  1.0
  C  C94  1  0.868560  0.474080  0.171200  1.0
  C  C95  1  0.039760  0.828800  0.474080  1.0
  C  C96  1  0.513840  0.525920  0.828800  1.0
  C  C97  1  0.622630  0.818480  0.528860  1.0
  C  C98  1  0.151490  0.471140  0.818480  1.0
  C  C99  1  0.969970  0.181520  0.471140  1.0
  C  C100  1  0.441110  0.528860  0.181520  1.0
  C  C101  1  0.377370  0.181520  0.471140  1.0
  C  C102  1  0.848510  0.528860  0.181520  1.0
  C  C103  1  0.030030  0.818480  0.528860  1.0
  C  C104  1  0.558890  0.471140  0.818480  1.0
  C  C105  1  0.634870  0.759940  0.547720  1.0
  C  C106  1  0.182590  0.452280  0.759940  1.0
  C  C107  1  0.942530  0.240060  0.452280  1.0
  C  C108  1  0.394810  0.547720  0.240060  1.0
  C  C109  1  0.365130  0.240060  0.452280  1.0
  C  C110  1  0.817410  0.547720  0.240060  1.0
  C  C111  1  0.057470  0.759940  0.547720  1.0
  C  C112  1  0.605190  0.452280  0.759940  1.0
  C  C113  1  0.579360  0.707530  0.629350  1.0
  C  C114  1  0.208710  0.370650  0.707530  1.0
  C  C115  1  0.916240  0.292470  0.370650  1.0
  C  C116  1  0.286890  0.629350  0.292470  1.0
  C  C117  1  0.420640  0.292470  0.370650  1.0
  C  C118  1  0.791290  0.629350  0.292470  1.0
  C  C119  1  0.083760  0.707530  0.629350  1.0
  C  C120  1  0.713110  0.370650  0.707530  1.0
  C  C121  1  0.503510  0.713800  0.672780  1.0
  C  C122  1  0.176290  0.327220  0.713800  1.0
  C  C123  1  0.890090  0.286200  0.327220  1.0
  C  C124  1  0.217310  0.672780  0.286200  1.0
  C  C125  1  0.496490  0.286200  0.327220  1.0
  C  C126  1  0.823710  0.672780  0.286200  1.0
  C  C127  1  0.109910  0.713800  0.672780  1.0
  C  C128  1  0.782690  0.327220  0.713800  1.0
  C  C129  1  0.485030  0.668370  0.703170  1.0
  C  C130  1  0.188200  0.296830  0.668370  1.0
  C  C131  1  0.856570  0.331630  0.296830  1.0
  C  C132  1  0.153400  0.703170  0.331630  1.0
  C  C133  1  0.514970  0.331630  0.296830  1.0
  C  C134  1  0.811800  0.703170  0.331630  1.0
  C  C135  1  0.143430  0.668370  0.703170  1.0
  C  C136  1  0.846600  0.296830  0.668370  1.0
  C  C137  1  0.544270  0.616240  0.688620  1.0
  C  C138  1  0.232890  0.311380  0.616240  1.0
  C  C139  1  0.849130  0.383760  0.311380  1.0
  C  C140  1  0.160510  0.688620  0.383760  1.0
  C  C141  1  0.455730  0.383760  0.311380  1.0
  C  C142  1  0.767110  0.688620  0.383760  1.0
  C  C143  1  0.150870  0.616240  0.688620  1.0
  C  C144  1  0.839490  0.311380  0.616240  1.0
  C  C145  1  0.623060  0.610840  0.643640  1.0
  C  C146  1  0.266700  0.356360  0.610840  1.0
  C  C147  1  0.877540  0.389160  0.356360  1.0
  C  C148  1  0.233900  0.643640  0.389160  1.0
  C  C149  1  0.376940  0.389160  0.356360  1.0
  C  C150  1  0.733300  0.643640  0.389160  1.0
  C  C151  1  0.122460  0.610840  0.643640  1.0
  C  C152  1  0.766100  0.356360  0.610840  1.0
  C  C153  1  0.638960  0.655910  0.613970  1.0
  C  C154  1  0.252930  0.386030  0.655910  1.0
  C  C155  1  0.908840  0.344090  0.386030  1.0
  C  C156  1  0.294870  0.613970  0.344090  1.0
  C  C157  1  0.361040  0.344090  0.386030  1.0
  C  C158  1  0.747070  0.613970  0.344090  1.0
  C  C159  1  0.091160  0.655910  0.613970  1.0
  C  C160  1  0.705130  0.386030  0.655910  1.0
  C  C161  1  0.400030  0.676740  0.749200  1.0
  C  C162  1  0.149230  0.250800  0.676740  1.0
  C  C163  1  0.825970  0.323260  0.250800  1.0
  C  C164  1  0.076770  0.749200  0.323260  1.0
  C  C165  1  0.599970  0.323260  0.250800  1.0
  C  C166  1  0.850770  0.749200  0.323260  1.0
  C  C167  1  0.174030  0.676740  0.749200  1.0
  C  C168  1  0.923230  0.250800  0.676740  1.0
  H  H169  1  0.499900  0.901400  0.651800  1.0
  H  H170  1  0.151700  0.348200  0.901400  1.0
  H  H171  1  0.053100  0.098600  0.348200  1.0
  H  H172  1  0.401300  0.651800  0.098600  1.0
  H  H173  1  0.500100  0.098600  0.348200  1.0
  H  H174  1  0.848300  0.651800  0.098600  1.0
  H  H175  1  0.946900  0.901400  0.651800  1.0
  H  H176  1  0.598700  0.348200  0.901400  1.0
  H  H177  1  0.568800  0.786000  0.621400  1.0
  H  H178  1  0.190200  0.378600  0.786000  1.0
  H  H179  1  0.976200  0.214000  0.378600  1.0
  H  H180  1  0.354800  0.621400  0.214000  1.0
  H  H181  1  0.431200  0.214000  0.378600  1.0
  H  H182  1  0.809800  0.621400  0.214000  1.0
  H  H183  1  0.023800  0.786000  0.621400  1.0
  H  H184  1  0.645200  0.378600  0.786000  1.0
  H  H185  1  0.257600  0.062400  0.802800  1.0
  H  H186  1  0.060400  0.197200  0.062400  1.0
  H  H187  1  0.122800  0.937600  0.197200  1.0
  H  H188  1  0.320000  0.802800  0.937600  1.0
  H  H189  1  0.742400  0.937600  0.197200  1.0
  H  H190  1  0.939600  0.802800  0.937600  1.0
  H  H191  1  0.877200  0.062400  0.802800  1.0
  H  H192  1  0.680000  0.197200  0.062400  1.0
  H  H193  1  0.384400  0.996500  0.815300  1.0
  H  H194  1  0.199700  0.184700  0.996500  1.0
  H  H195  1  0.196200  0.003500  0.184700  1.0
  H  H196  1  0.380900  0.815300  0.003500  1.0
  H  H197  1  0.615600  0.003500  0.184700  1.0
  H  H198  1  0.800300  0.815300  0.003500  1.0
  H  H199  1  0.803800  0.996500  0.815300  1.0
  H  H200  1  0.619100  0.184700  0.996500  1.0
  H  H201  1  0.482300  0.936000  0.743800  1.0
  H  H202  1  0.226100  0.256200  0.936000  1.0
  H  H203  1  0.162100  0.064000  0.256200  1.0
  H  H204  1  0.418300  0.743800  0.064000  1.0
  H  H205  1  0.517700  0.064000  0.256200  1.0
  H  H206  1  0.773900  0.743800  0.064000  1.0
  H  H207  1  0.837900  0.936000  0.743800  1.0
  H  H208  1  0.581700  0.256200  0.936000  1.0
  H  H209  1  0.343400  0.020200  0.642800  1.0
  H  H210  1  0.986200  0.357200  0.020200  1.0
  H  H211  1  0.006400  0.979800  0.357200  1.0
  H  H212  1  0.363600  0.642800  0.979800  1.0
  H  H213  1  0.656600  0.979800  0.357200  1.0
  H  H214  1  0.013800  0.642800  0.979800  1.0
  H  H215  1  0.993600  0.020200  0.642800  1.0
  H  H216  1  0.636400  0.357200  0.020200  1.0
  H  H217  1  0.588100  0.960900  0.485500  1.0
  H  H218  1  0.073600  0.514500  0.960900  1.0
  H  H219  1  0.034500  0.039100  0.514500  1.0
  H  H220  1  0.549000  0.485500  0.039100  1.0
  H  H221  1  0.411900  0.039100  0.514500  1.0
  H  H222  1  0.926400  0.485500  0.039100  1.0
  H  H223  1  0.965500  0.960900  0.485500  1.0
  H  H224  1  0.451000  0.514500  0.960900  1.0
  H  H225  1  0.669300  0.891000  0.419400  1.0
  H  H226  1  0.088700  0.580600  0.891000  1.0
  H  H227  1  0.979700  0.109000  0.580600  1.0
  H  H228  1  0.560300  0.419400  0.109000  1.0
  H  H229  1  0.330700  0.109000  0.580600  1.0
  H  H230  1  0.911300  0.419400  0.109000  1.0
  H  H231  1  0.020300  0.891000  0.419400  1.0
  H  H232  1  0.439700  0.580600  0.891000  1.0
  H  H233  1  0.690700  0.799500  0.448300  1.0
  H  H234  1  0.139000  0.551700  0.799500  1.0
  H  H235  1  0.938500  0.200500  0.551700  1.0
  H  H236  1  0.490200  0.448300  0.200500  1.0
  H  H237  1  0.309300  0.200500  0.551700  1.0
  H  H238  1  0.861000  0.448300  0.200500  1.0
  H  H239  1  0.061500  0.799500  0.448300  1.0
  H  H240  1  0.509800  0.551700  0.799500  1.0
  H  H241  1  0.461100  0.749400  0.682400  1.0
  H  H242  1  0.143500  0.317600  0.749400  1.0
  H  H243  1  0.892900  0.250600  0.317600  1.0
  H  H244  1  0.210500  0.682400  0.250600  1.0
  H  H245  1  0.538900  0.250600  0.317600  1.0
  H  H246  1  0.856500  0.682400  0.250600  1.0
  H  H247  1  0.107100  0.749400  0.682400  1.0
  H  H248  1  0.789500  0.317600  0.749400  1.0
  H  H249  1  0.530600  0.585100  0.708700  1.0
  H  H250  1  0.239300  0.291300  0.585100  1.0
  H  H251  1  0.824400  0.414900  0.291300  1.0
  H  H252  1  0.115700  0.708700  0.414900  1.0
  H  H253  1  0.469400  0.414900  0.291300  1.0
  H  H254  1  0.760700  0.708700  0.414900  1.0
  H  H255  1  0.175600  0.585100  0.708700  1.0
  H  H256  1  0.884300  0.291300  0.585100  1.0
  H  H257  1  0.664200  0.575000  0.633800  1.0
  H  H258  1  0.298000  0.366200  0.575000  1.0
  H  H259  1  0.873000  0.425000  0.366200  1.0
  H  H260  1  0.239200  0.633800  0.425000  1.0
  H  H261  1  0.335800  0.425000  0.366200  1.0
  H  H262  1  0.702000  0.633800  0.425000  1.0
  H  H263  1  0.127000  0.575000  0.633800  1.0
  H  H264  1  0.760800  0.366200  0.575000  1.0
  H  H265  1  0.692400  0.651700  0.583300  1.0
  H  H266  1  0.275700  0.416700  0.651700  1.0
  H  H267  1  0.927400  0.348300  0.416700  1.0
  H  H268  1  0.344100  0.583300  0.348300  1.0
  H  H269  1  0.307600  0.348300  0.416700  1.0
  H  H270  1  0.724300  0.583300  0.348300  1.0
  H  H271  1  0.072600  0.651700  0.583300  1.0
  H  H272  1  0.655900  0.416700  0.651700  1.0
  Mo  Mo273  1  0.041596  0.180705  0.736103  1.0
  Mo  Mo274  1  0.777699  0.263897  0.180705  1.0
  Mo  Mo275  1  0.958404  0.819295  0.263897  1.0
  Mo  Mo276  1  0.222301  0.736103  0.819295  1.0
  Mo  Mo277  1  0.092898  0.162579  0.651625  1.0
  Mo  Mo278  1  0.744523  0.348375  0.162579  1.0
  Mo  Mo279  1  0.907102  0.837421  0.348375  1.0
  Mo  Mo280  1  0.255477  0.651625  0.837421  1.0
  N  N281  1  0.577260  0.857620  0.566860  1.0
  N  N282  1  0.144120  0.433140  0.857620  1.0
  N  N283  1  0.001740  0.142380  0.433140  1.0
  N  N284  1  0.434880  0.566860  0.142380  1.0
  N  N285  1  0.422740  0.142380  0.433140  1.0
  N  N286  1  0.855880  0.566860  0.142380  1.0
  N  N287  1  0.998260  0.857620  0.566860  1.0
  N  N288  1  0.565120  0.433140  0.857620  1.0
  N  N289  1  0.483550  0.937280  0.644020  1.0
  N  N290  1  0.127570  0.355980  0.937280  1.0
  N  N291  1  0.064850  0.062720  0.355980  1.0
  N  N292  1  0.420830  0.644020  0.062720  1.0
  N  N293  1  0.516450  0.062720  0.355980  1.0
  N  N294  1  0.872430  0.644020  0.062720  1.0
  N  N295  1  0.935150  0.937280  0.644020  1.0
  N  N296  1  0.579170  0.355980  0.937280  1.0
  N  N297  1  0.592570  0.755260  0.601200  1.0
  N  N298  1  0.193770  0.398800  0.755260  1.0
  N  N299  1  0.949030  0.244740  0.398800  1.0
  N  N300  1  0.347830  0.601200  0.244740  1.0
  N  N301  1  0.407430  0.244740  0.398800  1.0
  N  N302  1  0.806230  0.601200  0.244740  1.0
  N  N303  1  0.050970  0.755260  0.601200  1.0
  N  N304  1  0.652170  0.398800  0.755260  1.0
  O  O305  1  0.980140  0.201760  0.837960  1.0
  O  O306  1  0.818100  0.162040  0.201760  1.0
  O  O307  1  0.019860  0.798240  0.162040  1.0
  O  O308  1  0.181900  0.837960  0.798240  1.0
  O  O309  1  0.155050  0.139750  0.550150  1.0
  O  O310  1  0.705200  0.449850  0.139750  1.0
  O  O311  1  0.844950  0.860250  0.449850  1.0
  O  O312  1  0.294800  0.550150  0.860250  1.0
  O  O313  1  0.153950  0.121310  0.751710  1.0
  O  O314  1  0.905660  0.248290  0.121310  1.0
  O  O315  1  0.026970  0.878690  0.248290  1.0
  O  O316  1  0.275260  0.751710  0.878690  1.0
  O  O317  1  0.846050  0.878690  0.248290  1.0
  O  O318  1  0.094340  0.751710  0.878690  1.0
  O  O319  1  0.973030  0.121310  0.751710  1.0
  O  O320  1  0.724740  0.248290  0.121310  1.0
  O  O321  1  0.207600  0.102330  0.662310  1.0
  O  O322  1  0.869910  0.337690  0.102330  1.0
  O  O323  1  0.972240  0.897670  0.337690  1.0
  O  O324  1  0.309930  0.662310  0.897670  1.0
  O  O325  1  0.792400  0.897670  0.337690  1.0
  O  O326  1  0.130090  0.662310  0.897670  1.0
  O  O327  1  0.027760  0.102330  0.662310  1.0
  O  O328  1  0.690070  0.337690  0.102330  1.0
  O  O329  1  0.383120  0.636340  0.777140  1.0
  O  O330  1  0.160260  0.222860  0.636340  1.0
  O  O331  1  0.796600  0.363660  0.222860  1.0
  O  O332  1  0.019460  0.777140  0.363660  1.0
  O  O333  1  0.616880  0.363660  0.222860  1.0
  O  O334  1  0.839740  0.777140  0.363660  1.0
  O  O335  1  0.203400  0.636340  0.777140  1.0
  O  O336  1  0.980540  0.222860  0.636340  1.0
  O  O337  1  0.346550  0.725430  0.758630  1.0
  O  O338  1  0.105180  0.241370  0.725430  1.0
  O  O339  1  0.830610  0.274570  0.241370  1.0
  O  O340  1  0.071980  0.758630  0.274570  1.0
  O  O341  1  0.653450  0.274570  0.241370  1.0
  O  O342  1  0.894820  0.758630  0.274570  1.0
  O  O343  1  0.169390  0.725430  0.758630  1.0
  O  O344  1  0.928020  0.241370  0.725430  1.0
  O  O345  1  0.503830  0.002130  0.579610  1.0
  O  O346  1  0.083440  0.420390  0.002130  1.0
  O  O347  1  0.085570  0.997870  0.420390  1.0
  O  O348  1  0.505960  0.579610  0.997870  1.0
  O  O349  1  0.496170  0.997870  0.420390  1.0
  O  O350  1  0.916560  0.579610  0.997870  1.0
  O  O351  1  0.914430  0.002130  0.579610  1.0
  O  O352  1  0.494040  0.420390  0.002130  1.0
  O  O353  1  0.677320  0.722390  0.515970  1.0
  O  O354  1  0.193290  0.484030  0.722390  1.0
  O  O355  1  0.915680  0.277610  0.484030  1.0
  O  O356  1  0.399710  0.515970  0.277610  1.0
  O  O357  1  0.322680  0.277610  0.484030  1.0
  O  O358  1  0.806710  0.515970  0.277610  1.0
  O  O359  1  0.084320  0.722390  0.515970  1.0
  O  O360  1  0.600290  0.484030  0.722390  1.0
