# generated using pymatgen
data_CuH13C21N3O7
_symmetry_space_group_name_H-M   'P 1'
_cell_length_a   19.77401235
_cell_length_b   19.77401235
_cell_length_c   48.79700000
_cell_angle_alpha   90.00000000
_cell_angle_beta   90.00000000
_cell_angle_gamma   107.00023883
_symmetry_Int_Tables_number   1
_chemical_formula_structural   CuH13C21N3O7
_chemical_formula_sum   'Cu16 H208 C336 N48 O112'
_cell_volume   18246.45443237
_cell_formula_units_Z   16
loop_
 _symmetry_equiv_pos_site_id
 _symmetry_equiv_pos_as_xyz
  1  'x, y, z'
loop_
 _atom_site_type_symbol
 _atom_site_label
 _atom_site_symmetry_multiplicity
 _atom_site_fract_x
 _atom_site_fract_y
 _atom_site_fract_z
 _atom_site_occupancy
  C  C1  1  0.988300  0.166300  0.861100  1.0
  C  C2  1  0.511700  0.333700  0.361100  1.0
  C  C3  1  0.166300  0.988300  0.138900  1.0
  C  C4  1  0.333700  0.511700  0.638900  1.0
  C  C5  1  0.011700  0.833700  0.138900  1.0
  C  C6  1  0.488300  0.666300  0.638900  1.0
  C  C7  1  0.833700  0.011700  0.861100  1.0
  C  C8  1  0.666300  0.488300  0.361100  1.0
  C  C9  1  0.009490  0.232310  0.878690  1.0
  C  C10  1  0.490510  0.267690  0.378690  1.0
  C  C11  1  0.232310  0.009490  0.121310  1.0
  C  C12  1  0.267690  0.490510  0.621310  1.0
  C  C13  1  0.990510  0.767690  0.121310  1.0
  C  C14  1  0.509490  0.732310  0.621310  1.0
  C  C15  1  0.767690  0.990510  0.878690  1.0
  C  C16  1  0.732310  0.509490  0.378690  1.0
  C  C17  1  0.057600  0.238000  0.899970  1.0
  C  C18  1  0.442400  0.262000  0.399970  1.0
  C  C19  1  0.238000  0.057600  0.100030  1.0
  C  C20  1  0.262000  0.442400  0.600030  1.0
  C  C21  1  0.942400  0.762000  0.100030  1.0
  C  C22  1  0.557600  0.738000  0.600030  1.0
  C  C23  1  0.762000  0.942400  0.899970  1.0
  C  C24  1  0.738000  0.557600  0.399970  1.0
  C  C25  1  0.079990  0.300210  0.915040  1.0
  C  C26  1  0.420010  0.199790  0.415040  1.0
  C  C27  1  0.300210  0.079990  0.084960  1.0
  C  C28  1  0.199790  0.420010  0.584960  1.0
  C  C29  1  0.920010  0.699790  0.084960  1.0
  C  C30  1  0.579990  0.800210  0.584960  1.0
  C  C31  1  0.699790  0.920010  0.915040  1.0
  C  C32  1  0.800210  0.579990  0.415040  1.0
  C  C33  1  0.054280  0.356720  0.908840  1.0
  C  C34  1  0.445720  0.143280  0.408840  1.0
  C  C35  1  0.356720  0.054280  0.091160  1.0
  C  C36  1  0.143280  0.445720  0.591160  1.0
  C  C37  1  0.945720  0.643280  0.091160  1.0
  C  C38  1  0.554280  0.856720  0.591160  1.0
  C  C39  1  0.643280  0.945720  0.908840  1.0
  C  C40  1  0.856720  0.554280  0.408840  1.0
  C  C41  1  0.006270  0.351130  0.887570  1.0
  C  C42  1  0.493730  0.148870  0.387570  1.0
  C  C43  1  0.351130  0.006270  0.112430  1.0
  C  C44  1  0.148870  0.493730  0.612430  1.0
  C  C45  1  0.993730  0.648870  0.112430  1.0
  C  C46  1  0.506270  0.851130  0.612430  1.0
  C  C47  1  0.648870  0.993730  0.887570  1.0
  C  C48  1  0.851130  0.506270  0.387570  1.0
  C  C49  1  0.983870  0.288930  0.872490  1.0
  C  C50  1  0.516130  0.211070  0.372490  1.0
  C  C51  1  0.288930  0.983870  0.127510  1.0
  C  C52  1  0.211070  0.516130  0.627510  1.0
  C  C53  1  0.016130  0.711070  0.127510  1.0
  C  C54  1  0.483870  0.788930  0.627510  1.0
  C  C55  1  0.711070  0.016130  0.872490  1.0
  C  C56  1  0.788930  0.483870  0.372490  1.0
  C  C57  1  0.961200  0.422600  0.854400  1.0
  C  C58  1  0.538800  0.077400  0.354400  1.0
  C  C59  1  0.422600  0.961200  0.145600  1.0
  C  C60  1  0.077400  0.538800  0.645600  1.0
  C  C61  1  0.038800  0.577400  0.145600  1.0
  C  C62  1  0.461200  0.922600  0.645600  1.0
  C  C63  1  0.577400  0.038800  0.854400  1.0
  C  C64  1  0.922600  0.461200  0.354400  1.0
  C  C65  1  0.924300  0.479100  0.854290  1.0
  C  C66  1  0.575700  0.020900  0.354290  1.0
  C  C67  1  0.479100  0.924300  0.145710  1.0
  C  C68  1  0.020900  0.575700  0.645710  1.0
  C  C69  1  0.075700  0.520900  0.145710  1.0
  C  C70  1  0.424300  0.979100  0.645710  1.0
  C  C71  1  0.520900  0.075700  0.854290  1.0
  C  C72  1  0.979100  0.424300  0.354290  1.0
  C  C73  1  0.912700  0.497100  0.827760  1.0
  C  C74  1  0.587300  0.002900  0.327760  1.0
  C  C75  1  0.497100  0.912700  0.172240  1.0
  C  C76  1  0.002900  0.587300  0.672240  1.0
  C  C77  1  0.087300  0.502900  0.172240  1.0
  C  C78  1  0.412700  0.997100  0.672240  1.0
  C  C79  1  0.502900  0.087300  0.827760  1.0
  C  C80  1  0.997100  0.412700  0.327760  1.0
  C  C81  1  0.868100  0.539300  0.826700  1.0
  C  C82  1  0.631900  0.960700  0.326700  1.0
  C  C83  1  0.539300  0.868100  0.173300  1.0
  C  C84  1  0.960700  0.631900  0.673300  1.0
  C  C85  1  0.131900  0.460700  0.173300  1.0
  C  C86  1  0.368100  0.039300  0.673300  1.0
  C  C87  1  0.460700  0.131900  0.826700  1.0
  C  C88  1  0.039300  0.368100  0.326700  1.0
  C  C89  1  0.840400  0.558800  0.850330  1.0
  C  C90  1  0.659600  0.941200  0.350330  1.0
  C  C91  1  0.558800  0.840400  0.149670  1.0
  C  C92  1  0.941200  0.659600  0.649670  1.0
  C  C93  1  0.159600  0.441200  0.149670  1.0
  C  C94  1  0.340400  0.058800  0.649670  1.0
  C  C95  1  0.441200  0.159600  0.850330  1.0
  C  C96  1  0.058800  0.340400  0.350330  1.0
  C  C97  1  0.857100  0.536300  0.875560  1.0
  C  C98  1  0.642900  0.963700  0.375560  1.0
  C  C99  1  0.536300  0.857100  0.124440  1.0
  C  C100  1  0.963700  0.642900  0.624440  1.0
  C  C101  1  0.142900  0.463700  0.124440  1.0
  C  C102  1  0.357100  0.036300  0.624440  1.0
  C  C103  1  0.463700  0.142900  0.875560  1.0
  C  C104  1  0.036300  0.357100  0.375560  1.0
  C  C105  1  0.824100  0.549900  0.902140  1.0
  C  C106  1  0.675900  0.950100  0.402140  1.0
  C  C107  1  0.549900  0.824100  0.097860  1.0
  C  C108  1  0.950100  0.675900  0.597860  1.0
  C  C109  1  0.175900  0.450100  0.097860  1.0
  C  C110  1  0.324100  0.049900  0.597860  1.0
  C  C111  1  0.450100  0.175900  0.902140  1.0
  C  C112  1  0.049900  0.324100  0.402140  1.0
  C  C113  1  0.813800  0.519800  0.951340  1.0
  C  C114  1  0.686200  0.980200  0.451340  1.0
  C  C115  1  0.519800  0.813800  0.048660  1.0
  C  C116  1  0.980200  0.686200  0.548660  1.0
  C  C117  1  0.186200  0.480200  0.048660  1.0
  C  C118  1  0.313800  0.019800  0.548660  1.0
  C  C119  1  0.480200  0.186200  0.951340  1.0
  C  C120  1  0.019800  0.313800  0.451340  1.0
  C  C121  1  0.796400  0.577400  0.962280  1.0
  C  C122  1  0.703600  0.922600  0.462280  1.0
  C  C123  1  0.577400  0.796400  0.037720  1.0
  C  C124  1  0.922600  0.703600  0.537720  1.0
  C  C125  1  0.203600  0.422600  0.037720  1.0
  C  C126  1  0.296400  0.077400  0.537720  1.0
  C  C127  1  0.422600  0.203600  0.962280  1.0
  C  C128  1  0.077400  0.296400  0.462280  1.0
  C  C129  1  0.767800  0.573400  0.988450  1.0
  C  C130  1  0.732200  0.926600  0.488450  1.0
  C  C131  1  0.573400  0.767800  0.011550  1.0
  C  C132  1  0.926600  0.732200  0.511550  1.0
  C  C133  1  0.232200  0.426600  0.011550  1.0
  C  C134  1  0.267800  0.073400  0.511550  1.0
  C  C135  1  0.426600  0.232200  0.988450  1.0
  C  C136  1  0.073400  0.267800  0.488450  1.0
  C  C137  1  0.756500  0.511700  0.003690  1.0
  C  C138  1  0.743500  0.988300  0.503690  1.0
  C  C139  1  0.511700  0.756500  0.996310  1.0
  C  C140  1  0.988300  0.743500  0.496310  1.0
  C  C141  1  0.243500  0.488300  0.996310  1.0
  C  C142  1  0.256500  0.011700  0.496310  1.0
  C  C143  1  0.488300  0.243500  0.003690  1.0
  C  C144  1  0.011700  0.256500  0.503690  1.0
  C  C145  1  0.773950  0.454050  0.992750  1.0
  C  C146  1  0.726050  0.045950  0.492750  1.0
  C  C147  1  0.454050  0.773950  0.007250  1.0
  C  C148  1  0.045950  0.726050  0.507250  1.0
  C  C149  1  0.226050  0.545950  0.007250  1.0
  C  C150  1  0.273950  0.954050  0.507250  1.0
  C  C151  1  0.545950  0.226050  0.992750  1.0
  C  C152  1  0.954050  0.273950  0.492750  1.0
  C  C153  1  0.802560  0.458040  0.966580  1.0
  C  C154  1  0.697440  0.041960  0.466580  1.0
  C  C155  1  0.458040  0.802560  0.033420  1.0
  C  C156  1  0.041960  0.697440  0.533420  1.0
  C  C157  1  0.197440  0.541960  0.033420  1.0
  C  C158  1  0.302560  0.958040  0.533420  1.0
  C  C159  1  0.541960  0.197440  0.966580  1.0
  C  C160  1  0.958040  0.302560  0.466580  1.0
  C  C161  1  0.762800  0.383400  0.007100  1.0
  C  C162  1  0.737200  0.116600  0.507100  1.0
  C  C163  1  0.383400  0.762800  0.992900  1.0
  C  C164  1  0.116600  0.737200  0.492900  1.0
  C  C165  1  0.237200  0.616600  0.992900  1.0
  C  C166  1  0.262800  0.883400  0.492900  1.0
  C  C167  1  0.616600  0.237200  0.007100  1.0
  C  C168  1  0.883400  0.262800  0.507100  1.0
  C  C169  1  0.851900  0.294700  0.056200  1.0
  C  C170  1  0.648100  0.205300  0.556200  1.0
  C  C171  1  0.294700  0.851900  0.943800  1.0
  C  C172  1  0.205300  0.648100  0.443800  1.0
  C  C173  1  0.148100  0.705300  0.943800  1.0
  C  C174  1  0.351900  0.794700  0.443800  1.0
  C  C175  1  0.705300  0.148100  0.056200  1.0
  C  C176  1  0.794700  0.351900  0.556200  1.0
  C  C177  1  0.917320  0.303880  0.070740  1.0
  C  C178  1  0.582680  0.196120  0.570740  1.0
  C  C179  1  0.303880  0.917320  0.929260  1.0
  C  C180  1  0.196120  0.582680  0.429260  1.0
  C  C181  1  0.082680  0.696120  0.929260  1.0
  C  C182  1  0.417320  0.803880  0.429260  1.0
  C  C183  1  0.696120  0.082680  0.070740  1.0
  C  C184  1  0.803880  0.417320  0.570740  1.0
  C  C185  1  0.975800  0.290600  0.058640  1.0
  C  C186  1  0.524200  0.209400  0.558640  1.0
  C  C187  1  0.290600  0.975800  0.941360  1.0
  C  C188  1  0.209400  0.524200  0.441360  1.0
  C  C189  1  0.024200  0.709400  0.941360  1.0
  C  C190  1  0.475800  0.790600  0.441360  1.0
  C  C191  1  0.709400  0.024200  0.058640  1.0
  C  C192  1  0.790600  0.475800  0.558640  1.0
  C  C193  1  0.036537  0.296797  0.073990  1.0
  C  C194  1  0.463463  0.203203  0.573990  1.0
  C  C195  1  0.296797  0.036537  0.926010  1.0
  C  C196  1  0.203203  0.463463  0.426010  1.0
  C  C197  1  0.963463  0.703203  0.926010  1.0
  C  C198  1  0.536537  0.796797  0.426010  1.0
  C  C199  1  0.703203  0.963463  0.073990  1.0
  C  C200  1  0.796797  0.536537  0.573990  1.0
  C  C201  1  0.038760  0.316240  0.101420  1.0
  C  C202  1  0.461240  0.183760  0.601420  1.0
  C  C203  1  0.316240  0.038760  0.898580  1.0
  C  C204  1  0.183760  0.461240  0.398580  1.0
  C  C205  1  0.961240  0.683760  0.898580  1.0
  C  C206  1  0.538760  0.816240  0.398580  1.0
  C  C207  1  0.683760  0.961240  0.101420  1.0
  C  C208  1  0.816240  0.538760  0.601420  1.0
  C  C209  1  0.980300  0.329500  0.113510  1.0
  C  C210  1  0.519700  0.170500  0.613510  1.0
  C  C211  1  0.329500  0.980300  0.886490  1.0
  C  C212  1  0.170500  0.519700  0.386490  1.0
  C  C213  1  0.019700  0.670500  0.886490  1.0
  C  C214  1  0.480300  0.829500  0.386490  1.0
  C  C215  1  0.670500  0.019700  0.113510  1.0
  C  C216  1  0.829500  0.480300  0.613510  1.0
  C  C217  1  0.919520  0.323280  0.098170  1.0
  C  C218  1  0.580480  0.176720  0.598170  1.0
  C  C219  1  0.323280  0.919520  0.901830  1.0
  C  C220  1  0.176720  0.580480  0.401830  1.0
  C  C221  1  0.080480  0.676720  0.901830  1.0
  C  C222  1  0.419520  0.823280  0.401830  1.0
  C  C223  1  0.676720  0.080480  0.098170  1.0
  C  C224  1  0.823280  0.419520  0.598170  1.0
  C  C225  1  0.936200  0.375400  0.154990  1.0
  C  C226  1  0.563800  0.124600  0.654990  1.0
  C  C227  1  0.375400  0.936200  0.845010  1.0
  C  C228  1  0.124600  0.563800  0.345010  1.0
  C  C229  1  0.063800  0.624600  0.845010  1.0
  C  C230  1  0.436200  0.875400  0.345010  1.0
  C  C231  1  0.624600  0.063800  0.154990  1.0
  C  C232  1  0.875400  0.436200  0.654990  1.0
  C  C233  1  0.945000  0.388800  0.185540  1.0
  C  C234  1  0.555000  0.111200  0.685540  1.0
  C  C235  1  0.388800  0.945000  0.814460  1.0
  C  C236  1  0.111200  0.555000  0.314460  1.0
  C  C237  1  0.055000  0.611200  0.814460  1.0
  C  C238  1  0.445000  0.888800  0.314460  1.0
  C  C239  1  0.611200  0.055000  0.185540  1.0
  C  C240  1  0.888800  0.445000  0.685540  1.0
  C  C241  1  0.922300  0.441900  0.197130  1.0
  C  C242  1  0.577700  0.058100  0.697130  1.0
  C  C243  1  0.441900  0.922300  0.802870  1.0
  C  C244  1  0.058100  0.577700  0.302870  1.0
  C  C245  1  0.077700  0.558100  0.802870  1.0
  C  C246  1  0.422300  0.941900  0.302870  1.0
  C  C247  1  0.558100  0.077700  0.197130  1.0
  C  C248  1  0.941900  0.422300  0.697130  1.0
  C  C249  1  0.934000  0.449600  0.224980  1.0
  C  C250  1  0.566000  0.050400  0.724980  1.0
  C  C251  1  0.449600  0.934000  0.775020  1.0
  C  C252  1  0.050400  0.566000  0.275020  1.0
  C  C253  1  0.066000  0.550400  0.775020  1.0
  C  C254  1  0.434000  0.949600  0.275020  1.0
  C  C255  1  0.550400  0.066000  0.224980  1.0
  C  C256  1  0.949600  0.434000  0.724980  1.0
  C  C257  1  0.965800  0.407000  0.239350  1.0
  C  C258  1  0.534200  0.093000  0.739350  1.0
  C  C259  1  0.407000  0.965800  0.760650  1.0
  C  C260  1  0.093000  0.534200  0.260650  1.0
  C  C261  1  0.034200  0.593000  0.760650  1.0
  C  C262  1  0.465800  0.907000  0.260650  1.0
  C  C263  1  0.593000  0.034200  0.239350  1.0
  C  C264  1  0.907000  0.465800  0.739350  1.0
  C  C265  1  0.986900  0.354900  0.226120  1.0
  C  C266  1  0.513100  0.145100  0.726120  1.0
  C  C267  1  0.354900  0.986900  0.773880  1.0
  C  C268  1  0.145100  0.513100  0.273880  1.0
  C  C269  1  0.013100  0.645100  0.773880  1.0
  C  C270  1  0.486900  0.854900  0.273880  1.0
  C  C271  1  0.645100  0.013100  0.226120  1.0
  C  C272  1  0.854900  0.486900  0.726120  1.0
  C  C273  1  0.021900  0.306300  0.240320  1.0
  C  C274  1  0.478100  0.193700  0.740320  1.0
  C  C275  1  0.306300  0.021900  0.759680  1.0
  C  C276  1  0.193700  0.478100  0.259680  1.0
  C  C277  1  0.978100  0.693700  0.759680  1.0
  C  C278  1  0.521900  0.806300  0.259680  1.0
  C  C279  1  0.693700  0.978100  0.240320  1.0
  C  C280  1  0.806300  0.521900  0.740320  1.0
  C  C281  1  0.083360  0.219640  0.229680  1.0
  C  C282  1  0.416640  0.280360  0.729680  1.0
  C  C283  1  0.219640  0.083360  0.770320  1.0
  C  C284  1  0.280360  0.416640  0.270320  1.0
  C  C285  1  0.916640  0.780360  0.770320  1.0
  C  C286  1  0.583360  0.719640  0.270320  1.0
  C  C287  1  0.780360  0.916640  0.229680  1.0
  C  C288  1  0.719640  0.583360  0.729680  1.0
  C  C289  1  0.119820  0.221980  0.254190  1.0
  C  C290  1  0.380180  0.278020  0.754190  1.0
  C  C291  1  0.221980  0.119820  0.745810  1.0
  C  C292  1  0.278020  0.380180  0.245810  1.0
  C  C293  1  0.880180  0.778020  0.745810  1.0
  C  C294  1  0.619820  0.721980  0.245810  1.0
  C  C295  1  0.778020  0.880180  0.254190  1.0
  C  C296  1  0.721980  0.619820  0.754190  1.0
  C  C297  1  0.149470  0.168330  0.260640  1.0
  C  C298  1  0.350530  0.331670  0.760640  1.0
  C  C299  1  0.168330  0.149470  0.739360  1.0
  C  C300  1  0.331670  0.350530  0.239360  1.0
  C  C301  1  0.850530  0.831670  0.739360  1.0
  C  C302  1  0.649470  0.668330  0.239360  1.0
  C  C303  1  0.831670  0.850530  0.260640  1.0
  C  C304  1  0.668330  0.649470  0.760640  1.0
  C  C305  1  0.142670  0.112330  0.242600  1.0
  C  C306  1  0.357330  0.387670  0.742600  1.0
  C  C307  1  0.112330  0.142670  0.757400  1.0
  C  C308  1  0.387670  0.357330  0.257400  1.0
  C  C309  1  0.857330  0.887670  0.757400  1.0
  C  C310  1  0.642670  0.612330  0.257400  1.0
  C  C311  1  0.887670  0.857330  0.242600  1.0
  C  C312  1  0.612330  0.642670  0.742600  1.0
  C  C313  1  0.106220  0.109980  0.218100  1.0
  C  C314  1  0.393780  0.390020  0.718100  1.0
  C  C315  1  0.109980  0.106220  0.781900  1.0
  C  C316  1  0.390020  0.393780  0.281900  1.0
  C  C317  1  0.893780  0.890020  0.781900  1.0
  C  C318  1  0.606220  0.609980  0.281900  1.0
  C  C319  1  0.890020  0.893780  0.218100  1.0
  C  C320  1  0.609980  0.606220  0.718100  1.0
  C  C321  1  0.076570  0.163630  0.211640  1.0
  C  C322  1  0.423430  0.336370  0.711640  1.0
  C  C323  1  0.163630  0.076570  0.788360  1.0
  C  C324  1  0.336370  0.423430  0.288360  1.0
  C  C325  1  0.923430  0.836370  0.788360  1.0
  C  C326  1  0.576570  0.663630  0.288360  1.0
  C  C327  1  0.836370  0.923430  0.211640  1.0
  C  C328  1  0.663630  0.576570  0.711640  1.0
  C  C329  1  0.089900  0.049900  0.198770  1.0
  C  C330  1  0.410100  0.450100  0.698770  1.0
  C  C331  1  0.049900  0.089900  0.801230  1.0
  C  C332  1  0.450100  0.410100  0.301230  1.0
  C  C333  1  0.910100  0.950100  0.801230  1.0
  C  C334  1  0.589900  0.549900  0.301230  1.0
  C  C335  1  0.950100  0.910100  0.198770  1.0
  C  C336  1  0.549900  0.589900  0.698770  1.0
  Cu  Cu337  1  0.975710  0.024290  0.849010  1.0
  Cu  Cu338  1  0.524290  0.475710  0.349010  1.0
  Cu  Cu339  1  0.024290  0.975710  0.150990  1.0
  Cu  Cu340  1  0.475710  0.524290  0.650990  1.0
  Cu  Cu341  1  0.910310  0.089690  0.815770  1.0
  Cu  Cu342  1  0.589690  0.410310  0.315770  1.0
  Cu  Cu343  1  0.089690  0.910310  0.184230  1.0
  Cu  Cu344  1  0.410310  0.589690  0.684230  1.0
  Cu  Cu345  1  0.705070  0.294930  0.051940  1.0
  Cu  Cu346  1  0.794930  0.205070  0.551940  1.0
  Cu  Cu347  1  0.294930  0.705070  0.948060  1.0
  Cu  Cu348  1  0.205070  0.794930  0.448060  1.0
  Cu  Cu349  1  0.759500  0.240500  0.010520  1.0
  Cu  Cu350  1  0.740500  0.259500  0.510520  1.0
  Cu  Cu351  1  0.240500  0.759500  0.989480  1.0
  Cu  Cu352  1  0.259500  0.740500  0.489480  1.0
  H  H353  1  0.972100  0.435500  0.893200  1.0
  H  H354  1  0.527900  0.064500  0.393200  1.0
  H  H355  1  0.435500  0.972100  0.106800  1.0
  H  H356  1  0.064500  0.527900  0.606800  1.0
  H  H357  1  0.027900  0.564500  0.106800  1.0
  H  H358  1  0.472100  0.935500  0.606800  1.0
  H  H359  1  0.564500  0.027900  0.893200  1.0
  H  H360  1  0.935500  0.472100  0.393200  1.0
  H  H361  1  0.865200  0.486800  0.922100  1.0
  H  H362  1  0.634800  0.013200  0.422100  1.0
  H  H363  1  0.486800  0.865200  0.077900  1.0
  H  H364  1  0.013200  0.634800  0.577900  1.0
  H  H365  1  0.134800  0.513200  0.077900  1.0
  H  H366  1  0.365200  0.986800  0.577900  1.0
  H  H367  1  0.513200  0.134800  0.922100  1.0
  H  H368  1  0.986800  0.365200  0.422100  1.0
  H  H369  1  0.000600  0.319600  0.152700  1.0
  H  H370  1  0.499400  0.180400  0.652700  1.0
  H  H371  1  0.319600  0.000600  0.847300  1.0
  H  H372  1  0.180400  0.499400  0.347300  1.0
  H  H373  1  0.999400  0.680400  0.847300  1.0
  H  H374  1  0.500600  0.819600  0.347300  1.0
  H  H375  1  0.680400  0.999400  0.152700  1.0
  H  H376  1  0.819600  0.500600  0.652700  1.0
  H  H377  1  0.037300  0.270100  0.204800  1.0
  H  H378  1  0.462700  0.229900  0.704800  1.0
  H  H379  1  0.270100  0.037300  0.795200  1.0
  H  H380  1  0.229900  0.462700  0.295200  1.0
  H  H381  1  0.962700  0.729900  0.795200  1.0
  H  H382  1  0.537300  0.770100  0.295200  1.0
  H  H383  1  0.729900  0.962700  0.204800  1.0
  H  H384  1  0.770100  0.537300  0.704800  1.0
  H  H385  1  0.075100  0.199300  0.904200  1.0
  H  H386  1  0.424900  0.300700  0.404200  1.0
  H  H387  1  0.199300  0.075100  0.095800  1.0
  H  H388  1  0.300700  0.424900  0.595800  1.0
  H  H389  1  0.924900  0.800700  0.095800  1.0
  H  H390  1  0.575100  0.699300  0.595800  1.0
  H  H391  1  0.800700  0.924900  0.904200  1.0
  H  H392  1  0.699300  0.575100  0.404200  1.0
  H  H393  1  0.112800  0.304000  0.929600  1.0
  H  H394  1  0.387200  0.196000  0.429600  1.0
  H  H395  1  0.304000  0.112800  0.070400  1.0
  H  H396  1  0.196000  0.387200  0.570400  1.0
  H  H397  1  0.887200  0.696000  0.070400  1.0
  H  H398  1  0.612800  0.804000  0.570400  1.0
  H  H399  1  0.696000  0.887200  0.929600  1.0
  H  H400  1  0.804000  0.612800  0.429600  1.0
  H  H401  1  0.069600  0.399200  0.919200  1.0
  H  H402  1  0.430400  0.100800  0.419200  1.0
  H  H403  1  0.399200  0.069600  0.080800  1.0
  H  H404  1  0.100800  0.430400  0.580800  1.0
  H  H405  1  0.930400  0.600800  0.080800  1.0
  H  H406  1  0.569600  0.899200  0.580800  1.0
  H  H407  1  0.600800  0.930400  0.919200  1.0
  H  H408  1  0.899200  0.569600  0.419200  1.0
  H  H409  1  0.951000  0.285000  0.857900  1.0
  H  H410  1  0.549000  0.215000  0.357900  1.0
  H  H411  1  0.285000  0.951000  0.142100  1.0
  H  H412  1  0.215000  0.549000  0.642100  1.0
  H  H413  1  0.049000  0.715000  0.142100  1.0
  H  H414  1  0.451000  0.785000  0.642100  1.0
  H  H415  1  0.715000  0.049000  0.857900  1.0
  H  H416  1  0.785000  0.451000  0.357900  1.0
  H  H417  1  0.932900  0.482300  0.812100  1.0
  H  H418  1  0.567100  0.017700  0.312100  1.0
  H  H419  1  0.482300  0.932900  0.187900  1.0
  H  H420  1  0.017700  0.567100  0.687900  1.0
  H  H421  1  0.067100  0.517700  0.187900  1.0
  H  H422  1  0.432900  0.982300  0.687900  1.0
  H  H423  1  0.517700  0.067100  0.812100  1.0
  H  H424  1  0.982300  0.432900  0.312100  1.0
  H  H425  1  0.856200  0.555000  0.809400  1.0
  H  H426  1  0.643800  0.945000  0.309400  1.0
  H  H427  1  0.555000  0.856200  0.190600  1.0
  H  H428  1  0.945000  0.643800  0.690600  1.0
  H  H429  1  0.143800  0.445000  0.190600  1.0
  H  H430  1  0.356200  0.055000  0.690600  1.0
  H  H431  1  0.445000  0.143800  0.809400  1.0
  H  H432  1  0.055000  0.356200  0.309400  1.0
  H  H433  1  0.809900  0.587900  0.849300  1.0
  H  H434  1  0.690100  0.912100  0.349300  1.0
  H  H435  1  0.587900  0.809900  0.150700  1.0
  H  H436  1  0.912100  0.690100  0.650700  1.0
  H  H437  1  0.190100  0.412100  0.150700  1.0
  H  H438  1  0.309900  0.087900  0.650700  1.0
  H  H439  1  0.412100  0.190100  0.849300  1.0
  H  H440  1  0.087900  0.309900  0.349300  1.0
  H  H441  1  0.804100  0.619500  0.951900  1.0
  H  H442  1  0.695900  0.880500  0.451900  1.0
  H  H443  1  0.619500  0.804100  0.048100  1.0
  H  H444  1  0.880500  0.695900  0.548100  1.0
  H  H445  1  0.195900  0.380500  0.048100  1.0
  H  H446  1  0.304100  0.119500  0.548100  1.0
  H  H447  1  0.380500  0.195900  0.951900  1.0
  H  H448  1  0.119500  0.304100  0.451900  1.0
  H  H449  1  0.755800  0.612800  0.995900  1.0
  H  H450  1  0.744200  0.887200  0.495900  1.0
  H  H451  1  0.612800  0.755800  0.004100  1.0
  H  H452  1  0.887200  0.744200  0.504100  1.0
  H  H453  1  0.244200  0.387200  0.004100  1.0
  H  H454  1  0.255800  0.112800  0.504100  1.0
  H  H455  1  0.387200  0.244200  0.995900  1.0
  H  H456  1  0.112800  0.255800  0.495900  1.0
  H  H457  1  0.736900  0.508900  0.021600  1.0
  H  H458  1  0.763100  0.991100  0.521600  1.0
  H  H459  1  0.508900  0.736900  0.978400  1.0
  H  H460  1  0.991100  0.763100  0.478400  1.0
  H  H461  1  0.263100  0.491100  0.978400  1.0
  H  H462  1  0.236900  0.008900  0.478400  1.0
  H  H463  1  0.491100  0.263100  0.021600  1.0
  H  H464  1  0.008900  0.236900  0.521600  1.0
  H  H465  1  0.814500  0.418700  0.959100  1.0
  H  H466  1  0.685500  0.081300  0.459100  1.0
  H  H467  1  0.418700  0.814500  0.040900  1.0
  H  H468  1  0.081300  0.685500  0.540900  1.0
  H  H469  1  0.185500  0.581300  0.040900  1.0
  H  H470  1  0.314500  0.918700  0.540900  1.0
  H  H471  1  0.581300  0.185500  0.959100  1.0
  H  H472  1  0.918700  0.314500  0.459100  1.0
  H  H473  1  0.974300  0.277300  0.039900  1.0
  H  H474  1  0.525700  0.222700  0.539900  1.0
  H  H475  1  0.277300  0.974300  0.960100  1.0
  H  H476  1  0.222700  0.525700  0.460100  1.0
  H  H477  1  0.025700  0.722700  0.960100  1.0
  H  H478  1  0.474300  0.777300  0.460100  1.0
  H  H479  1  0.722700  0.025700  0.039900  1.0
  H  H480  1  0.777300  0.474300  0.539900  1.0
  H  H481  1  0.076500  0.287700  0.065700  1.0
  H  H482  1  0.423500  0.212300  0.565700  1.0
  H  H483  1  0.287700  0.076500  0.934300  1.0
  H  H484  1  0.212300  0.423500  0.434300  1.0
  H  H485  1  0.923500  0.712300  0.934300  1.0
  H  H486  1  0.576500  0.787700  0.434300  1.0
  H  H487  1  0.712300  0.923500  0.065700  1.0
  H  H488  1  0.787700  0.576500  0.565700  1.0
  H  H489  1  0.080300  0.320500  0.111900  1.0
  H  H490  1  0.419700  0.179500  0.611900  1.0
  H  H491  1  0.320500  0.080300  0.888100  1.0
  H  H492  1  0.179500  0.419700  0.388100  1.0
  H  H493  1  0.919700  0.679500  0.888100  1.0
  H  H494  1  0.580300  0.820500  0.388100  1.0
  H  H495  1  0.679500  0.919700  0.111900  1.0
  H  H496  1  0.820500  0.580300  0.611900  1.0
  H  H497  1  0.879600  0.332400  0.106400  1.0
  H  H498  1  0.620400  0.167600  0.606400  1.0
  H  H499  1  0.332400  0.879600  0.893600  1.0
  H  H500  1  0.167600  0.620400  0.393600  1.0
  H  H501  1  0.120400  0.667600  0.893600  1.0
  H  H502  1  0.379600  0.832400  0.393600  1.0
  H  H503  1  0.667600  0.120400  0.106400  1.0
  H  H504  1  0.832400  0.379600  0.606400  1.0
  H  H505  1  0.900500  0.470700  0.186900  1.0
  H  H506  1  0.599500  0.029300  0.686900  1.0
  H  H507  1  0.470700  0.900500  0.813100  1.0
  H  H508  1  0.029300  0.599500  0.313100  1.0
  H  H509  1  0.099500  0.529300  0.813100  1.0
  H  H510  1  0.400500  0.970700  0.313100  1.0
  H  H511  1  0.529300  0.099500  0.186900  1.0
  H  H512  1  0.970700  0.400500  0.686900  1.0
  H  H513  1  0.919900  0.485100  0.234500  1.0
  H  H514  1  0.580100  0.014900  0.734500  1.0
  H  H515  1  0.485100  0.919900  0.765500  1.0
  H  H516  1  0.014900  0.580100  0.265500  1.0
  H  H517  1  0.080100  0.514900  0.765500  1.0
  H  H518  1  0.419900  0.985100  0.265500  1.0
  H  H519  1  0.514900  0.080100  0.234500  1.0
  H  H520  1  0.985100  0.419900  0.734500  1.0
  H  H521  1  0.973100  0.413500  0.258500  1.0
  H  H522  1  0.526900  0.086500  0.758500  1.0
  H  H523  1  0.413500  0.973100  0.741500  1.0
  H  H524  1  0.086500  0.526900  0.241500  1.0
  H  H525  1  0.026900  0.586500  0.741500  1.0
  H  H526  1  0.473100  0.913500  0.241500  1.0
  H  H527  1  0.586500  0.026900  0.258500  1.0
  H  H528  1  0.913500  0.473100  0.758500  1.0
  H  H529  1  0.124400  0.260200  0.266500  1.0
  H  H530  1  0.375600  0.239800  0.766500  1.0
  H  H531  1  0.260200  0.124400  0.733500  1.0
  H  H532  1  0.239800  0.375600  0.233500  1.0
  H  H533  1  0.875600  0.739800  0.733500  1.0
  H  H534  1  0.624400  0.760200  0.233500  1.0
  H  H535  1  0.739800  0.875600  0.266500  1.0
  H  H536  1  0.760200  0.624400  0.766500  1.0
  H  H537  1  0.174400  0.170000  0.277400  1.0
  H  H538  1  0.325600  0.330000  0.777400  1.0
  H  H539  1  0.170000  0.174400  0.722600  1.0
  H  H540  1  0.330000  0.325600  0.222600  1.0
  H  H541  1  0.825600  0.830000  0.722600  1.0
  H  H542  1  0.674400  0.670000  0.222600  1.0
  H  H543  1  0.830000  0.825600  0.277400  1.0
  H  H544  1  0.670000  0.674400  0.777400  1.0
  H  H545  1  0.163000  0.075800  0.247000  1.0
  H  H546  1  0.337000  0.424200  0.747000  1.0
  H  H547  1  0.075800  0.163000  0.753000  1.0
  H  H548  1  0.424200  0.337000  0.253000  1.0
  H  H549  1  0.837000  0.924200  0.753000  1.0
  H  H550  1  0.663000  0.575800  0.253000  1.0
  H  H551  1  0.924200  0.837000  0.247000  1.0
  H  H552  1  0.575800  0.663000  0.747000  1.0
  H  H553  1  0.051600  0.162000  0.194900  1.0
  H  H554  1  0.448400  0.338000  0.694900  1.0
  H  H555  1  0.162000  0.051600  0.805100  1.0
  H  H556  1  0.338000  0.448400  0.305100  1.0
  H  H557  1  0.948400  0.838000  0.805100  1.0
  H  H558  1  0.551600  0.662000  0.305100  1.0
  H  H559  1  0.838000  0.948400  0.194900  1.0
  H  H560  1  0.662000  0.551600  0.694900  1.0
  N  N561  1  0.900000  0.495400  0.878270  1.0
  N  N562  1  0.600000  0.004600  0.378270  1.0
  N  N563  1  0.495400  0.900000  0.121730  1.0
  N  N564  1  0.004600  0.600000  0.621730  1.0
  N  N565  1  0.100000  0.504600  0.121730  1.0
  N  N566  1  0.400000  0.995400  0.621730  1.0
  N  N567  1  0.504600  0.100000  0.878270  1.0
  N  N568  1  0.995400  0.400000  0.378270  1.0
  N  N569  1  0.979700  0.407100  0.879870  1.0
  N  N570  1  0.520300  0.092900  0.379870  1.0
  N  N571  1  0.407100  0.979700  0.120130  1.0
  N  N572  1  0.092900  0.520300  0.620130  1.0
  N  N573  1  0.020300  0.592900  0.120130  1.0
  N  N574  1  0.479700  0.907100  0.620130  1.0
  N  N575  1  0.592900  0.020300  0.879870  1.0
  N  N576  1  0.907100  0.479700  0.379870  1.0
  N  N577  1  0.836500  0.514300  0.924330  1.0
  N  N578  1  0.663500  0.985700  0.424330  1.0
  N  N579  1  0.514300  0.836500  0.075670  1.0
  N  N580  1  0.985700  0.663500  0.575670  1.0
  N  N581  1  0.163500  0.485700  0.075670  1.0
  N  N582  1  0.336500  0.014300  0.575670  1.0
  N  N583  1  0.485700  0.163500  0.924330  1.0
  N  N584  1  0.014300  0.336500  0.424330  1.0
  N  N585  1  0.975900  0.346700  0.199070  1.0
  N  N586  1  0.524100  0.153300  0.699070  1.0
  N  N587  1  0.346700  0.975900  0.800930  1.0
  N  N588  1  0.153300  0.524100  0.300930  1.0
  N  N589  1  0.024100  0.653300  0.800930  1.0
  N  N590  1  0.475900  0.846700  0.300930  1.0
  N  N591  1  0.653300  0.024100  0.199070  1.0
  N  N592  1  0.846700  0.475900  0.699070  1.0
  N  N593  1  0.976600  0.341200  0.141800  1.0
  N  N594  1  0.523400  0.158800  0.641800  1.0
  N  N595  1  0.341200  0.976600  0.858200  1.0
  N  N596  1  0.158800  0.523400  0.358200  1.0
  N  N597  1  0.023400  0.658800  0.858200  1.0
  N  N598  1  0.476600  0.841200  0.358200  1.0
  N  N599  1  0.658800  0.023400  0.141800  1.0
  N  N600  1  0.841200  0.476600  0.641800  1.0
  N  N601  1  0.052820  0.272980  0.222240  1.0
  N  N602  1  0.447180  0.227020  0.722240  1.0
  N  N603  1  0.272980  0.052820  0.777760  1.0
  N  N604  1  0.227020  0.447180  0.277760  1.0
  N  N605  1  0.947180  0.727020  0.777760  1.0
  N  N606  1  0.552820  0.772980  0.277760  1.0
  N  N607  1  0.727020  0.947180  0.222240  1.0
  N  N608  1  0.772980  0.552820  0.722240  1.0
  O  O609  1  0.032900  0.967100  0.876140  1.0
  O  O610  1  0.467100  0.532900  0.376140  1.0
  O  O611  1  0.967100  0.032900  0.123860  1.0
  O  O612  1  0.532900  0.467100  0.623860  1.0
  O  O613  1  0.853000  0.147000  0.793570  1.0
  O  O614  1  0.647000  0.353000  0.293570  1.0
  O  O615  1  0.147000  0.853000  0.206430  1.0
  O  O616  1  0.353000  0.647000  0.706430  1.0
  O  O617  1  0.653500  0.346500  0.083880  1.0
  O  O618  1  0.846500  0.153500  0.583880  1.0
  O  O619  1  0.346500  0.653500  0.916120  1.0
  O  O620  1  0.153500  0.846500  0.416120  1.0
  O  O621  1  0.799400  0.200600  0.974380  1.0
  O  O622  1  0.700600  0.299400  0.474380  1.0
  O  O623  1  0.200600  0.799400  0.025620  1.0
  O  O624  1  0.299400  0.700600  0.525620  1.0
  O  O625  1  0.005090  0.113510  0.870840  1.0
  O  O626  1  0.494910  0.386490  0.370840  1.0
  O  O627  1  0.113510  0.005090  0.129160  1.0
  O  O628  1  0.386490  0.494910  0.629160  1.0
  O  O629  1  0.994910  0.886490  0.129160  1.0
  O  O630  1  0.505090  0.613510  0.629160  1.0
  O  O631  1  0.886490  0.994910  0.870840  1.0
  O  O632  1  0.613510  0.505090  0.370840  1.0
  O  O633  1  0.951450  0.167150  0.840810  1.0
  O  O634  1  0.548550  0.332850  0.340810  1.0
  O  O635  1  0.167150  0.951450  0.159190  1.0
  O  O636  1  0.332850  0.548550  0.659190  1.0
  O  O637  1  0.048550  0.832850  0.159190  1.0
  O  O638  1  0.451450  0.667150  0.659190  1.0
  O  O639  1  0.832850  0.048550  0.840810  1.0
  O  O640  1  0.667150  0.451450  0.340810  1.0
  O  O641  1  0.731700  0.381700  0.031420  1.0
  O  O642  1  0.768300  0.118300  0.531420  1.0
  O  O643  1  0.381700  0.731700  0.968580  1.0
  O  O644  1  0.118300  0.768300  0.468580  1.0
  O  O645  1  0.268300  0.618300  0.968580  1.0
  O  O646  1  0.231700  0.881700  0.468580  1.0
  O  O647  1  0.618300  0.268300  0.031420  1.0
  O  O648  1  0.881700  0.231700  0.531420  1.0
  O  O649  1  0.778770  0.335430  0.996730  1.0
  O  O650  1  0.721230  0.164570  0.496730  1.0
  O  O651  1  0.335430  0.778770  0.003270  1.0
  O  O652  1  0.164570  0.721230  0.503270  1.0
  O  O653  1  0.221230  0.664570  0.003270  1.0
  O  O654  1  0.278770  0.835430  0.503270  1.0
  O  O655  1  0.664570  0.221230  0.996730  1.0
  O  O656  1  0.835430  0.278770  0.496730  1.0
  O  O657  1  0.981000  0.397800  0.833290  1.0
  O  O658  1  0.519000  0.102200  0.333290  1.0
  O  O659  1  0.397800  0.981000  0.166710  1.0
  O  O660  1  0.102200  0.519000  0.666710  1.0
  O  O661  1  0.019000  0.602200  0.166710  1.0
  O  O662  1  0.481000  0.897800  0.666710  1.0
  O  O663  1  0.602200  0.019000  0.833290  1.0
  O  O664  1  0.897800  0.481000  0.333290  1.0
  O  O665  1  0.788400  0.592000  0.905400  1.0
  O  O666  1  0.711600  0.908000  0.405400  1.0
  O  O667  1  0.592000  0.788400  0.094600  1.0
  O  O668  1  0.908000  0.711600  0.594600  1.0
  O  O669  1  0.211600  0.408000  0.094600  1.0
  O  O670  1  0.288400  0.092000  0.594600  1.0
  O  O671  1  0.408000  0.211600  0.905400  1.0
  O  O672  1  0.092000  0.288400  0.405400  1.0
  O  O673  1  0.116900  0.997500  0.204810  1.0
  O  O674  1  0.383100  0.502500  0.704810  1.0
  O  O675  1  0.997500  0.116900  0.795190  1.0
  O  O676  1  0.502500  0.383100  0.295190  1.0
  O  O677  1  0.883100  0.002500  0.795190  1.0
  O  O678  1  0.616900  0.497500  0.295190  1.0
  O  O679  1  0.002500  0.883100  0.204810  1.0
  O  O680  1  0.497500  0.616900  0.704810  1.0
  O  O681  1  0.061340  0.053860  0.176590  1.0
  O  O682  1  0.438660  0.446140  0.676590  1.0
  O  O683  1  0.053860  0.061340  0.823410  1.0
  O  O684  1  0.446140  0.438660  0.323410  1.0
  O  O685  1  0.938660  0.946140  0.823410  1.0
  O  O686  1  0.561340  0.553860  0.323410  1.0
  O  O687  1  0.946140  0.938660  0.176590  1.0
  O  O688  1  0.553860  0.561340  0.676590  1.0
  O  O689  1  0.799700  0.314100  0.066390  1.0
  O  O690  1  0.700300  0.185900  0.566390  1.0
  O  O691  1  0.314100  0.799700  0.933610  1.0
  O  O692  1  0.185900  0.700300  0.433610  1.0
  O  O693  1  0.200300  0.685900  0.933610  1.0
  O  O694  1  0.299700  0.814100  0.433610  1.0
  O  O695  1  0.685900  0.200300  0.066390  1.0
  O  O696  1  0.814100  0.299700  0.566390  1.0
  O  O697  1  0.850300  0.265300  0.030590  1.0
  O  O698  1  0.649700  0.234700  0.530590  1.0
  O  O699  1  0.265300  0.850300  0.969410  1.0
  O  O700  1  0.234700  0.649700  0.469410  1.0
  O  O701  1  0.149700  0.734700  0.969410  1.0
  O  O702  1  0.350300  0.765300  0.469410  1.0
  O  O703  1  0.734700  0.149700  0.030590  1.0
  O  O704  1  0.765300  0.350300  0.530590  1.0
  O  O705  1  0.903100  0.411100  0.142410  1.0
  O  O706  1  0.596900  0.088900  0.642410  1.0
  O  O707  1  0.411100  0.903100  0.857590  1.0
  O  O708  1  0.088900  0.596900  0.357590  1.0
  O  O709  1  0.096900  0.588900  0.857590  1.0
  O  O710  1  0.403100  0.911100  0.357590  1.0
  O  O711  1  0.588900  0.096900  0.142410  1.0
  O  O712  1  0.911100  0.403100  0.642410  1.0
  O  O713  1  0.033300  0.316500  0.265250  1.0
  O  O714  1  0.466700  0.183500  0.765250  1.0
  O  O715  1  0.316500  0.033300  0.734750  1.0
  O  O716  1  0.183500  0.466700  0.234750  1.0
  O  O717  1  0.966700  0.683500  0.734750  1.0
  O  O718  1  0.533300  0.816500  0.234750  1.0
  O  O719  1  0.683500  0.966700  0.265250  1.0
  O  O720  1  0.816500  0.533300  0.765250  1.0
