# generated using pymatgen
data_Cu5.6Mo6.4H156C252N36O78
_symmetry_space_group_name_H-M   'P 1'
_cell_length_a   25.05000000
_cell_length_b   25.38148587
_cell_length_c   25.38148587
_cell_angle_alpha   75.90605175
_cell_angle_beta   60.43109384
_cell_angle_gamma   60.43109384
_symmetry_Int_Tables_number   1
_chemical_formula_structural   Cu5.6Mo6.4H156C252N36O78
_chemical_formula_sum   'Cu5.6 Mo6.4 H156 C252 N36 O78'
_cell_volume   12207.97221000
_cell_formula_units_Z   1
loop_
 _symmetry_equiv_pos_site_id
 _symmetry_equiv_pos_as_xyz
  1  'x, y, z'
loop_
 _atom_site_type_symbol
 _atom_site_label
 _atom_site_symmetry_multiplicity
 _atom_site_fract_x
 _atom_site_fract_y
 _atom_site_fract_z
 _atom_site_occupancy
  C  C1  1  0.770600  0.984200  0.474600  1.0
  C  C2  1  0.754800  0.474600  0.015800  1.0
  C  C3  1  0.229400  0.015800  0.525400  1.0
  C  C4  1  0.245200  0.525400  0.984200  1.0
  C  C5  1  0.751100  0.046400  0.103600  1.0
  C  C6  1  0.797500  0.103600  0.953600  1.0
  C  C7  1  0.901100  0.953600  0.896400  1.0
  C  C8  1  0.854700  0.896400  0.046400  1.0
  C  C9  1  0.248900  0.953600  0.896400  1.0
  C  C10  1  0.202500  0.896400  0.046400  1.0
  C  C11  1  0.098900  0.046400  0.103600  1.0
  C  C12  1  0.145300  0.103600  0.953600  1.0
  C  C13  1  0.708800  0.067600  0.167400  1.0
  C  C14  1  0.776400  0.167400  0.932400  1.0
  C  C15  1  0.943800  0.932400  0.832600  1.0
  C  C16  1  0.876200  0.832600  0.067600  1.0
  C  C17  1  0.291200  0.932400  0.832600  1.0
  C  C18  1  0.223600  0.832600  0.067600  1.0
  C  C19  1  0.056200  0.067600  0.167400  1.0
  C  C20  1  0.123800  0.167400  0.932400  1.0
  C  C21  1  0.638600  0.103200  0.188800  1.0
  C  C22  1  0.741800  0.188800  0.896800  1.0
  C  C23  1  0.930600  0.896800  0.811200  1.0
  C  C24  1  0.827400  0.811200  0.103200  1.0
  C  C25  1  0.361400  0.896800  0.811200  1.0
  C  C26  1  0.258200  0.811200  0.103200  1.0
  C  C27  1  0.069400  0.103200  0.188800  1.0
  C  C28  1  0.172600  0.188800  0.896800  1.0
  C  C29  1  0.599100  0.124100  0.248300  1.0
  C  C30  1  0.723200  0.248300  0.875900  1.0
  C  C31  1  0.971500  0.875900  0.751700  1.0
  C  C32  1  0.847400  0.751700  0.124100  1.0
  C  C33  1  0.400900  0.875900  0.751700  1.0
  C  C34  1  0.276800  0.751700  0.124100  1.0
  C  C35  1  0.028500  0.124100  0.248300  1.0
  C  C36  1  0.152600  0.248300  0.875900  1.0
  C  C37  1  0.629800  0.109300  0.286300  1.0
  C  C38  1  0.739100  0.286300  0.890700  1.0
  C  C39  1  0.025400  0.890700  0.713700  1.0
  C  C40  1  0.916100  0.713700  0.109300  1.0
  C  C41  1  0.370200  0.890700  0.713700  1.0
  C  C42  1  0.260900  0.713700  0.109300  1.0
  C  C43  1  0.974600  0.109300  0.286300  1.0
  C  C44  1  0.083900  0.286300  0.890700  1.0
  C  C45  1  0.700100  0.073700  0.264700  1.0
  C  C46  1  0.773800  0.264700  0.926300  1.0
  C  C47  1  0.038500  0.926300  0.735300  1.0
  C  C48  1  0.964800  0.735300  0.073700  1.0
  C  C49  1  0.299900  0.926300  0.735300  1.0
  C  C50  1  0.226200  0.735300  0.073700  1.0
  C  C51  1  0.961500  0.073700  0.264700  1.0
  C  C52  1  0.035200  0.264700  0.926300  1.0
  C  C53  1  0.739600  0.052900  0.205300  1.0
  C  C54  1  0.792500  0.205300  0.947100  1.0
  C  C55  1  0.997800  0.947100  0.794700  1.0
  C  C56  1  0.944900  0.794700  0.052900  1.0
  C  C57  1  0.260400  0.947100  0.794700  1.0
  C  C58  1  0.207500  0.794700  0.052900  1.0
  C  C59  1  0.002200  0.052900  0.205300  1.0
  C  C60  1  0.055100  0.205300  0.947100  1.0
  C  C61  1  0.700500  0.037400  0.361200  1.0
  C  C62  1  0.737900  0.361200  0.962600  1.0
  C  C63  1  0.099100  0.962600  0.638800  1.0
  C  C64  1  0.061700  0.638800  0.037400  1.0
  C  C65  1  0.299500  0.962600  0.638800  1.0
  C  C66  1  0.262100  0.638800  0.037400  1.0
  C  C67  1  0.900900  0.037400  0.361200  1.0
  C  C68  1  0.938300  0.361200  0.962600  1.0
  C  C69  1  0.745800  0.022300  0.390700  1.0
  C  C70  1  0.768100  0.390700  0.977700  1.0
  C  C71  1  0.158800  0.977700  0.609300  1.0
  C  C72  1  0.136500  0.609300  0.022300  1.0
  C  C73  1  0.254200  0.977700  0.609300  1.0
  C  C74  1  0.231900  0.609300  0.022300  1.0
  C  C75  1  0.841200  0.022300  0.390700  1.0
  C  C76  1  0.863500  0.390700  0.977700  1.0
  C  C77  1  0.728000  0.998500  0.448500  1.0
  C  C78  1  0.726500  0.448500  0.001500  1.0
  C  C79  1  0.175000  0.001500  0.551500  1.0
  C  C80  1  0.176500  0.551500  0.998500  1.0
  C  C81  1  0.272000  0.001500  0.551500  1.0
  C  C82  1  0.273500  0.551500  0.998500  1.0
  C  C83  1  0.825000  0.998500  0.448500  1.0
  C  C84  1  0.823500  0.448500  0.001500  1.0
  C  C85  1  0.613600  0.216600  0.410600  1.0
  C  C86  1  0.830200  0.410600  0.783400  1.0
  C  C87  1  0.240800  0.783400  0.589400  1.0
  C  C88  1  0.024200  0.589400  0.216600  1.0
  C  C89  1  0.386400  0.783400  0.589400  1.0
  C  C90  1  0.169800  0.589400  0.216600  1.0
  C  C91  1  0.759200  0.216600  0.410600  1.0
  C  C92  1  0.975800  0.410600  0.783400  1.0
  C  C93  1  0.552500  0.208500  0.456700  1.0
  C  C94  1  0.761000  0.456700  0.791500  1.0
  C  C95  1  0.217700  0.791500  0.543300  1.0
  C  C96  1  0.009200  0.543300  0.208500  1.0
  C  C97  1  0.447500  0.791500  0.543300  1.0
  C  C98  1  0.239000  0.543300  0.208500  1.0
  C  C99  1  0.782300  0.208500  0.456700  1.0
  C  C100  1  0.990800  0.456700  0.791500  1.0
  C  C101  1  0.562800  0.148700  0.464900  1.0
  C  C102  1  0.711500  0.464900  0.851300  1.0
  C  C103  1  0.176400  0.851300  0.535100  1.0
  C  C104  1  0.027700  0.535100  0.148700  1.0
  C  C105  1  0.437200  0.851300  0.535100  1.0
  C  C106  1  0.288500  0.535100  0.148700  1.0
  C  C107  1  0.823600  0.148700  0.464900  1.0
  C  C108  1  0.972300  0.464900  0.851300  1.0
  C  C109  1  0.510300  0.134100  0.508300  1.0
  C  C110  1  0.644400  0.508300  0.865900  1.0
  C  C111  1  0.152700  0.865900  0.491700  1.0
  C  C112  1  0.018600  0.491700  0.134100  1.0
  C  C113  1  0.489700  0.865900  0.491700  1.0
  C  C114  1  0.355600  0.491700  0.134100  1.0
  C  C115  1  0.847300  0.134100  0.508300  1.0
  C  C116  1  0.981400  0.508300  0.865900  1.0
  C  C117  1  0.447300  0.179600  0.543600  1.0
  C  C118  1  0.626900  0.543600  0.820400  1.0
  C  C119  1  0.170500  0.820400  0.456400  1.0
  C  C120  1  0.990900  0.456400  0.179600  1.0
  C  C121  1  0.552700  0.820400  0.456400  1.0
  C  C122  1  0.373100  0.456400  0.179600  1.0
  C  C123  1  0.829500  0.179600  0.543600  1.0
  C  C124  1  0.009100  0.543600  0.820400  1.0
  C  C125  1  0.437000  0.239400  0.535400  1.0
  C  C126  1  0.676400  0.535400  0.760600  1.0
  C  C127  1  0.211800  0.760600  0.464600  1.0
  C  C128  1  0.972400  0.464600  0.239400  1.0
  C  C129  1  0.563000  0.760600  0.464600  1.0
  C  C130  1  0.323600  0.464600  0.239400  1.0
  C  C131  1  0.788200  0.239400  0.535400  1.0
  C  C132  1  0.027600  0.535400  0.760600  1.0
  C  C133  1  0.489500  0.254000  0.492000  1.0
  C  C134  1  0.743500  0.492000  0.746000  1.0
  C  C135  1  0.235500  0.746000  0.508000  1.0
  C  C136  1  0.981500  0.508000  0.254000  1.0
  C  C137  1  0.510500  0.746000  0.508000  1.0
  C  C138  1  0.256500  0.508000  0.254000  1.0
  C  C139  1  0.764500  0.254000  0.492000  1.0
  C  C140  1  0.018500  0.492000  0.746000  1.0
  C  C141  1  0.496900  0.043000  0.565600  1.0
  C  C142  1  0.539900  0.565600  0.957000  1.0
  C  C143  1  0.105500  0.957000  0.434400  1.0
  C  C144  1  0.062500  0.434400  0.043000  1.0
  C  C145  1  0.503100  0.957000  0.434400  1.0
  C  C146  1  0.460100  0.434400  0.043000  1.0
  C  C147  1  0.894500  0.043000  0.565600  1.0
  C  C148  1  0.937500  0.565600  0.957000  1.0
  C  C149  1  0.529900  0.976100  0.554500  1.0
  C  C150  1  0.506000  0.554500  0.023900  1.0
  C  C151  1  0.060500  0.023900  0.445500  1.0
  C  C152  1  0.084400  0.445500  0.976100  1.0
  C  C153  1  0.470100  0.023900  0.445500  1.0
  C  C154  1  0.494000  0.445500  0.976100  1.0
  C  C155  1  0.939500  0.976100  0.554500  1.0
  C  C156  1  0.915600  0.554500  0.023900  1.0
  C  C157  1  0.497600  0.951100  0.608100  1.0
  C  C158  1  0.448700  0.608100  0.048900  1.0
  C  C159  1  0.056800  0.048900  0.391900  1.0
  C  C160  1  0.105700  0.391900  0.951100  1.0
  C  C161  1  0.502400  0.048900  0.391900  1.0
  C  C162  1  0.551300  0.391900  0.951100  1.0
  C  C163  1  0.943200  0.951100  0.608100  1.0
  C  C164  1  0.894300  0.608100  0.048900  1.0
  C  C165  1  0.534800  0.889400  0.598400  1.0
  C  C166  1  0.424200  0.598400  0.110600  1.0
  C  C167  1  0.022600  0.110600  0.401600  1.0
  C  C168  1  0.133200  0.401600  0.889400  1.0
  C  C169  1  0.465200  0.110600  0.401600  1.0
  C  C170  1  0.575800  0.401600  0.889400  1.0
  C  C171  1  0.977400  0.889400  0.598400  1.0
  C  C172  1  0.866800  0.598400  0.110600  1.0
  C  C173  1  0.591700  0.852300  0.550700  1.0
  C  C174  1  0.444000  0.550700  0.147700  1.0
  C  C175  1  0.994700  0.147700  0.449300  1.0
  C  C176  1  0.142400  0.449300  0.852300  1.0
  C  C177  1  0.408300  0.147700  0.449300  1.0
  C  C178  1  0.556000  0.449300  0.852300  1.0
  C  C179  1  0.005300  0.852300  0.550700  1.0
  C  C180  1  0.857600  0.550700  0.147700  1.0
  C  C181  1  0.615100  0.887100  0.502300  1.0
  C  C182  1  0.502200  0.502300  0.112900  1.0
  C  C183  1  0.004500  0.112900  0.497700  1.0
  C  C184  1  0.117400  0.497700  0.887100  1.0
  C  C185  1  0.384900  0.112900  0.497700  1.0
  C  C186  1  0.497800  0.497700  0.887100  1.0
  C  C187  1  0.995500  0.887100  0.502300  1.0
  C  C188  1  0.882600  0.502300  0.112900  1.0
  C  C189  1  0.678900  0.859500  0.444900  1.0
  C  C190  1  0.538400  0.444900  0.140500  1.0
  C  C191  1  0.983300  0.140500  0.555100  1.0
  C  C192  1  0.123800  0.555100  0.859500  1.0
  C  C193  1  0.321100  0.140500  0.555100  1.0
  C  C194  1  0.461600  0.555100  0.859500  1.0
  C  C195  1  0.016700  0.859500  0.444900  1.0
  C  C196  1  0.876200  0.444900  0.140500  1.0
  C  C197  1  0.740300  0.879700  0.339100  1.0
  C  C198  1  0.620000  0.339100  0.120300  1.0
  C  C199  1  0.959100  0.120300  0.660900  1.0
  C  C200  1  0.079400  0.660900  0.879700  1.0
  C  C201  1  0.259700  0.120300  0.660900  1.0
  C  C202  1  0.380000  0.660900  0.879700  1.0
  C  C203  1  0.040900  0.879700  0.339100  1.0
  C  C204  1  0.920600  0.339100  0.120300  1.0
  C  C205  1  0.728200  0.915900  0.291700  1.0
  C  C206  1  0.644100  0.291700  0.084100  1.0
  C  C207  1  0.935800  0.084100  0.708300  1.0
  C  C208  1  0.019900  0.708300  0.915900  1.0
  C  C209  1  0.271800  0.084100  0.708300  1.0
  C  C210  1  0.355900  0.708300  0.915900  1.0
  C  C211  1  0.064200  0.915900  0.291700  1.0
  C  C212  1  0.980100  0.291700  0.084100  1.0
  C  C213  1  0.778200  0.900500  0.232300  1.0
  C  C214  1  0.678700  0.232300  0.099500  1.0
  C  C215  1  0.911000  0.099500  0.767700  1.0
  C  C216  1  0.010500  0.767700  0.900500  1.0
  C  C217  1  0.221800  0.099500  0.767700  1.0
  C  C218  1  0.321300  0.767700  0.900500  1.0
  C  C219  1  0.089000  0.900500  0.232300  1.0
  C  C220  1  0.989500  0.232300  0.099500  1.0
  C  C221  1  0.840000  0.849200  0.220400  1.0
  C  C222  1  0.689200  0.220400  0.150800  1.0
  C  C223  1  0.909600  0.150800  0.779600  1.0
  C  C224  1  0.060400  0.779600  0.849200  1.0
  C  C225  1  0.160000  0.150800  0.779600  1.0
  C  C226  1  0.310800  0.779600  0.849200  1.0
  C  C227  1  0.090400  0.849200  0.220400  1.0
  C  C228  1  0.939600  0.220400  0.150800  1.0
  C  C229  1  0.852100  0.812900  0.267900  1.0
  C  C230  1  0.665000  0.267900  0.187100  1.0
  C  C231  1  0.932900  0.187100  0.732100  1.0
  C  C232  1  0.120000  0.732100  0.812900  1.0
  C  C233  1  0.147900  0.187100  0.732100  1.0
  C  C234  1  0.335000  0.732100  0.812900  1.0
  C  C235  1  0.067100  0.812900  0.267900  1.0
  C  C236  1  0.880000  0.267900  0.187100  1.0
  C  C237  1  0.802100  0.828300  0.327300  1.0
  C  C238  1  0.630400  0.327300  0.171700  1.0
  C  C239  1  0.957700  0.171700  0.672700  1.0
  C  C240  1  0.129400  0.672700  0.828300  1.0
  C  C241  1  0.197900  0.171700  0.672700  1.0
  C  C242  1  0.369600  0.672700  0.828300  1.0
  C  C243  1  0.042300  0.828300  0.327300  1.0
  C  C244  1  0.870600  0.327300  0.171700  1.0
  C  C245  1  0.918600  0.762100  0.257900  1.0
  C  C246  1  0.680700  0.257900  0.237900  1.0
  C  C247  1  0.938600  0.237900  0.742100  1.0
  C  C248  1  0.176500  0.742100  0.762100  1.0
  C  C249  1  0.081400  0.237900  0.742100  1.0
  C  C250  1  0.319300  0.742100  0.762100  1.0
  C  C251  1  0.061400  0.762100  0.257900  1.0
  C  C252  1  0.823500  0.257900  0.237900  1.0
  Cu  Cu253  1  0.873970  0.000000  0.000000  1.0
  Cu  Cu254  1  0.126030  0.000000  0.000000  1.0
  Cu  Cu255  1  0.772230  0.000000  0.000000  1.0
  Cu  Cu256  1  0.227770  0.000000  0.000000  1.0
  Cu  Cu257  1  0.062210  0.683710  0.191870  0.2
  Mo  Mo258  1  0.062210  0.683710  0.191870  0.8
  Cu  Cu259  1  0.745920  0.191870  0.316290  0.2
  Mo  Mo260  1  0.745920  0.191870  0.316290  0.8
  Cu  Cu261  1  0.937790  0.316290  0.808130  0.2
  Mo  Mo262  1  0.937790  0.316290  0.808130  0.8
  Cu  Cu263  1  0.254080  0.808130  0.683710  0.2
  Mo  Mo264  1  0.254080  0.808130  0.683710  0.8
  Cu  Cu265  1  0.024860  0.660990  0.289290  0.2
  Mo  Mo266  1  0.024860  0.660990  0.289290  0.8
  Cu  Cu267  1  0.685850  0.289290  0.339010  0.2
  Mo  Mo268  1  0.685850  0.289290  0.339010  0.8
  Cu  Cu269  1  0.975140  0.339010  0.710710  0.2
  Mo  Mo270  1  0.975140  0.339010  0.710710  0.8
  Cu  Cu271  1  0.314150  0.710710  0.660990  0.2
  Mo  Mo272  1  0.314150  0.710710  0.660990  0.8
  H  H273  1  0.762000  0.963600  0.512400  1.0
  H  H274  1  0.725600  0.512400  0.036400  1.0
  H  H275  1  0.238000  0.036400  0.487600  1.0
  H  H276  1  0.274400  0.487600  0.963600  1.0
  H  H277  1  0.772300  0.051600  0.289600  1.0
  H  H278  1  0.823900  0.289600  0.948400  1.0
  H  H279  1  0.113500  0.948400  0.710400  1.0
  H  H280  1  0.061900  0.710400  0.051600  1.0
  H  H281  1  0.227700  0.948400  0.710400  1.0
  H  H282  1  0.176100  0.710400  0.051600  1.0
  H  H283  1  0.886500  0.051600  0.289600  1.0
  H  H284  1  0.938100  0.289600  0.948400  1.0
  H  H285  1  0.617600  0.113300  0.162900  1.0
  H  H286  1  0.730900  0.162900  0.886700  1.0
  H  H287  1  0.893800  0.886700  0.837100  1.0
  H  H288  1  0.780500  0.837100  0.113300  1.0
  H  H289  1  0.382400  0.886700  0.837100  1.0
  H  H290  1  0.269100  0.837100  0.113300  1.0
  H  H291  1  0.106200  0.113300  0.162900  1.0
  H  H292  1  0.219500  0.162900  0.886700  1.0
  H  H293  1  0.551200  0.148300  0.262900  1.0
  H  H294  1  0.699500  0.262900  0.851700  1.0
  H  H295  1  0.962400  0.851700  0.737100  1.0
  H  H296  1  0.814100  0.737100  0.148300  1.0
  H  H297  1  0.448800  0.851700  0.737100  1.0
  H  H298  1  0.300500  0.737100  0.148300  1.0
  H  H299  1  0.037600  0.148300  0.262900  1.0
  H  H300  1  0.185900  0.262900  0.851700  1.0
  H  H301  1  0.602900  0.123600  0.326800  1.0
  H  H302  1  0.726500  0.326800  0.876400  1.0
  H  H303  1  0.053300  0.876400  0.673200  1.0
  H  H304  1  0.929700  0.673200  0.123600  1.0
  H  H305  1  0.397100  0.876400  0.673200  1.0
  H  H306  1  0.273500  0.673200  0.123600  1.0
  H  H307  1  0.946700  0.123600  0.326800  1.0
  H  H308  1  0.070300  0.326800  0.876400  1.0
  H  H309  1  0.787600  0.028600  0.190600  1.0
  H  H310  1  0.816200  0.190600  0.971400  1.0
  H  H311  1  0.006800  0.971400  0.809400  1.0
  H  H312  1  0.978200  0.809400  0.028600  1.0
  H  H313  1  0.212400  0.971400  0.809400  1.0
  H  H314  1  0.183800  0.809400  0.028600  1.0
  H  H315  1  0.993200  0.028600  0.190600  1.0
  H  H316  1  0.021800  0.190600  0.971400  1.0
  H  H317  1  0.688100  0.992100  0.469500  1.0
  H  H318  1  0.680200  0.469500  0.007900  1.0
  H  H319  1  0.149700  0.007900  0.530500  1.0
  H  H320  1  0.157600  0.530500  0.992100  1.0
  H  H321  1  0.311900  0.007900  0.530500  1.0
  H  H322  1  0.319800  0.530500  0.992100  1.0
  H  H323  1  0.850300  0.992100  0.469500  1.0
  H  H324  1  0.842400  0.469500  0.007900  1.0
  H  H325  1  0.560800  0.048800  0.485200  1.0
  H  H326  1  0.609600  0.485200  0.951200  1.0
  H  H327  1  0.094800  0.951200  0.514800  1.0
  H  H328  1  0.046000  0.514800  0.048800  1.0
  H  H329  1  0.439200  0.951200  0.514800  1.0
  H  H330  1  0.390400  0.514800  0.048800  1.0
  H  H331  1  0.905200  0.048800  0.485200  1.0
  H  H332  1  0.954000  0.485200  0.951200  1.0
  H  H333  1  0.663800  0.937800  0.406000  1.0
  H  H334  1  0.601600  0.406000  0.062200  1.0
  H  H335  1  0.007600  0.062200  0.594000  1.0
  H  H336  1  0.069800  0.594000  0.937800  1.0
  H  H337  1  0.336200  0.062200  0.594000  1.0
  H  H338  1  0.398400  0.594000  0.937800  1.0
  H  H339  1  0.992400  0.937800  0.406000  1.0
  H  H340  1  0.930200  0.406000  0.062200  1.0
  H  H341  1  0.605900  0.117600  0.440800  1.0
  H  H342  1  0.723500  0.440800  0.882400  1.0
  H  H343  1  0.164300  0.882400  0.559200  1.0
  H  H344  1  0.046700  0.559200  0.117600  1.0
  H  H345  1  0.394100  0.882400  0.559200  1.0
  H  H346  1  0.276500  0.559200  0.117600  1.0
  H  H347  1  0.835700  0.117600  0.440800  1.0
  H  H348  1  0.953300  0.440800  0.882400  1.0
  H  H349  1  0.411400  0.169600  0.573200  1.0
  H  H350  1  0.581000  0.573200  0.830400  1.0
  H  H351  1  0.154200  0.830400  0.426800  1.0
  H  H352  1  0.984600  0.426800  0.169600  1.0
  H  H353  1  0.588600  0.830400  0.426800  1.0
  H  H354  1  0.419000  0.426800  0.169600  1.0
  H  H355  1  0.845800  0.169600  0.573200  1.0
  H  H356  1  0.015400  0.573200  0.830400  1.0
  H  H357  1  0.393900  0.270500  0.559500  1.0
  H  H358  1  0.664400  0.559500  0.729500  1.0
  H  H359  1  0.223900  0.729500  0.440500  1.0
  H  H360  1  0.953400  0.440500  0.270500  1.0
  H  H361  1  0.606100  0.729500  0.440500  1.0
  H  H362  1  0.335600  0.440500  0.270500  1.0
  H  H363  1  0.776100  0.270500  0.559500  1.0
  H  H364  1  0.046600  0.559500  0.729500  1.0
  H  H365  1  0.482400  0.294900  0.486500  1.0
  H  H366  1  0.777300  0.486500  0.705100  1.0
  H  H367  1  0.263800  0.705100  0.513500  1.0
  H  H368  1  0.968900  0.513500  0.294900  1.0
  H  H369  1  0.517600  0.705100  0.513500  1.0
  H  H370  1  0.222700  0.513500  0.294900  1.0
  H  H371  1  0.736200  0.294900  0.486500  1.0
  H  H372  1  0.031100  0.486500  0.705100  1.0
  H  H373  1  0.458500  0.971800  0.643600  1.0
  H  H374  1  0.430300  0.643600  0.028200  1.0
  H  H375  1  0.073900  0.028200  0.356400  1.0
  H  H376  1  0.102100  0.356400  0.971800  1.0
  H  H377  1  0.541500  0.028200  0.356400  1.0
  H  H378  1  0.569700  0.356400  0.971800  1.0
  H  H379  1  0.926100  0.971800  0.643600  1.0
  H  H380  1  0.897900  0.643600  0.028200  1.0
  H  H381  1  0.517200  0.867000  0.632600  1.0
  H  H382  1  0.384200  0.632600  0.133000  1.0
  H  H383  1  0.016800  0.133000  0.367400  1.0
  H  H384  1  0.149800  0.367400  0.867000  1.0
  H  H385  1  0.482800  0.133000  0.367400  1.0
  H  H386  1  0.615800  0.367400  0.867000  1.0
  H  H387  1  0.983200  0.867000  0.632600  1.0
  H  H388  1  0.850200  0.632600  0.133000  1.0
  H  H389  1  0.611600  0.809400  0.551200  1.0
  H  H390  1  0.421000  0.551200  0.190600  1.0
  H  H391  1  0.972200  0.190600  0.448800  1.0
  H  H392  1  0.162800  0.448800  0.809400  1.0
  H  H393  1  0.388400  0.190600  0.448800  1.0
  H  H394  1  0.579000  0.448800  0.809400  1.0
  H  H395  1  0.027800  0.809400  0.551200  1.0
  H  H396  1  0.837200  0.551200  0.190600  1.0
  H  H397  1  0.685900  0.951000  0.299800  1.0
  H  H398  1  0.636900  0.299800  0.049000  1.0
  H  H399  1  0.936700  0.049000  0.700200  1.0
  H  H400  1  0.985700  0.700200  0.951000  1.0
  H  H401  1  0.314100  0.049000  0.700200  1.0
  H  H402  1  0.363100  0.700200  0.951000  1.0
  H  H403  1  0.063300  0.951000  0.299800  1.0
  H  H404  1  0.014300  0.299800  0.049000  1.0
  H  H405  1  0.769900  0.925300  0.199900  1.0
  H  H406  1  0.695200  0.199900  0.074700  1.0
  H  H407  1  0.895100  0.074700  0.800100  1.0
  H  H408  1  0.969800  0.800100  0.925300  1.0
  H  H409  1  0.230100  0.074700  0.800100  1.0
  H  H410  1  0.304800  0.800100  0.925300  1.0
  H  H411  1  0.104900  0.925300  0.199900  1.0
  H  H412  1  0.030200  0.199900  0.074700  1.0
  H  H413  1  0.874100  0.838700  0.179900  1.0
  H  H414  1  0.712800  0.179900  0.161300  1.0
  H  H415  1  0.892700  0.161300  0.820100  1.0
  H  H416  1  0.054000  0.820100  0.838700  1.0
  H  H417  1  0.125900  0.161300  0.820100  1.0
  H  H418  1  0.287200  0.820100  0.838700  1.0
  H  H419  1  0.107300  0.838700  0.179900  1.0
  H  H420  1  0.946000  0.179900  0.161300  1.0
  H  H421  1  0.810300  0.803600  0.359800  1.0
  H  H422  1  0.613900  0.359800  0.196400  1.0
  H  H423  1  0.973700  0.196400  0.640200  1.0
  H  H424  1  0.170100  0.640200  0.803600  1.0
  H  H425  1  0.189700  0.196400  0.640200  1.0
  H  H426  1  0.386100  0.640200  0.803600  1.0
  H  H427  1  0.026300  0.803600  0.359800  1.0
  H  H428  1  0.829900  0.359800  0.196400  1.0
  N  N429  1  0.802900  0.029900  0.364300  1.0
  N  N430  1  0.832800  0.364300  0.970100  1.0
  N  N431  1  0.197100  0.970100  0.635700  1.0
  N  N432  1  0.167200  0.635700  0.029900  1.0
  N  N433  1  0.731500  0.053700  0.303300  1.0
  N  N434  1  0.785200  0.303300  0.946300  1.0
  N  N435  1  0.088500  0.946300  0.696700  1.0
  N  N436  1  0.034800  0.696700  0.053700  1.0
  N  N437  1  0.268500  0.946300  0.696700  1.0
  N  N438  1  0.214800  0.696700  0.053700  1.0
  N  N439  1  0.911500  0.053700  0.303300  1.0
  N  N440  1  0.965200  0.303300  0.946300  1.0
  N  N441  1  0.585100  0.947700  0.503900  1.0
  N  N442  1  0.532800  0.503900  0.052300  1.0
  N  N443  1  0.036700  0.052300  0.496100  1.0
  N  N444  1  0.089000  0.496100  0.947700  1.0
  N  N445  1  0.414900  0.052300  0.496100  1.0
  N  N446  1  0.467200  0.496100  0.947700  1.0
  N  N447  1  0.963300  0.947700  0.503900  1.0
  N  N448  1  0.911000  0.503900  0.052300  1.0
  N  N449  1  0.526400  0.072000  0.516600  1.0
  N  N450  1  0.598400  0.516600  0.928000  1.0
  N  N451  1  0.115000  0.928000  0.483400  1.0
  N  N452  1  0.043000  0.483400  0.072000  1.0
  N  N453  1  0.473600  0.928000  0.483400  1.0
  N  N454  1  0.401600  0.483400  0.072000  1.0
  N  N455  1  0.885000  0.072000  0.516600  1.0
  N  N456  1  0.957000  0.516600  0.928000  1.0
  N  N457  1  0.689600  0.898800  0.398600  1.0
  N  N458  1  0.588400  0.398600  0.101200  1.0
  N  N459  1  0.987000  0.101200  0.601400  1.0
  N  N460  1  0.088200  0.601400  0.898800  1.0
  N  N461  1  0.310400  0.101200  0.601400  1.0
  N  N462  1  0.411600  0.601400  0.898800  1.0
  N  N463  1  0.013000  0.898800  0.398600  1.0
  N  N464  1  0.911800  0.398600  0.101200  1.0
  O  O465  1  0.683300  0.000000  0.000000  1.0
  O  O466  1  0.316700  0.000000  0.000000  1.0
  O  O467  1  0.985800  0.635600  0.392800  1.0
  O  O468  1  0.621400  0.392800  0.364400  1.0
  O  O469  1  0.014200  0.364400  0.607200  1.0
  O  O470  1  0.378600  0.607200  0.635600  1.0
  O  O471  1  0.816000  0.019700  0.084300  1.0
  O  O472  1  0.835700  0.084300  0.980300  1.0
  O  O473  1  0.920000  0.980300  0.915700  1.0
  O  O474  1  0.900300  0.915700  0.019700  1.0
  O  O475  1  0.184000  0.980300  0.915700  1.0
  O  O476  1  0.164300  0.915700  0.019700  1.0
  O  O477  1  0.080000  0.019700  0.084300  1.0
  O  O478  1  0.099700  0.084300  0.980300  1.0
  O  O479  1  0.719600  0.045000  0.077800  1.0
  O  O480  1  0.764600  0.077800  0.955000  1.0
  O  O481  1  0.842400  0.955000  0.922200  1.0
  O  O482  1  0.797400  0.922200  0.045000  1.0
  O  O483  1  0.280400  0.955000  0.922200  1.0
  O  O484  1  0.235400  0.922200  0.045000  1.0
  O  O485  1  0.157600  0.045000  0.077800  1.0
  O  O486  1  0.202600  0.077800  0.955000  1.0
  O  O487  1  0.652400  0.030500  0.386300  1.0
  O  O488  1  0.682900  0.386300  0.969500  1.0
  O  O489  1  0.069200  0.969500  0.613700  1.0
  O  O490  1  0.038700  0.613700  0.030500  1.0
  O  O491  1  0.347600  0.969500  0.613700  1.0
  O  O492  1  0.317100  0.613700  0.030500  1.0
  O  O493  1  0.930800  0.030500  0.386300  1.0
  O  O494  1  0.961300  0.386300  0.969500  1.0
  O  O495  1  0.605300  0.275200  0.399600  1.0
  O  O496  1  0.880500  0.399600  0.724800  1.0
  O  O497  1  0.280100  0.724800  0.600400  1.0
  O  O498  1  0.004900  0.600400  0.275200  1.0
  O  O499  1  0.394700  0.724800  0.600400  1.0
  O  O500  1  0.119500  0.600400  0.275200  1.0
  O  O501  1  0.719900  0.275200  0.399600  1.0
  O  O502  1  0.995100  0.399600  0.724800  1.0
  O  O503  1  0.667100  0.175200  0.377800  1.0
  O  O504  1  0.842300  0.377800  0.824800  1.0
  O  O505  1  0.220100  0.824800  0.622200  1.0
  O  O506  1  0.044900  0.622200  0.175200  1.0
  O  O507  1  0.332900  0.824800  0.622200  1.0
  O  O508  1  0.157700  0.622200  0.175200  1.0
  O  O509  1  0.779900  0.175200  0.377800  1.0
  O  O510  1  0.955100  0.377800  0.824800  1.0
  O  O511  1  0.929600  0.725800  0.303600  1.0
  O  O512  1  0.655400  0.303600  0.274200  1.0
  O  O513  1  0.959000  0.274200  0.696400  1.0
  O  O514  1  0.233200  0.696400  0.725800  1.0
  O  O515  1  0.070400  0.274200  0.696400  1.0
  O  O516  1  0.344600  0.696400  0.725800  1.0
  O  O517  1  0.041000  0.725800  0.303600  1.0
  O  O518  1  0.766800  0.303600  0.274200  1.0
  O  O519  1  0.968400  0.749000  0.203200  1.0
  O  O520  1  0.717400  0.203200  0.251000  1.0
  O  O521  1  0.920600  0.251000  0.796800  1.0
  O  O522  1  0.171600  0.796800  0.749000  1.0
  O  O523  1  0.031600  0.251000  0.796800  1.0
  O  O524  1  0.282600  0.796800  0.749000  1.0
  O  O525  1  0.079400  0.749000  0.203200  1.0
  O  O526  1  0.828400  0.203200  0.251000  1.0
  O  O527  1  0.443000  0.069300  0.608500  1.0
  O  O528  1  0.512300  0.608500  0.930700  1.0
  O  O529  1  0.120800  0.930700  0.391500  1.0
  O  O530  1  0.051500  0.391500  0.069300  1.0
  O  O531  1  0.557000  0.930700  0.391500  1.0
  O  O532  1  0.487700  0.391500  0.069300  1.0
  O  O533  1  0.879200  0.069300  0.608500  1.0
  O  O534  1  0.948500  0.608500  0.930700  1.0
  O  O535  1  0.708300  0.804900  0.439100  1.0
  O  O536  1  0.513200  0.439100  0.195100  1.0
  O  O537  1  0.952300  0.195100  0.560900  1.0
  O  O538  1  0.147400  0.560900  0.804900  1.0
  O  O539  1  0.291700  0.195100  0.560900  1.0
  O  O540  1  0.486800  0.560900  0.804900  1.0
  O  O541  1  0.047700  0.804900  0.439100  1.0
  O  O542  1  0.852600  0.439100  0.195100  1.0
