# generated using pymatgen
data_FeH36(C7N2)6
_symmetry_space_group_name_H-M   'P 1'
_cell_length_a   19.70225114
_cell_length_b   19.70225114
_cell_length_c   19.70225114
_cell_angle_alpha   109.47122063
_cell_angle_beta   109.47122063
_cell_angle_gamma   109.47122063
_symmetry_Int_Tables_number   1
_chemical_formula_structural   FeH36(C7N2)6
_chemical_formula_sum   'Fe4 H144 C168 N48'
_cell_volume   5887.42870762
_cell_formula_units_Z   4
loop_
 _symmetry_equiv_pos_site_id
 _symmetry_equiv_pos_as_xyz
  1  'x, y, z'
loop_
 _atom_site_type_symbol
 _atom_site_label
 _atom_site_symmetry_multiplicity
 _atom_site_fract_x
 _atom_site_fract_y
 _atom_site_fract_z
 _atom_site_occupancy
  C  C1  1  0.419100  0.337700  0.469200  1.0
  C  C2  1  0.580900  0.050100  0.918600  1.0
  C  C3  1  0.131500  0.662300  0.081400  1.0
  C  C4  1  0.868500  0.949900  0.530800  1.0
  C  C5  1  0.337700  0.469200  0.419100  1.0
  C  C6  1  0.050100  0.918600  0.580900  1.0
  C  C7  1  0.662300  0.081400  0.131500  1.0
  C  C8  1  0.949900  0.530800  0.868500  1.0
  C  C9  1  0.469200  0.419100  0.337700  1.0
  C  C10  1  0.918600  0.580900  0.050100  1.0
  C  C11  1  0.081400  0.131500  0.662300  1.0
  C  C12  1  0.530800  0.868500  0.949900  1.0
  C  C13  1  0.374300  0.274000  0.479100  1.0
  C  C14  1  0.625700  0.104800  0.899700  1.0
  C  C15  1  0.205100  0.726000  0.100300  1.0
  C  C16  1  0.794900  0.895200  0.520900  1.0
  C  C17  1  0.274000  0.479100  0.374300  1.0
  C  C18  1  0.104800  0.899700  0.625700  1.0
  C  C19  1  0.726000  0.100300  0.205100  1.0
  C  C20  1  0.895200  0.520900  0.794900  1.0
  C  C21  1  0.479100  0.374300  0.274000  1.0
  C  C22  1  0.899700  0.625700  0.104800  1.0
  C  C23  1  0.100300  0.205100  0.726000  1.0
  C  C24  1  0.520900  0.794900  0.895200  1.0
  C  C25  1  0.358800  0.293700  0.543300  1.0
  C  C26  1  0.641200  0.184500  0.934900  1.0
  C  C27  1  0.249600  0.706300  0.065100  1.0
  C  C28  1  0.750400  0.815500  0.456700  1.0
  C  C29  1  0.293700  0.543300  0.358800  1.0
  C  C30  1  0.184500  0.934900  0.641200  1.0
  C  C31  1  0.706300  0.065100  0.249600  1.0
  C  C32  1  0.815500  0.456700  0.750400  1.0
  C  C33  1  0.543300  0.358800  0.293700  1.0
  C  C34  1  0.934900  0.641200  0.184500  1.0
  C  C35  1  0.065100  0.249600  0.706300  1.0
  C  C36  1  0.456700  0.750400  0.815500  1.0
  C  C37  1  0.389600  0.376500  0.598700  1.0
  C  C38  1  0.610400  0.209100  0.986900  1.0
  C  C39  1  0.222200  0.623500  0.013100  1.0
  C  C40  1  0.777800  0.790900  0.401300  1.0
  C  C41  1  0.376500  0.598700  0.389600  1.0
  C  C42  1  0.209100  0.986900  0.610400  1.0
  C  C43  1  0.623500  0.013100  0.222200  1.0
  C  C44  1  0.790900  0.401300  0.777800  1.0
  C  C45  1  0.598700  0.389600  0.376500  1.0
  C  C46  1  0.986900  0.610400  0.209100  1.0
  C  C47  1  0.013100  0.222200  0.623500  1.0
  C  C48  1  0.401300  0.777800  0.790900  1.0
  C  C49  1  0.436700  0.437000  0.586700  1.0
  C  C50  1  0.563300  0.150000  0.000300  1.0
  C  C51  1  0.149700  0.563000  0.999700  1.0
  C  C52  1  0.850300  0.850000  0.413300  1.0
  C  C53  1  0.437000  0.586700  0.436700  1.0
  C  C54  1  0.150000  0.000300  0.563300  1.0
  C  C55  1  0.563000  0.999700  0.149700  1.0
  C  C56  1  0.850000  0.413300  0.850300  1.0
  C  C57  1  0.586700  0.436700  0.437000  1.0
  C  C58  1  0.000300  0.563300  0.150000  1.0
  C  C59  1  0.999700  0.149700  0.563000  1.0
  C  C60  1  0.413300  0.850300  0.850000  1.0
  C  C61  1  0.474100  0.524500  0.639400  1.0
  C  C62  1  0.525900  0.165300  0.050400  1.0
  C  C63  1  0.114900  0.475500  0.949600  1.0
  C  C64  1  0.885100  0.834700  0.360600  1.0
  C  C65  1  0.524500  0.639400  0.474100  1.0
  C  C66  1  0.165300  0.050400  0.525900  1.0
  C  C67  1  0.475500  0.949600  0.114900  1.0
  C  C68  1  0.834700  0.360600  0.885100  1.0
  C  C69  1  0.639400  0.474100  0.524500  1.0
  C  C70  1  0.050400  0.525900  0.165300  1.0
  C  C71  1  0.949600  0.114900  0.475500  1.0
  C  C72  1  0.360600  0.885100  0.834700  1.0
  C  C73  1  0.553730  0.659760  0.675770  1.0
  C  C74  1  0.446270  0.122040  0.106030  1.0
  C  C75  1  0.016010  0.340240  0.893970  1.0
  C  C76  1  0.983990  0.877960  0.324230  1.0
  C  C77  1  0.659760  0.675770  0.553730  1.0
  C  C78  1  0.122040  0.106030  0.446270  1.0
  C  C79  1  0.340240  0.893970  0.016010  1.0
  C  C80  1  0.877960  0.324230  0.983990  1.0
  C  C81  1  0.675770  0.553730  0.659760  1.0
  C  C82  1  0.106030  0.446270  0.122040  1.0
  C  C83  1  0.893970  0.016010  0.340240  1.0
  C  C84  1  0.324230  0.983990  0.877960  1.0
  C  C85  1  0.627600  0.696860  0.749360  1.0
  C  C86  1  0.372400  0.121760  0.069260  1.0
  C  C87  1  0.052500  0.303140  0.930740  1.0
  C  C88  1  0.947500  0.878240  0.250640  1.0
  C  C89  1  0.696860  0.749360  0.627600  1.0
  C  C90  1  0.121760  0.069260  0.372400  1.0
  C  C91  1  0.303140  0.930740  0.052500  1.0
  C  C92  1  0.878240  0.250640  0.947500  1.0
  C  C93  1  0.749360  0.627600  0.696860  1.0
  C  C94  1  0.069260  0.372400  0.121760  1.0
  C  C95  1  0.930740  0.052500  0.303140  1.0
  C  C96  1  0.250640  0.947500  0.878240  1.0
  C  C97  1  0.669100  0.782010  0.803470  1.0
  C  C98  1  0.330900  0.134370  0.112910  1.0
  C  C99  1  0.021460  0.217990  0.887090  1.0
  C  C100  1  0.978540  0.865630  0.196530  1.0
  C  C101  1  0.782010  0.803470  0.669100  1.0
  C  C102  1  0.134370  0.112910  0.330900  1.0
  C  C103  1  0.217990  0.887090  0.021460  1.0
  C  C104  1  0.865630  0.196530  0.978540  1.0
  C  C105  1  0.803470  0.669100  0.782010  1.0
  C  C106  1  0.112910  0.330900  0.134370  1.0
  C  C107  1  0.887090  0.021460  0.217990  1.0
  C  C108  1  0.196530  0.978540  0.865630  1.0
  C  C109  1  0.636740  0.830070  0.783990  1.0
  C  C110  1  0.363260  0.147250  0.193330  1.0
  C  C111  1  0.953920  0.169930  0.806670  1.0
  C  C112  1  0.046080  0.852750  0.216010  1.0
  C  C113  1  0.830070  0.783990  0.636740  1.0
  C  C114  1  0.147250  0.193330  0.363260  1.0
  C  C115  1  0.169930  0.806670  0.953920  1.0
  C  C116  1  0.852750  0.216010  0.046080  1.0
  C  C117  1  0.783990  0.636740  0.830070  1.0
  C  C118  1  0.193330  0.363260  0.147250  1.0
  C  C119  1  0.806670  0.953920  0.169930  1.0
  C  C120  1  0.216010  0.046080  0.852750  1.0
  C  C121  1  0.562880  0.792980  0.710400  1.0
  C  C122  1  0.437120  0.147520  0.230100  1.0
  C  C123  1  0.917420  0.207020  0.769900  1.0
  C  C124  1  0.082580  0.852480  0.289600  1.0
  C  C125  1  0.792980  0.710400  0.562880  1.0
  C  C126  1  0.147520  0.230100  0.437120  1.0
  C  C127  1  0.207020  0.769900  0.917420  1.0
  C  C128  1  0.852480  0.289600  0.082580  1.0
  C  C129  1  0.710400  0.562880  0.792980  1.0
  C  C130  1  0.230100  0.437120  0.147520  1.0
  C  C131  1  0.769900  0.917420  0.207020  1.0
  C  C132  1  0.289600  0.082580  0.852480  1.0
  C  C133  1  0.521370  0.707820  0.656290  1.0
  C  C134  1  0.478630  0.134920  0.186450  1.0
  C  C135  1  0.948470  0.292180  0.813550  1.0
  C  C136  1  0.051530  0.865080  0.343710  1.0
  C  C137  1  0.707820  0.656290  0.521370  1.0
  C  C138  1  0.134920  0.186450  0.478630  1.0
  C  C139  1  0.292180  0.813550  0.948470  1.0
  C  C140  1  0.865080  0.343710  0.051530  1.0
  C  C141  1  0.656290  0.521370  0.707820  1.0
  C  C142  1  0.186450  0.478630  0.134920  1.0
  C  C143  1  0.813550  0.948470  0.292180  1.0
  C  C144  1  0.343710  0.051530  0.865080  1.0
  C  C145  1  0.677800  0.964200  0.786400  1.0
  C  C146  1  0.322200  0.108600  0.286400  1.0
  C  C147  1  0.822200  0.035800  0.713600  1.0
  C  C148  1  0.177800  0.891400  0.213600  1.0
  C  C149  1  0.964200  0.786400  0.677800  1.0
  C  C150  1  0.108600  0.286400  0.322200  1.0
  C  C151  1  0.035800  0.713600  0.822200  1.0
  C  C152  1  0.891400  0.213600  0.177800  1.0
  C  C153  1  0.786400  0.677800  0.964200  1.0
  C  C154  1  0.286400  0.322200  0.108600  1.0
  C  C155  1  0.713600  0.822200  0.035800  1.0
  C  C156  1  0.213600  0.177800  0.891400  1.0
  C  C157  1  0.724400  0.959300  0.920300  1.0
  C  C158  1  0.275600  0.195900  0.234900  1.0
  C  C159  1  0.961000  0.040700  0.765100  1.0
  C  C160  1  0.039000  0.804100  0.079700  1.0
  C  C161  1  0.959300  0.920300  0.724400  1.0
  C  C162  1  0.195900  0.234900  0.275600  1.0
  C  C163  1  0.040700  0.765100  0.961000  1.0
  C  C164  1  0.804100  0.079700  0.039000  1.0
  C  C165  1  0.920300  0.724400  0.959300  1.0
  C  C166  1  0.234900  0.275600  0.195900  1.0
  C  C167  1  0.765100  0.961000  0.040700  1.0
  C  C168  1  0.079700  0.039000  0.804100  1.0
  Fe  Fe169  1  0.517160  0.517160  0.517160  1.0
  Fe  Fe170  1  0.482840  0.000000  0.000000  1.0
  Fe  Fe171  1  0.000000  0.482840  0.000000  1.0
  Fe  Fe172  1  0.000000  0.000000  0.482840  1.0
  H  H173  1  0.428100  0.323700  0.423200  1.0
  H  H174  1  0.571900  0.995100  0.895600  1.0
  H  H175  1  0.099500  0.676300  0.104400  1.0
  H  H176  1  0.900500  0.004900  0.576800  1.0
  H  H177  1  0.323700  0.423200  0.428100  1.0
  H  H178  1  0.995100  0.895600  0.571900  1.0
  H  H179  1  0.676300  0.104400  0.099500  1.0
  H  H180  1  0.004900  0.576800  0.900500  1.0
  H  H181  1  0.423200  0.428100  0.323700  1.0
  H  H182  1  0.895600  0.571900  0.995100  1.0
  H  H183  1  0.104400  0.099500  0.676300  1.0
  H  H184  1  0.576800  0.900500  0.004900  1.0
  H  H185  1  0.355000  0.217800  0.441800  1.0
  H  H186  1  0.645000  0.086800  0.862800  1.0
  H  H187  1  0.224000  0.782200  0.137200  1.0
  H  H188  1  0.776000  0.913200  0.558200  1.0
  H  H189  1  0.217800  0.441800  0.355000  1.0
  H  H190  1  0.086800  0.862800  0.645000  1.0
  H  H191  1  0.782200  0.137200  0.224000  1.0
  H  H192  1  0.913200  0.558200  0.776000  1.0
  H  H193  1  0.441800  0.355000  0.217800  1.0
  H  H194  1  0.862800  0.645000  0.086800  1.0
  H  H195  1  0.137200  0.224000  0.782200  1.0
  H  H196  1  0.558200  0.776000  0.913200  1.0
  H  H197  1  0.326900  0.250800  0.550100  1.0
  H  H198  1  0.673100  0.223200  0.923900  1.0
  H  H199  1  0.299300  0.749200  0.076100  1.0
  H  H200  1  0.700700  0.776800  0.449900  1.0
  H  H201  1  0.250800  0.550100  0.326900  1.0
  H  H202  1  0.223200  0.923900  0.673100  1.0
  H  H203  1  0.749200  0.076100  0.299300  1.0
  H  H204  1  0.776800  0.449900  0.700700  1.0
  H  H205  1  0.550100  0.326900  0.250800  1.0
  H  H206  1  0.923900  0.673100  0.223200  1.0
  H  H207  1  0.076100  0.299300  0.749200  1.0
  H  H208  1  0.449900  0.700700  0.776800  1.0
  H  H209  1  0.378800  0.391200  0.643400  1.0
  H  H210  1  0.621200  0.264600  0.012400  1.0
  H  H211  1  0.252200  0.608800  0.987600  1.0
  H  H212  1  0.747800  0.735400  0.356600  1.0
  H  H213  1  0.391200  0.643400  0.378800  1.0
  H  H214  1  0.264600  0.012400  0.621200  1.0
  H  H215  1  0.608800  0.987600  0.252200  1.0
  H  H216  1  0.735400  0.356600  0.747800  1.0
  H  H217  1  0.643400  0.378800  0.391200  1.0
  H  H218  1  0.012400  0.621200  0.264600  1.0
  H  H219  1  0.987600  0.252200  0.608800  1.0
  H  H220  1  0.356600  0.747800  0.735400  1.0
  H  H221  1  0.468800  0.545900  0.687100  1.0
  H  H222  1  0.531200  0.218300  0.077100  1.0
  H  H223  1  0.141200  0.454100  0.922900  1.0
  H  H224  1  0.858800  0.781700  0.312900  1.0
  H  H225  1  0.545900  0.687100  0.468800  1.0
  H  H226  1  0.218300  0.077100  0.531200  1.0
  H  H227  1  0.454100  0.922900  0.141200  1.0
  H  H228  1  0.781700  0.312900  0.858800  1.0
  H  H229  1  0.687100  0.468800  0.545900  1.0
  H  H230  1  0.077100  0.531200  0.218300  1.0
  H  H231  1  0.922900  0.141200  0.454100  1.0
  H  H232  1  0.312900  0.858800  0.781700  1.0
  H  H233  1  0.649700  0.664000  0.762700  1.0
  H  H234  1  0.350300  0.113000  0.014300  1.0
  H  H235  1  0.098700  0.336000  0.985700  1.0
  H  H236  1  0.901300  0.887000  0.237300  1.0
  H  H237  1  0.664000  0.762700  0.649700  1.0
  H  H238  1  0.113000  0.014300  0.350300  1.0
  H  H239  1  0.336000  0.985700  0.098700  1.0
  H  H240  1  0.887000  0.237300  0.901300  1.0
  H  H241  1  0.762700  0.649700  0.664000  1.0
  H  H242  1  0.014300  0.350300  0.113000  1.0
  H  H243  1  0.985700  0.098700  0.336000  1.0
  H  H244  1  0.237300  0.901300  0.887000  1.0
  H  H245  1  0.719600  0.807400  0.853800  1.0
  H  H246  1  0.280400  0.134200  0.087800  1.0
  H  H247  1  0.046400  0.192600  0.912200  1.0
  H  H248  1  0.953600  0.865800  0.146200  1.0
  H  H249  1  0.807400  0.853800  0.719600  1.0
  H  H250  1  0.134200  0.087800  0.280400  1.0
  H  H251  1  0.192600  0.912200  0.046400  1.0
  H  H252  1  0.865800  0.146200  0.953600  1.0
  H  H253  1  0.853800  0.719600  0.807400  1.0
  H  H254  1  0.087800  0.280400  0.134200  1.0
  H  H255  1  0.912200  0.046400  0.192600  1.0
  H  H256  1  0.146200  0.953600  0.865800  1.0
  H  H257  1  0.540700  0.825800  0.697100  1.0
  H  H258  1  0.459300  0.156400  0.285100  1.0
  H  H259  1  0.871300  0.174200  0.714900  1.0
  H  H260  1  0.128700  0.843600  0.302900  1.0
  H  H261  1  0.825800  0.697100  0.540700  1.0
  H  H262  1  0.156400  0.285100  0.459300  1.0
  H  H263  1  0.174200  0.714900  0.871300  1.0
  H  H264  1  0.843600  0.302900  0.128700  1.0
  H  H265  1  0.697100  0.540700  0.825800  1.0
  H  H266  1  0.285100  0.459300  0.156400  1.0
  H  H267  1  0.714900  0.871300  0.174200  1.0
  H  H268  1  0.302900  0.128700  0.843600  1.0
  H  H269  1  0.470900  0.682500  0.606000  1.0
  H  H270  1  0.529100  0.135100  0.211600  1.0
  H  H271  1  0.923500  0.317500  0.788400  1.0
  H  H272  1  0.076500  0.864900  0.394000  1.0
  H  H273  1  0.682500  0.606000  0.470900  1.0
  H  H274  1  0.135100  0.211600  0.529100  1.0
  H  H275  1  0.317500  0.788400  0.923500  1.0
  H  H276  1  0.864900  0.394000  0.076500  1.0
  H  H277  1  0.606000  0.470900  0.682500  1.0
  H  H278  1  0.211600  0.529100  0.135100  1.0
  H  H279  1  0.788400  0.923500  0.317500  1.0
  H  H280  1  0.394000  0.076500  0.864900  1.0
  H  H281  1  0.717500  0.023800  0.824700  1.0
  H  H282  1  0.282500  0.107200  0.306300  1.0
  H  H283  1  0.800900  0.976200  0.693700  1.0
  H  H284  1  0.199100  0.892800  0.175300  1.0
  H  H285  1  0.023800  0.824700  0.717500  1.0
  H  H286  1  0.107200  0.306300  0.282500  1.0
  H  H287  1  0.976200  0.693700  0.800900  1.0
  H  H288  1  0.892800  0.175300  0.199100  1.0
  H  H289  1  0.824700  0.717500  0.023800  1.0
  H  H290  1  0.306300  0.282500  0.107200  1.0
  H  H291  1  0.693700  0.800900  0.976200  1.0
  H  H292  1  0.175300  0.199100  0.892800  1.0
  H  H293  1  0.621500  0.955600  0.759900  1.0
  H  H294  1  0.378500  0.138400  0.334100  1.0
  H  H295  1  0.804300  0.044400  0.665900  1.0
  H  H296  1  0.195700  0.861600  0.240100  1.0
  H  H297  1  0.955600  0.759900  0.621500  1.0
  H  H298  1  0.138400  0.334100  0.378500  1.0
  H  H299  1  0.044400  0.665900  0.804300  1.0
  H  H300  1  0.861600  0.240100  0.195700  1.0
  H  H301  1  0.759900  0.621500  0.955600  1.0
  H  H302  1  0.334100  0.378500  0.138400  1.0
  H  H303  1  0.665900  0.804300  0.044400  1.0
  H  H304  1  0.240100  0.195700  0.861600  1.0
  H  H305  1  0.691900  0.943300  0.743600  1.0
  H  H306  1  0.308100  0.051700  0.251400  1.0
  H  H307  1  0.800300  0.056700  0.748600  1.0
  H  H308  1  0.199700  0.948300  0.256400  1.0
  H  H309  1  0.943300  0.743600  0.691900  1.0
  H  H310  1  0.051700  0.251400  0.308100  1.0
  H  H311  1  0.056700  0.748600  0.800300  1.0
  H  H312  1  0.948300  0.256400  0.199700  1.0
  H  H313  1  0.743600  0.691900  0.943300  1.0
  H  H314  1  0.251400  0.308100  0.051700  1.0
  H  H315  1  0.748600  0.800300  0.056700  1.0
  H  H316  1  0.256400  0.199700  0.948300  1.0
  N  N317  1  0.514600  0.572700  0.620700  1.0
  N  N318  1  0.485400  0.106100  0.058100  1.0
  N  N319  1  0.048000  0.427300  0.941900  1.0
  N  N320  1  0.952000  0.893900  0.379300  1.0
  N  N321  1  0.572700  0.620700  0.514600  1.0
  N  N322  1  0.106100  0.058100  0.485400  1.0
  N  N323  1  0.427300  0.941900  0.048000  1.0
  N  N324  1  0.893900  0.379300  0.952000  1.0
  N  N325  1  0.620700  0.514600  0.572700  1.0
  N  N326  1  0.058100  0.485400  0.106100  1.0
  N  N327  1  0.941900  0.048000  0.427300  1.0
  N  N328  1  0.379300  0.952000  0.893900  1.0
  N  N329  1  0.681700  0.917700  0.834600  1.0
  N  N330  1  0.318300  0.152900  0.236000  1.0
  N  N331  1  0.916900  0.082300  0.764000  1.0
  N  N332  1  0.083100  0.847100  0.165400  1.0
  N  N333  1  0.917700  0.834600  0.681700  1.0
  N  N334  1  0.152900  0.236000  0.318300  1.0
  N  N335  1  0.082300  0.764000  0.916900  1.0
  N  N336  1  0.847100  0.165400  0.083100  1.0
  N  N337  1  0.834600  0.681700  0.917700  1.0
  N  N338  1  0.236000  0.318300  0.152900  1.0
  N  N339  1  0.764000  0.916900  0.082300  1.0
  N  N340  1  0.165400  0.083100  0.847100  1.0
  N  N341  1  0.721000  0.915200  0.956800  1.0
  N  N342  1  0.279000  0.235800  0.194200  1.0
  N  N343  1  0.041600  0.084800  0.805800  1.0
  N  N344  1  0.958400  0.764200  0.043200  1.0
  N  N345  1  0.915200  0.956800  0.721000  1.0
  N  N346  1  0.235800  0.194200  0.279000  1.0
  N  N347  1  0.084800  0.805800  0.041600  1.0
  N  N348  1  0.764200  0.043200  0.958400  1.0
  N  N349  1  0.956800  0.721000  0.915200  1.0
  N  N350  1  0.194200  0.279000  0.235800  1.0
  N  N351  1  0.805800  0.041600  0.084800  1.0
  N  N352  1  0.043200  0.958400  0.764200  1.0
  N  N353  1  0.450000  0.418000  0.521800  1.0
  N  N354  1  0.550000  0.071800  0.968000  1.0
  N  N355  1  0.103800  0.582000  0.032000  1.0
  N  N356  1  0.896200  0.928200  0.478200  1.0
  N  N357  1  0.418000  0.521800  0.450000  1.0
  N  N358  1  0.071800  0.968000  0.550000  1.0
  N  N359  1  0.582000  0.032000  0.103800  1.0
  N  N360  1  0.928200  0.478200  0.896200  1.0
  N  N361  1  0.521800  0.450000  0.418000  1.0
  N  N362  1  0.968000  0.550000  0.071800  1.0
  N  N363  1  0.032000  0.103800  0.582000  1.0
  N  N364  1  0.478200  0.896200  0.928200  1.0
