# generated using pymatgen
data_Ag12B10H288C264N72(O8F3)15
_symmetry_space_group_name_H-M   'P 1'
_cell_length_a   23.17610820
_cell_length_b   23.17610820
_cell_length_c   23.28530000
_cell_angle_alpha   60.15500000
_cell_angle_beta   60.15500000
_cell_angle_gamma   60.00000000
_symmetry_Int_Tables_number   1
_chemical_formula_structural   Ag12B10H288C264N72(O8F3)15
_chemical_formula_sum   'Ag12 B10 H288 C264 N72 O120 F45'
_cell_volume   8864.64548167
_cell_formula_units_Z   1
loop_
 _symmetry_equiv_pos_site_id
 _symmetry_equiv_pos_as_xyz
  1  'x, y, z'
loop_
 _atom_site_type_symbol
 _atom_site_label
 _atom_site_symmetry_multiplicity
 _atom_site_fract_x
 _atom_site_fract_y
 _atom_site_fract_z
 _atom_site_occupancy
  Ag  Ag1  1  0.218670  0.490650  0.953650  1.0
  Ag  Ag2  1  0.490650  0.337030  0.953650  1.0
  Ag  Ag3  1  0.337030  0.218670  0.953650  1.0
  Ag  Ag4  1  0.991320  0.502390  0.323720  1.0
  Ag  Ag5  1  0.502390  0.182570  0.323720  1.0
  Ag  Ag6  1  0.182570  0.991320  0.323720  1.0
  Ag  Ag7  1  0.981860  0.152240  0.508390  1.0
  Ag  Ag8  1  0.152240  0.357510  0.508390  1.0
  Ag  Ag9  1  0.357510  0.981860  0.508390  1.0
  Ag  Ag10  1  0.979230  0.237150  0.233920  1.0
  Ag  Ag11  1  0.237150  0.549700  0.233920  1.0
  Ag  Ag12  1  0.549700  0.979230  0.233920  1.0
  B  B13  1  0.384400  0.384400  0.846800  1
  B  B14  1  0.427000  0.922700  0.119000  1
  B  B15  1  0.922700  0.531300  0.119000  1
  B  B16  1  0.531300  0.427000  0.119000  1
  B  B17  1  0.249400  0.249400  0.251800  1
  B  B18  1  0.084000  0.542600  0.388200  1
  B  B19  1  0.542600  0.985200  0.388200  1
  B  B20  1  0.985200  0.084000  0.388200  1
  B  B21  1  0.100400  0.100400  0.698800  1
  B  B22  1  0.516700  0.516700  0.449900  1
  H  H23  1  0.063700  0.538500  0.958700  1.0
  H  H24  1  0.538500  0.439100  0.958700  1.0
  H  H25  1  0.439100  0.063700  0.958700  1.0
  H  H26  1  0.001300  0.533200  0.909600  1.0
  H  H27  1  0.533200  0.555900  0.909600  1.0
  H  H28  1  0.555900  0.001300  0.909600  1.0
  H  H29  1  0.064700  0.476100  0.824000  1.0
  H  H30  1  0.476100  0.635200  0.824000  1.0
  H  H31  1  0.635200  0.064700  0.824000  1.0
  H  H32  1  0.245200  0.431800  0.847000  1.0
  H  H33  1  0.431800  0.476000  0.847000  1.0
  H  H34  1  0.476000  0.245200  0.847000  1.0
  H  H35  1  0.313500  0.475700  0.726600  1.0
  H  H36  1  0.475700  0.484200  0.726600  1.0
  H  H37  1  0.484200  0.313500  0.726600  1.0
  H  H38  1  0.261300  0.524100  0.679300  1.0
  H  H39  1  0.524100  0.535300  0.679300  1.0
  H  H40  1  0.535300  0.261300  0.679300  1.0
  H  H41  1  0.395800  0.416500  0.646100  1.0
  H  H42  1  0.416500  0.541600  0.646100  1.0
  H  H43  1  0.541600  0.395800  0.646100  1.0
  H  H44  1  0.351000  0.475000  0.592700  1.0
  H  H45  1  0.475000  0.581300  0.592700  1.0
  H  H46  1  0.581300  0.351000  0.592700  1.0
  H  H47  1  0.276500  0.410900  0.640200  1.0
  H  H48  1  0.410900  0.672400  0.640200  1.0
  H  H49  1  0.672400  0.276500  0.640200  1.0
  H  H50  1  0.422400  0.184700  0.784000  1.0
  H  H51  1  0.184700  0.608900  0.784000  1.0
  H  H52  1  0.608900  0.422400  0.784000  1.0
  H  H53  1  0.385400  0.183400  0.742000  1.0
  H  H54  1  0.183400  0.689200  0.742000  1.0
  H  H55  1  0.689200  0.385400  0.742000  1.0
  H  H56  1  0.420100  0.036400  0.850700  1.0
  H  H57  1  0.036400  0.692800  0.850700  1.0
  H  H58  1  0.692800  0.420100  0.850700  1.0
  H  H59  1  0.390500  0.074500  0.786100  1.0
  H  H60  1  0.074500  0.748900  0.786100  1.0
  H  H61  1  0.748900  0.390500  0.786100  1.0
  H  H62  1  0.307700  0.016900  0.847800  1.0
  H  H63  1  0.016900  0.827600  0.847800  1.0
  H  H64  1  0.827600  0.307700  0.847800  1.0
  H  H65  1  0.372400  0.955500  0.875500  1.0
  H  H66  1  0.955500  0.796600  0.875500  1.0
  H  H67  1  0.796600  0.372400  0.875500  1.0
  H  H68  1  0.255200  0.994700  0.968500  1.0
  H  H69  1  0.994700  0.781600  0.968500  1.0
  H  H70  1  0.781600  0.255200  0.968500  1.0
  H  H71  1  0.325600  0.983600  0.976300  1.0
  H  H72  1  0.983600  0.714500  0.976300  1.0
  H  H73  1  0.714500  0.325600  0.976300  1.0
  H  H74  1  0.223600  0.110800  0.928700  1.0
  H  H75  1  0.110800  0.736900  0.928700  1.0
  H  H76  1  0.736900  0.223600  0.928700  1.0
  H  H77  1  0.080900  0.177600  0.110700  1.0
  H  H78  1  0.177600  0.630800  0.110700  1.0
  H  H79  1  0.630800  0.080900  0.110700  1.0
  H  H80  1  0.281800  0.092100  0.109200  1.0
  H  H81  1  0.092100  0.516900  0.109200  1.0
  H  H82  1  0.516900  0.281800  0.109200  1.0
  H  H83  1  0.241700  0.123700  0.207200  1.0
  H  H84  1  0.123700  0.427400  0.207200  1.0
  H  H85  1  0.427400  0.241700  0.207200  1.0
  H  H86  1  0.123100  0.183400  0.252900  1.0
  H  H87  1  0.183400  0.440600  0.252900  1.0
  H  H88  1  0.440600  0.123100  0.252900  1.0
  H  H89  1  0.344100  0.301600  0.774200  1.0
  H  H90  1  0.301600  0.580100  0.774200  1.0
  H  H91  1  0.580100  0.344100  0.774200  1.0
  H  H92  1  0.165300  0.124400  0.030600  1.0
  H  H93  1  0.124400  0.679700  0.030600  1.0
  H  H94  1  0.679700  0.165300  0.030600  1.0
  H  H95  1  0.933800  0.592600  0.198900  1.0
  H  H96  1  0.592600  0.274700  0.198900  1.0
  H  H97  1  0.274700  0.933800  0.198900  1.0
  H  H98  1  0.925700  0.700000  0.109400  1.0
  H  H99  1  0.700000  0.264900  0.109400  1.0
  H  H100  1  0.264900  0.925700  0.109400  1.0
  H  H101  1  0.959500  0.781300  0.105900  1.0
  H  H102  1  0.781300  0.153300  0.105900  1.0
  H  H103  1  0.153300  0.959500  0.105900  1.0
  H  H104  1  0.023900  0.634700  0.272800  1.0
  H  H105  1  0.634700  0.068600  0.272800  1.0
  H  H106  1  0.068600  0.023900  0.272800  1.0
  H  H107  1  0.979900  0.693300  0.347100  1.0
  H  H108  1  0.693300  0.979700  0.347100  1.0
  H  H109  1  0.979700  0.979900  0.347100  1.0
  H  H110  1  0.915100  0.763000  0.324000  1.0
  H  H111  1  0.763000  0.997900  0.324000  1.0
  H  H112  1  0.997900  0.915100  0.324000  1.0
  H  H113  1  0.012500  0.759000  0.368100  1.0
  H  H114  1  0.759000  0.860400  0.368100  1.0
  H  H115  1  0.860400  0.012500  0.368100  1.0
  H  H116  1  0.943000  0.826300  0.352800  1.0
  H  H117  1  0.826300  0.877900  0.352800  1.0
  H  H118  1  0.877900  0.943000  0.352800  1.0
  H  H119  1  0.005300  0.863600  0.232300  1.0
  H  H120  1  0.863600  0.898800  0.232300  1.0
  H  H121  1  0.898800  0.005300  0.232300  1.0
  H  H122  1  0.246500  0.714800  0.216600  1.0
  H  H123  1  0.714800  0.822100  0.216600  1.0
  H  H124  1  0.822100  0.246500  0.216600  1.0
  H  H125  1  0.240100  0.790900  0.156600  1.0
  H  H126  1  0.790900  0.812400  0.156600  1.0
  H  H127  1  0.812400  0.240100  0.156600  1.0
  H  H128  1  0.393500  0.678500  0.141200  1.0
  H  H129  1  0.678500  0.786800  0.141200  1.0
  H  H130  1  0.786800  0.393500  0.141200  1.0
  H  H131  1  0.354700  0.761400  0.106100  1.0
  H  H132  1  0.761400  0.777800  0.106100  1.0
  H  H133  1  0.777800  0.354700  0.106100  1.0
  H  H134  1  0.429700  0.759400  0.991600  1.0
  H  H135  1  0.759400  0.819300  0.991600  1.0
  H  H136  1  0.819300  0.429700  0.991600  1.0
  H  H137  1  0.484500  0.705200  0.034400  1.0
  H  H138  1  0.705200  0.775900  0.034400  1.0
  H  H139  1  0.775900  0.484500  0.034400  1.0
  H  H140  1  0.469700  0.607500  0.045600  1.0
  H  H141  1  0.607500  0.877200  0.045600  1.0
  H  H142  1  0.877200  0.469700  0.045600  1.0
  H  H143  1  0.471500  0.657500  0.966000  1.0
  H  H144  1  0.657500  0.905000  0.966000  1.0
  H  H145  1  0.905000  0.471500  0.966000  1.0
  H  H146  1  0.350400  0.698100  0.996000  1.0
  H  H147  1  0.698100  0.955500  0.996000  1.0
  H  H148  1  0.955500  0.350400  0.996000  1.0
  H  H149  1  0.283200  0.574700  0.961800  1.0
  H  H150  1  0.574700  0.180300  0.961800  1.0
  H  H151  1  0.180300  0.283200  0.961800  1.0
  H  H152  1  0.390100  0.449900  0.100300  1.0
  H  H153  1  0.449900  0.059700  0.100300  1.0
  H  H154  1  0.059700  0.390100  0.100300  1.0
  H  H155  1  0.360800  0.356500  0.118900  1.0
  H  H156  1  0.356500  0.163800  0.118900  1.0
  H  H157  1  0.163800  0.360800  0.118900  1.0
  H  H158  1  0.292500  0.376100  0.061900  1.0
  H  H159  1  0.376100  0.269500  0.061900  1.0
  H  H160  1  0.269500  0.292500  0.061900  1.0
  H  H161  1  0.139600  0.749600  0.181800  1.0
  H  H162  1  0.749600  0.929000  0.181800  1.0
  H  H163  1  0.929000  0.139600  0.181800  1.0
  H  H164  1  0.350200  0.615400  0.975800  1.0
  H  H165  1  0.615400  0.058600  0.975800  1.0
  H  H166  1  0.058600  0.350200  0.975800  1.0
  H  H167  1  0.065000  0.276800  0.651900  1.0
  H  H168  1  0.276800  0.006300  0.651900  1.0
  H  H169  1  0.006300  0.065000  0.651900  1.0
  H  H170  1  0.956800  0.298900  0.744600  1.0
  H  H171  1  0.298900  0.999700  0.744600  1.0
  H  H172  1  0.999700  0.956800  0.744600  1.0
  H  H173  1  0.868700  0.410400  0.722100  1.0
  H  H174  1  0.410400  0.998800  0.722100  1.0
  H  H175  1  0.998800  0.868700  0.722100  1.0
  H  H176  1  0.005700  0.471800  0.529700  1.0
  H  H177  1  0.471800  0.992800  0.529700  1.0
  H  H178  1  0.992800  0.005700  0.529700  1.0
  H  H179  1  0.999400  0.581700  0.524000  1.0
  H  H180  1  0.581700  0.894900  0.524000  1.0
  H  H181  1  0.894900  0.999400  0.524000  1.0
  H  H182  1  0.961200  0.578500  0.605900  1.0
  H  H183  1  0.578500  0.854400  0.605900  1.0
  H  H184  1  0.854400  0.961200  0.605900  1.0
  H  H185  1  0.933000  0.702200  0.488600  1.0
  H  H186  1  0.702200  0.876200  0.488600  1.0
  H  H187  1  0.876200  0.933000  0.488600  1.0
  H  H188  1  0.896100  0.699300  0.570400  1.0
  H  H189  1  0.699300  0.834200  0.570400  1.0
  H  H190  1  0.834200  0.896100  0.570400  1.0
  H  H191  1  0.808700  0.664900  0.587500  1.0
  H  H192  1  0.664900  0.938900  0.587500  1.0
  H  H193  1  0.938900  0.808700  0.587500  1.0
  H  H194  1  0.870300  0.659700  0.352000  1.0
  H  H195  1  0.659700  0.118000  0.352000  1.0
  H  H196  1  0.118000  0.870300  0.352000  1.0
  H  H197  1  0.789700  0.697300  0.392500  1.0
  H  H198  1  0.697300  0.120500  0.392500  1.0
  H  H199  1  0.120500  0.789700  0.392500  1.0
  H  H200  1  0.713800  0.706500  0.329200  1.0
  H  H201  1  0.706500  0.250500  0.329200  1.0
  H  H202  1  0.250500  0.713800  0.329200  1.0
  H  H203  1  0.796600  0.689300  0.283400  1.0
  H  H204  1  0.689300  0.230700  0.283400  1.0
  H  H205  1  0.230700  0.796600  0.283400  1.0
  H  H206  1  0.792200  0.629200  0.234200  1.0
  H  H207  1  0.629200  0.344400  0.234200  1.0
  H  H208  1  0.344400  0.792200  0.234200  1.0
  H  H209  1  0.711300  0.681200  0.248500  1.0
  H  H210  1  0.681200  0.359000  0.248500  1.0
  H  H211  1  0.359000  0.711300  0.248500  1.0
  H  H212  1  0.671100  0.596800  0.350300  1.0
  H  H213  1  0.596800  0.381800  0.350300  1.0
  H  H214  1  0.381800  0.671100  0.350300  1.0
  H  H215  1  0.734300  0.547700  0.303700  1.0
  H  H216  1  0.547700  0.414300  0.303700  1.0
  H  H217  1  0.414300  0.734300  0.303700  1.0
  H  H218  1  0.734600  0.525700  0.424900  1.0
  H  H219  1  0.525700  0.314800  0.424900  1.0
  H  H220  1  0.314800  0.734600  0.424900  1.0
  H  H221  1  0.874800  0.301400  0.470400  1.0
  H  H222  1  0.301400  0.353400  0.470400  1.0
  H  H223  1  0.353400  0.874800  0.470400  1.0
  H  H224  1  0.946700  0.413900  0.265300  1.0
  H  H225  1  0.413900  0.374100  0.265300  1.0
  H  H226  1  0.374100  0.946700  0.265300  1.0
  H  H227  1  0.051600  0.314700  0.255900  1.0
  H  H228  1  0.314700  0.377800  0.255900  1.0
  H  H229  1  0.377800  0.051600  0.255900  1.0
  H  H230  1  0.064900  0.217800  0.354200  1.0
  H  H231  1  0.217800  0.363100  0.354200  1.0
  H  H232  1  0.363100  0.064900  0.354200  1.0
  H  H233  1  0.876300  0.592700  0.471000  1.0
  H  H234  1  0.592700  0.060000  0.471000  1.0
  H  H235  1  0.060000  0.876300  0.471000  1.0
  H  H236  1  0.798200  0.415200  0.414600  1.0
  H  H237  1  0.415200  0.372000  0.414600  1.0
  H  H238  1  0.372000  0.798200  0.414600  1.0
  H  H239  1  0.862400  0.379600  0.213900  1.0
  H  H240  1  0.379600  0.544100  0.213900  1.0
  H  H241  1  0.544100  0.862400  0.213900  1.0
  H  H242  1  0.749100  0.441300  0.270400  1.0
  H  H243  1  0.441300  0.539200  0.270400  1.0
  H  H244  1  0.539200  0.749100  0.270400  1.0
  H  H245  1  0.692600  0.385200  0.388300  1.0
  H  H246  1  0.385200  0.533900  0.388300  1.0
  H  H247  1  0.533900  0.692600  0.388300  1.0
  H  H248  1  0.859400  0.205800  0.377400  1.0
  H  H249  1  0.205800  0.557400  0.377400  1.0
  H  H250  1  0.557400  0.859400  0.377400  1.0
  H  H251  1  0.816500  0.104400  0.450300  1.0
  H  H252  1  0.104400  0.628800  0.450300  1.0
  H  H253  1  0.628800  0.816500  0.450300  1.0
  H  H254  1  0.749200  0.153000  0.421900  1.0
  H  H255  1  0.153000  0.675900  0.421900  1.0
  H  H256  1  0.675900  0.749200  0.421900  1.0
  H  H257  1  0.677900  0.094800  0.527700  1.0
  H  H258  1  0.094800  0.699600  0.527700  1.0
  H  H259  1  0.699600  0.677900  0.527700  1.0
  H  H260  1  0.745400  0.045700  0.555900  1.0
  H  H261  1  0.045700  0.653000  0.555900  1.0
  H  H262  1  0.653000  0.745400  0.555900  1.0
  H  H263  1  0.650100  0.181000  0.569000  1.0
  H  H264  1  0.181000  0.599900  0.569000  1.0
  H  H265  1  0.599900  0.650100  0.569000  1.0
  H  H266  1  0.850300  0.063200  0.667900  1.0
  H  H267  1  0.063200  0.418600  0.667900  1.0
  H  H268  1  0.418600  0.850300  0.667900  1.0
  H  H269  1  0.771300  0.102800  0.709300  1.0
  H  H270  1  0.102800  0.416600  0.709300  1.0
  H  H271  1  0.416600  0.771300  0.709300  1.0
  H  H272  1  0.888000  0.083600  0.763700  1.0
  H  H273  1  0.083600  0.264700  0.763700  1.0
  H  H274  1  0.264700  0.888000  0.763700  1.0
  H  H275  1  0.805100  0.100700  0.782800  1.0
  H  H276  1  0.100700  0.311400  0.782800  1.0
  H  H277  1  0.311400  0.805100  0.782800  1.0
  H  H278  1  0.838200  0.140800  0.843500  1.0
  H  H279  1  0.140800  0.177500  0.843500  1.0
  H  H280  1  0.177500  0.838200  0.843500  1.0
  H  H281  1  0.771800  0.194400  0.816000  1.0
  H  H282  1  0.194400  0.217800  0.816000  1.0
  H  H283  1  0.217800  0.771800  0.816000  1.0
  H  H284  1  0.842900  0.264100  0.757500  1.0
  H  H285  1  0.264100  0.135500  0.757500  1.0
  H  H286  1  0.135500  0.842900  0.757500  1.0
  H  H287  1  0.914300  0.198000  0.745400  1.0
  H  H288  1  0.198000  0.142300  0.745400  1.0
  H  H289  1  0.142300  0.914300  0.745400  1.0
  H  H290  1  0.819900  0.278300  0.666300  1.0
  H  H291  1  0.278300  0.235500  0.666300  1.0
  H  H292  1  0.235500  0.819900  0.666300  1.0
  H  H293  1  0.921700  0.417700  0.475200  1.0
  H  H294  1  0.417700  0.185400  0.475200  1.0
  H  H295  1  0.185400  0.921700  0.475200  1.0
  H  H296  1  0.068500  0.233800  0.544400  1.0
  H  H297  1  0.233800  0.153300  0.544400  1.0
  H  H298  1  0.153300  0.068500  0.544400  1.0
  H  H299  1  0.151800  0.263900  0.432700  1.0
  H  H300  1  0.263900  0.151600  0.432700  1.0
  H  H301  1  0.151600  0.151800  0.432700  1.0
  H  H302  1  0.116300  0.368800  0.345100  1.0
  H  H303  1  0.368800  0.169800  0.345100  1.0
  H  H304  1  0.169800  0.116300  0.345100  1.0
  H  H305  1  0.816800  0.126200  0.568800  1.0
  H  H306  1  0.126200  0.488200  0.568800  1.0
  H  H307  1  0.488200  0.816800  0.568800  1.0
  H  H308  1  0.897800  0.338600  0.598700  1.0
  H  H309  1  0.338600  0.164900  0.598700  1.0
  H  H310  1  0.164900  0.897800  0.598700  1.0
  C  C311  1  0.088700  0.515200  0.925000  1.0
  C  C312  1  0.515200  0.471100  0.925000  1.0
  C  C313  1  0.471100  0.088700  0.925000  1.0
  C  C314  1  0.051300  0.512600  0.895800  1.0
  C  C315  1  0.512600  0.540300  0.895800  1.0
  C  C316  1  0.540300  0.051300  0.895800  1.0
  C  C317  1  0.088700  0.478700  0.845500  1.0
  C  C318  1  0.478700  0.587100  0.845500  1.0
  C  C319  1  0.587100  0.088700  0.845500  1.0
  C  C320  1  0.160200  0.449700  0.828200  1.0
  C  C321  1  0.449700  0.561900  0.828200  1.0
  C  C322  1  0.561900  0.160200  0.828200  1.0
  C  C323  1  0.195300  0.453200  0.859500  1.0
  C  C324  1  0.453200  0.492000  0.859500  1.0
  C  C325  1  0.492000  0.195300  0.859500  1.0
  C  C326  1  0.201000  0.410500  0.776600  1.0
  C  C327  1  0.410500  0.611900  0.776600  1.0
  C  C328  1  0.611900  0.201000  0.776600  1.0
  C  C329  1  0.293600  0.476400  0.697200  1.0
  C  C330  1  0.476400  0.532800  0.697200  1.0
  C  C331  1  0.532800  0.293600  0.697200  1.0
  C  C332  1  0.348300  0.442200  0.641200  1.0
  C  C333  1  0.442200  0.568300  0.641200  1.0
  C  C334  1  0.568300  0.348300  0.641200  1.0
  C  C335  1  0.305500  0.392900  0.669900  1.0
  C  C336  1  0.392900  0.631700  0.669900  1.0
  C  C337  1  0.631700  0.305500  0.669900  1.0
  C  C338  1  0.344500  0.315100  0.684500  1.0
  C  C339  1  0.315100  0.655900  0.684500  1.0
  C  C340  1  0.655900  0.344500  0.684500  1.0
  C  C341  1  0.377400  0.202800  0.775800  1.0
  C  C342  1  0.202800  0.644000  0.775800  1.0
  C  C343  1  0.644000  0.377400  0.775800  1.0
  C  C344  1  0.320100  0.181000  0.844800  1.0
  C  C345  1  0.181000  0.654100  0.844800  1.0
  C  C346  1  0.654100  0.320100  0.844800  1.0
  C  C347  1  0.377300  0.057100  0.837900  1.0
  C  C348  1  0.057100  0.727700  0.837900  1.0
  C  C349  1  0.727700  0.377300  0.837900  1.0
  C  C350  1  0.338700  0.004100  0.872900  1.0
  C  C351  1  0.004100  0.784300  0.872900  1.0
  C  C352  1  0.784300  0.338700  0.872900  1.0
  C  C353  1  0.295800  0.011400  0.945900  1.0
  C  C354  1  0.011400  0.746900  0.945900  1.0
  C  C355  1  0.746900  0.295800  0.945900  1.0
  C  C356  1  0.271100  0.087600  0.934300  1.0
  C  C357  1  0.087600  0.707000  0.934300  1.0
  C  C358  1  0.707000  0.271100  0.934300  1.0
  C  C359  1  0.266700  0.101600  0.993600  1.0
  C  C360  1  0.101600  0.638100  0.993600  1.0
  C  C361  1  0.638100  0.266700  0.993600  1.0
  C  C362  1  0.113900  0.166400  0.130600  1.0
  C  C363  1  0.166400  0.589100  0.130600  1.0
  C  C364  1  0.589100  0.113900  0.130600  1.0
  C  C365  1  0.184600  0.132900  0.100000  1.0
  C  C366  1  0.132900  0.582500  0.100000  1.0
  C  C367  1  0.582500  0.184600  0.100000  1.0
  C  C368  1  0.233100  0.116100  0.128800  1.0
  C  C369  1  0.116100  0.522000  0.128800  1.0
  C  C370  1  0.522000  0.233100  0.128800  1.0
  C  C371  1  0.209400  0.134700  0.186500  1.0
  C  C372  1  0.134700  0.469400  0.186500  1.0
  C  C373  1  0.469400  0.209400  0.186500  1.0
  C  C374  1  0.138400  0.169300  0.214300  1.0
  C  C375  1  0.169300  0.478000  0.214300  1.0
  C  C376  1  0.478000  0.138400  0.214300  1.0
  C  C377  1  0.950500  0.624400  0.195800  1.0
  C  C378  1  0.624400  0.229300  0.195800  1.0
  C  C379  1  0.229300  0.950500  0.195800  1.0
  C  C380  1  0.944300  0.688400  0.143600  1.0
  C  C381  1  0.688400  0.223700  0.143600  1.0
  C  C382  1  0.223700  0.944300  0.143600  1.0
  C  C383  1  0.965300  0.735800  0.140800  1.0
  C  C384  1  0.735800  0.158100  0.140800  1.0
  C  C385  1  0.158100  0.965300  0.140800  1.0
  C  C386  1  0.994800  0.717100  0.188700  1.0
  C  C387  1  0.717100  0.099400  0.188700  1.0
  C  C388  1  0.099400  0.994800  0.188700  1.0
  C  C389  1  0.002200  0.649000  0.240100  1.0
  C  C390  1  0.649000  0.108700  0.240100  1.0
  C  C391  1  0.108700  0.002200  0.240100  1.0
  C  C392  1  0.021500  0.764400  0.186600  1.0
  C  C393  1  0.764400  0.027500  0.186600  1.0
  C  C394  1  0.027500  0.021500  0.186600  1.0
  C  C395  1  0.965200  0.744400  0.320400  1.0
  C  C396  1  0.744400  0.970000  0.320400  1.0
  C  C397  1  0.970000  0.965200  0.320400  1.0
  C  C398  1  0.984100  0.787800  0.336300  1.0
  C  C399  1  0.787800  0.891800  0.336300  1.0
  C  C400  1  0.891800  0.984100  0.336300  1.0
  C  C401  1  0.028800  0.813100  0.256800  1.0
  C  C402  1  0.813100  0.901300  0.256800  1.0
  C  C403  1  0.901300  0.028800  0.256800  1.0
  C  C404  1  0.106800  0.797100  0.242100  1.0
  C  C405  1  0.797100  0.854000  0.242100  1.0
  C  C406  1  0.854000  0.106800  0.242100  1.0
  C  C407  1  0.228900  0.747300  0.176400  1.0
  C  C408  1  0.747300  0.847400  0.176400  1.0
  C  C409  1  0.847400  0.228900  0.176400  1.0
  C  C410  1  0.263300  0.713200  0.121700  1.0
  C  C411  1  0.713200  0.901800  0.121700  1.0
  C  C412  1  0.901800  0.263300  0.121700  1.0
  C  C413  1  0.377700  0.714400  0.100500  1.0
  C  C414  1  0.714400  0.807400  0.100500  1.0
  C  C415  1  0.807400  0.377700  0.100500  1.0
  C  C416  1  0.440400  0.714100  0.029600  1.0
  C  C417  1  0.714100  0.815900  0.029600  1.0
  C  C418  1  0.815900  0.440400  0.029600  1.0
  C  C419  1  0.445800  0.653900  0.016100  1.0
  C  C420  1  0.653900  0.884200  0.016100  1.0
  C  C421  1  0.884200  0.445800  0.016100  1.0
  C  C422  1  0.367300  0.664900  0.037100  1.0
  C  C423  1  0.664900  0.930700  0.037100  1.0
  C  C424  1  0.930700  0.367300  0.037100  1.0
  C  C425  1  0.356000  0.595200  0.064600  1.0
  C  C426  1  0.595200  0.984200  0.064600  1.0
  C  C427  1  0.984200  0.356000  0.064600  1.0
  C  C428  1  0.298800  0.530000  0.994800  1.0
  C  C429  1  0.530000  0.176400  0.994800  1.0
  C  C430  1  0.176400  0.298800  0.994800  1.0
  C  C431  1  0.336900  0.523200  0.030500  1.0
  C  C432  1  0.523200  0.109400  0.030500  1.0
  C  C433  1  0.109400  0.336900  0.030500  1.0
  C  C434  1  0.362100  0.457300  0.076700  1.0
  C  C435  1  0.457300  0.103900  0.076700  1.0
  C  C436  1  0.103900  0.362100  0.076700  1.0
  C  C437  1  0.344900  0.402100  0.087300  1.0
  C  C438  1  0.402100  0.165700  0.087300  1.0
  C  C439  1  0.165700  0.344900  0.087300  1.0
  C  C440  1  0.305400  0.413700  0.052500  1.0
  C  C441  1  0.413700  0.228400  0.052500  1.0
  C  C442  1  0.228400  0.305400  0.052500  1.0
  C  C443  1  0.030900  0.322900  0.645400  1.0
  C  C444  1  0.322900  0.000800  0.645400  1.0
  C  C445  1  0.000800  0.030900  0.645400  1.0
  C  C446  1  0.965300  0.335000  0.700300  1.0
  C  C447  1  0.335000  0.999400  0.700300  1.0
  C  C448  1  0.999400  0.965300  0.700300  1.0
  C  C449  1  0.914000  0.401100  0.687400  1.0
  C  C450  1  0.401100  0.997500  0.687400  1.0
  C  C451  1  0.997500  0.914000  0.687400  1.0
  C  C452  1  0.929700  0.454300  0.622400  1.0
  C  C453  1  0.454300  0.993600  0.622400  1.0
  C  C454  1  0.993600  0.929700  0.622400  1.0
  C  C455  1  0.995200  0.436900  0.574300  1.0
  C  C456  1  0.436900  0.993600  0.574300  1.0
  C  C457  1  0.993600  0.995200  0.574300  1.0
  C  C458  1  0.874600  0.524000  0.605200  1.0
  C  C459  1  0.524000  0.996200  0.605200  1.0
  C  C460  1  0.996200  0.874600  0.605200  1.0
  C  C461  1  0.954300  0.596200  0.560600  1.0
  C  C462  1  0.596200  0.888900  0.560600  1.0
  C  C463  1  0.888900  0.954300  0.560600  1.0
  C  C464  1  0.910700  0.675400  0.537600  1.0
  C  C465  1  0.675400  0.876300  0.537600  1.0
  C  C466  1  0.876300  0.910700  0.537600  1.0
  C  C467  1  0.851400  0.654400  0.546600  1.0
  C  C468  1  0.654400  0.947600  0.546600  1.0
  C  C469  1  0.947600  0.851400  0.546600  1.0
  C  C470  1  0.831200  0.683500  0.482500  1.0
  C  C471  1  0.683500  0.002800  0.482500  1.0
  C  C472  1  0.002800  0.831200  0.482500  1.0
  C  C473  1  0.830500  0.653000  0.396400  1.0
  C  C474  1  0.653000  0.120100  0.396400  1.0
  C  C475  1  0.120100  0.830500  0.396400  1.0
  C  C476  1  0.811200  0.593100  0.409100  1.0
  C  C477  1  0.593100  0.186600  0.409100  1.0
  C  C478  1  0.186600  0.811200  0.409100  1.0
  C  C479  1  0.757500  0.669800  0.312100  1.0
  C  C480  1  0.669800  0.260600  0.312100  1.0
  C  C481  1  0.260600  0.757500  0.312100  1.0
  C  C482  1  0.747400  0.644000  0.270900  1.0
  C  C483  1  0.644000  0.337700  0.270900  1.0
  C  C484  1  0.337700  0.747400  0.270900  1.0
  C  C485  1  0.722600  0.581000  0.325800  1.0
  C  C486  1  0.581000  0.370600  0.325800  1.0
  C  C487  1  0.370600  0.722600  0.325800  1.0
  C  C488  1  0.763400  0.547100  0.376000  1.0
  C  C489  1  0.547100  0.313500  0.376000  1.0
  C  C490  1  0.313500  0.763400  0.376000  1.0
  C  C491  1  0.834000  0.492600  0.353700  1.0
  C  C492  1  0.492600  0.319700  0.353700  1.0
  C  C493  1  0.319700  0.834000  0.353700  1.0
  C  C494  1  0.911300  0.304900  0.426000  1.0
  C  C495  1  0.304900  0.357800  0.426000  1.0
  C  C496  1  0.357800  0.911300  0.426000  1.0
  C  C497  1  0.900300  0.368100  0.370300  1.0
  C  C498  1  0.368100  0.361300  0.370300  1.0
  C  C499  1  0.361300  0.900300  0.370300  1.0
  C  C500  1  0.952700  0.372700  0.304800  1.0
  C  C501  1  0.372700  0.369800  0.304800  1.0
  C  C502  1  0.369800  0.952700  0.304800  1.0
  C  C503  1  0.014600  0.314100  0.299600  1.0
  C  C504  1  0.314100  0.371700  0.299600  1.0
  C  C505  1  0.371700  0.014600  0.299600  1.0
  C  C506  1  0.021300  0.255800  0.358100  1.0
  C  C507  1  0.255800  0.364800  0.358100  1.0
  C  C508  1  0.364800  0.021300  0.358100  1.0
  C  C509  1  0.838100  0.356000  0.260400  1.0
  C  C510  1  0.356000  0.545500  0.260400  1.0
  C  C511  1  0.545500  0.838100  0.260400  1.0
  C  C512  1  0.771500  0.393400  0.294000  1.0
  C  C513  1  0.393400  0.541100  0.294000  1.0
  C  C514  1  0.541100  0.771500  0.294000  1.0
  C  C515  1  0.737700  0.359800  0.362900  1.0
  C  C516  1  0.359800  0.539600  0.362900  1.0
  C  C517  1  0.539600  0.737700  0.362900  1.0
  C  C518  1  0.769800  0.289200  0.394800  1.0
  C  C519  1  0.289200  0.546200  0.394800  1.0
  C  C520  1  0.546200  0.769800  0.394800  1.0
  C  C521  1  0.836900  0.254500  0.356200  1.0
  C  C522  1  0.254500  0.552400  0.356200  1.0
  C  C523  1  0.552400  0.836900  0.356200  1.0
  C  C524  1  0.733100  0.254900  0.469700  1.0
  C  C525  1  0.254900  0.542300  0.469700  1.0
  C  C526  1  0.542300  0.733100  0.469700  1.0
  C  C527  1  0.765600  0.132600  0.462100  1.0
  C  C528  1  0.132600  0.639700  0.462100  1.0
  C  C529  1  0.639700  0.765600  0.462100  1.0
  C  C530  1  0.719000  0.094100  0.531500  1.0
  C  C531  1  0.094100  0.655400  0.531500  1.0
  C  C532  1  0.655400  0.719000  0.531500  1.0
  C  C533  1  0.701000  0.150600  0.560700  1.0
  C  C534  1  0.150600  0.587700  0.560700  1.0
  C  C535  1  0.587700  0.701000  0.560700  1.0
  C  C536  1  0.721600  0.124800  0.624300  1.0
  C  C537  1  0.124800  0.529300  0.624300  1.0
  C  C538  1  0.529300  0.721600  0.624300  1.0
  C  C539  1  0.809800  0.107900  0.663500  1.0
  C  C540  1  0.107900  0.418800  0.663500  1.0
  C  C541  1  0.418800  0.809800  0.663500  1.0
  C  C542  1  0.832300  0.169700  0.644600  1.0
  C  C543  1  0.169700  0.353400  0.644600  1.0
  C  C544  1  0.353400  0.832300  0.644600  1.0
  C  C545  1  0.842000  0.121800  0.762900  1.0
  C  C546  1  0.121800  0.273300  0.762900  1.0
  C  C547  1  0.273300  0.842000  0.762900  1.0
  C  C548  1  0.823200  0.168700  0.801400  1.0
  C  C549  1  0.168700  0.206700  0.801400  1.0
  C  C550  1  0.206700  0.823200  0.801400  1.0
  C  C551  1  0.864600  0.219900  0.746800  1.0
  C  C552  1  0.219900  0.168700  0.746800  1.0
  C  C553  1  0.168700  0.864600  0.746800  1.0
  C  C554  1  0.860000  0.234100  0.677100  1.0
  C  C555  1  0.234100  0.228800  0.677100  1.0
  C  C556  1  0.228800  0.860000  0.677100  1.0
  C  C557  1  0.927000  0.238200  0.616900  1.0
  C  C558  1  0.238200  0.217900  0.616900  1.0
  C  C559  1  0.217900  0.927000  0.616900  1.0
  C  C560  1  0.968700  0.385500  0.466000  1.0
  C  C561  1  0.385500  0.179800  0.466000  1.0
  C  C562  1  0.179800  0.968700  0.466000  1.0
  C  C563  1  0.985200  0.322200  0.518600  1.0
  C  C564  1  0.322200  0.174000  0.518600  1.0
  C  C565  1  0.174000  0.985200  0.518600  1.0
  C  C566  1  0.055300  0.275900  0.508000  1.0
  C  C567  1  0.275900  0.160800  0.508000  1.0
  C  C568  1  0.160800  0.055300  0.508000  1.0
  C  C569  1  0.104000  0.294200  0.442500  1.0
  C  C570  1  0.294200  0.159300  0.442500  1.0
  C  C571  1  0.159300  0.104000  0.442500  1.0
  C  C572  1  0.082600  0.357700  0.390500  1.0
  C  C573  1  0.357700  0.169200  0.390500  1.0
  C  C574  1  0.169200  0.082600  0.390500  1.0
  N  N575  1  0.322200  0.114500  0.868300  1.0
  N  N576  1  0.114500  0.695000  0.868300  1.0
  N  N577  1  0.695000  0.322200  0.868300  1.0
  N  N578  1  0.160800  0.485600  0.906800  1.0
  N  N579  1  0.485600  0.446800  0.906800  1.0
  N  N580  1  0.446800  0.160800  0.906800  1.0
  N  N581  1  0.264100  0.418900  0.729400  1.0
  N  N582  1  0.418900  0.587600  0.729400  1.0
  N  N583  1  0.587600  0.264100  0.729400  1.0
  N  N584  1  0.353400  0.278100  0.748700  1.0
  N  N585  1  0.278100  0.619800  0.748700  1.0
  N  N586  1  0.619800  0.353400  0.748700  1.0
  N  N587  1  0.200400  0.120100  0.039200  1.0
  N  N588  1  0.120100  0.640300  0.039200  1.0
  N  N589  1  0.640300  0.200400  0.039200  1.0
  N  N590  1  0.090100  0.184000  0.188800  1.0
  N  N591  1  0.184000  0.537100  0.188800  1.0
  N  N592  1  0.537100  0.090100  0.188800  1.0
  N  N593  1  0.979500  0.605000  0.243300  1.0
  N  N594  1  0.605000  0.172200  0.243300  1.0
  N  N595  1  0.172200  0.979500  0.243300  1.0
  N  N596  1  0.014400  0.763900  0.246700  1.0
  N  N597  1  0.763900  0.975000  0.246700  1.0
  N  N598  1  0.975000  0.014400  0.246700  1.0
  N  N599  1  0.154300  0.763900  0.199200  1.0
  N  N600  1  0.763900  0.882600  0.199200  1.0
  N  N601  1  0.882600  0.154300  0.199200  1.0
  N  N602  1  0.331100  0.696700  0.091500  1.0
  N  N603  1  0.696700  0.880700  0.091500  1.0
  N  N604  1  0.880700  0.331100  0.091500  1.0
  N  N605  1  0.348100  0.583000  0.017500  1.0
  N  N606  1  0.583000  0.051400  0.017500  1.0
  N  N607  1  0.051400  0.348100  0.017500  1.0
  N  N608  1  0.283600  0.477500  0.004500  1.0
  N  N609  1  0.477500  0.234400  0.004500  1.0
  N  N610  1  0.234400  0.283600  0.004500  1.0
  N  N611  1  0.045700  0.373300  0.586400  1.0
  N  N612  1  0.373300  0.994600  0.586400  1.0
  N  N613  1  0.994600  0.045700  0.586400  1.0
  N  N614  1  0.894900  0.581900  0.566000  1.0
  N  N615  1  0.581900  0.957200  0.566000  1.0
  N  N616  1  0.957200  0.894900  0.566000  1.0
  N  N617  1  0.850300  0.636300  0.453800  1.0
  N  N618  1  0.636300  0.059600  0.453800  1.0
  N  N619  1  0.059600  0.850300  0.453800  1.0
  N  N620  1  0.774600  0.604900  0.371700  1.0
  N  N621  1  0.604900  0.248800  0.371700  1.0
  N  N622  1  0.248800  0.774600  0.371700  1.0
  N  N623  1  0.837200  0.424800  0.384300  1.0
  N  N624  1  0.424800  0.353700  0.384300  1.0
  N  N625  1  0.353700  0.837200  0.384300  1.0
  N  N626  1  0.970400  0.249300  0.420100  1.0
  N  N627  1  0.249300  0.360200  0.420100  1.0
  N  N628  1  0.360200  0.970400  0.420100  1.0
  N  N629  1  0.870400  0.287600  0.290400  1.0
  N  N630  1  0.287600  0.551600  0.290400  1.0
  N  N631  1  0.551600  0.870400  0.290400  1.0
  N  N632  1  0.745000  0.184700  0.494100  1.0
  N  N633  1  0.184700  0.576200  0.494100  1.0
  N  N634  1  0.576200  0.745000  0.494100  1.0
  N  N635  1  0.787000  0.120600  0.612000  1.0
  N  N636  1  0.120600  0.480400  0.612000  1.0
  N  N637  1  0.480400  0.787000  0.612000  1.0
  N  N638  1  0.845400  0.172500  0.691800  1.0
  N  N639  1  0.172500  0.290300  0.691800  1.0
  N  N640  1  0.290300  0.845400  0.691800  1.0
  N  N641  1  0.931100  0.304800  0.581200  1.0
  N  N642  1  0.304800  0.182900  0.581200  1.0
  N  N643  1  0.182900  0.931100  0.581200  1.0
  N  N644  1  0.016600  0.403000  0.402600  1.0
  N  N645  1  0.403000  0.177800  0.402600  1.0
  N  N646  1  0.177800  0.016600  0.402600  1.0
  O  O647  1  0.617300  0.517300  0.527200  1
  O  O648  1  0.517300  0.338200  0.527200  1
  O  O649  1  0.338200  0.617300  0.527200  1
  O  O650  1  0.391200  0.379200  0.505800  1
  O  O651  1  0.379200  0.723800  0.505800  1
  O  O652  1  0.723800  0.391200  0.505800  1
  O  O653  1  0.405600  0.152500  0.637700  1
  O  O654  1  0.152500  0.804200  0.637700  1
  O  O655  1  0.804200  0.405600  0.637700  1
  O  O656  1  0.313400  0.700400  0.902700  1
  O  O657  1  0.700400  0.083500  0.902700  1
  O  O658  1  0.083500  0.313400  0.902700  1
  O  O659  1  0.643200  0.675900  0.178600  1
  O  O660  1  0.675900  0.502300  0.178600  1
  O  O661  1  0.502300  0.643200  0.178600  1
  O  O662  1  0.549800  0.759200  0.102700  1
  O  O663  1  0.759200  0.588300  0.102700  1
  O  O664  1  0.588300  0.549800  0.102700  1
  O  O665  1  0.861400  0.263600  0.012700  1
  O  O666  1  0.263600  0.862300  0.012700  1
  O  O667  1  0.862300  0.861400  0.012700  1
  O  O668  1  0.536000  0.194600  0.572700  1
  O  O669  1  0.194600  0.696700  0.572700  1
  O  O670  1  0.696700  0.536000  0.572700  1
  O  O671  1  0.545200  0.113900  0.708000  1
  O  O672  1  0.113900  0.632900  0.708000  1
  O  O673  1  0.632900  0.545200  0.708000  1
  O  O674  1  0.995000  0.697000  0.741000  1
  O  O675  1  0.697000  0.567000  0.741000  1
  O  O676  1  0.567000  0.995000  0.741000  1
  O  O677  1  0.599000  0.786000  0.959000  1
  O  O678  1  0.786000  0.656000  0.959000  1
  O  O679  1  0.656000  0.599000  0.959000  1
  O  O680  1  0.492000  0.877000  0.890000  1
  O  O681  1  0.877000  0.741000  0.890000  1
  O  O682  1  0.741000  0.492000  0.890000  1
  O  O683  1  0.383800  0.879100  0.012300  1
  O  O684  1  0.879100  0.724800  0.012300  1
  O  O685  1  0.724800  0.383800  0.012300  1
  O  O686  1  0.179500  0.745900  0.993300  1
  O  O687  1  0.745900  0.081300  0.993300  1
  O  O688  1  0.081300  0.179500  0.993300  1
  O  O689  1  0.071000  0.889000  0.952000  1
  O  O690  1  0.889000  0.088000  0.952000  1
  O  O691  1  0.088000  0.071000  0.952000  1
  O  O692  1  0.915000  0.910000  0.053000  1
  O  O693  1  0.910000  0.122000  0.053000  1
  O  O694  1  0.122000  0.915000  0.053000  1
  O  O695  1  0.597000  0.641400  0.859400  1
  O  O696  1  0.641400  0.902200  0.859400  1
  O  O697  1  0.902200  0.597000  0.859400  1
  O  O698  1  0.580000  0.865000  0.720000  1
  O  O699  1  0.865000  0.835000  0.720000  1
  O  O700  1  0.835000  0.580000  0.720000  1
  O  O701  1  0.498000  0.789000  0.843000  1
  O  O702  1  0.789000  0.870000  0.843000  1
  O  O703  1  0.870000  0.498000  0.843000  1
  O  O704  1  0.967000  0.364000  0.864000  1
  O  O705  1  0.364000  0.805000  0.864000  1
  O  O706  1  0.805000  0.967000  0.864000  1
  O  O707  1  0.951300  0.951300  0.146100  1
  O  O708  1  0.578400  0.578400  0.264800  1
  O  O709  1  0.836800  0.836800  0.489600  1
  O  O710  1  0.555500  0.092500  0.707900  1
  O  O711  1  0.092500  0.644100  0.707900  1
  O  O712  1  0.644100  0.555500  0.707900  1
  O  O713  1  0.954500  0.702900  0.761200  1
  O  O714  1  0.702900  0.581400  0.761200  1
  O  O715  1  0.581400  0.954500  0.761200  1
  O  O716  1  0.130500  0.770100  0.011100  1
  O  O717  1  0.770100  0.088300  0.011100  1
  O  O718  1  0.088300  0.130500  0.011100  1
  O  O719  1  0.180000  0.370600  0.776600  1.0
  O  O720  1  0.370600  0.672800  0.776600  1.0
  O  O721  1  0.672800  0.180000  0.776600  1.0
  O  O722  1  0.366800  0.287300  0.641100  1.0
  O  O723  1  0.287300  0.704800  0.641100  1.0
  O  O724  1  0.704800  0.366800  0.641100  1.0
  O  O725  1  0.275400  0.222500  0.876500  1.0
  O  O726  1  0.222500  0.625600  0.876500  1.0
  O  O727  1  0.625600  0.275400  0.876500  1.0
  O  O728  1  0.320200  0.093100  0.998900  1.0
  O  O729  1  0.093100  0.587800  0.998900  1.0
  O  O730  1  0.587800  0.320200  0.998900  1.0
  O  O731  1  0.051200  0.802800  0.128500  1.0
  O  O732  1  0.802800  0.017500  0.128500  1.0
  O  O733  1  0.017500  0.051200  0.128500  1.0
  O  O734  1  0.119800  0.822300  0.267600  1.0
  O  O735  1  0.822300  0.790300  0.267600  1.0
  O  O736  1  0.790300  0.119800  0.267600  1.0
  O  O737  1  0.228100  0.698000  0.107000  1.0
  O  O738  1  0.698000  0.966900  0.107000  1.0
  O  O739  1  0.966900  0.228100  0.107000  1.0
  O  O740  1  0.355000  0.553200  0.124500  1.0
  O  O741  1  0.553200  0.967300  0.124500  1.0
  O  O742  1  0.967300  0.355000  0.124500  1.0
  O  O743  1  0.813300  0.528800  0.619300  1.0
  O  O744  1  0.528800  0.038600  0.619300  1.0
  O  O745  1  0.038600  0.813300  0.619300  1.0
  O  O746  1  0.798700  0.746800  0.460300  1.0
  O  O747  1  0.746800  0.994200  0.460300  1.0
  O  O748  1  0.994200  0.798700  0.460300  1.0
  O  O749  1  0.828600  0.535300  0.453200  1.0
  O  O750  1  0.535300  0.182900  0.453200  1.0
  O  O751  1  0.182900  0.828600  0.453200  1.0
  O  O752  1  0.884000  0.512100  0.305300  1.0
  O  O753  1  0.512100  0.298600  0.305300  1.0
  O  O754  1  0.298600  0.884000  0.305300  1.0
  O  O755  1  0.693000  0.289700  0.509600  1.0
  O  O756  1  0.289700  0.507700  0.509600  1.0
  O  O757  1  0.507700  0.693000  0.509600  1.0
  O  O758  1  0.680800  0.106100  0.683200  1.0
  O  O759  1  0.106100  0.529900  0.683200  1.0
  O  O760  1  0.529900  0.680800  0.683200  1.0
  O  O761  1  0.835100  0.216600  0.585000  1.0
  O  O762  1  0.216600  0.363300  0.585000  1.0
  O  O763  1  0.363300  0.835100  0.585000  1.0
  O  O764  1  0.975100  0.187200  0.602300  1.0
  O  O765  1  0.187200  0.235400  0.602300  1.0
  O  O766  1  0.235400  0.975100  0.602300  1.0
  F  F767  1  0.359700  0.359700  0.920900  1
  F  F768  1  0.463300  0.867400  0.164100  1
  F  F769  1  0.867400  0.505200  0.164100  1
  F  F770  1  0.505200  0.463300  0.164100  1
  F  F771  1  0.384900  0.978200  0.145000  1
  F  F772  1  0.978200  0.491900  0.145000  1
  F  F773  1  0.491900  0.384900  0.145000  1
  F  F774  1  0.387300  0.900200  0.110600  1
  F  F775  1  0.900200  0.601900  0.110600  1
  F  F776  1  0.601900  0.387300  0.110600  1
  F  F777  1  0.475900  0.946500  0.052400  1
  F  F778  1  0.946500  0.525200  0.052400  1
  F  F779  1  0.525200  0.475900  0.052400  1
  F  F780  1  0.273500  0.273500  0.179500  1
  F  F781  1  0.104300  0.518600  0.446700  1
  F  F782  1  0.518600  0.930400  0.446700  1
  F  F783  1  0.930400  0.104300  0.446700  1
  F  F784  1  0.102700  0.602500  0.339900  1
  F  F785  1  0.602500  0.954900  0.339900  1
  F  F786  1  0.954900  0.102700  0.339900  1
  F  F787  1  0.010900  0.559400  0.411600  1
  F  F788  1  0.559400  0.018100  0.411600  1
  F  F789  1  0.018100  0.010900  0.411600  1
  F  F790  1  0.117800  0.490300  0.358800  1
  F  F791  1  0.490300  0.033100  0.358800  1
  F  F792  1  0.033100  0.117800  0.358800  1
  F  F793  1  0.125000  0.125000  0.625000  1
  F  F794  1  0.536400  0.570000  0.412600  1
  F  F795  1  0.570000  0.481000  0.412600  1
  F  F796  1  0.481000  0.536400  0.412600  1
  F  F797  1  0.573100  0.451400  0.450100  1
  F  F798  1  0.451400  0.525400  0.450100  1
  F  F799  1  0.525400  0.573100  0.450100  1
  F  F800  1  0.467000  0.507000  0.503000  1
  F  F801  1  0.507000  0.523000  0.503000  1
  F  F802  1  0.523000  0.467000  0.503000  1
  F  F803  1  0.457500  0.367600  0.823200  1.0
  F  F804  1  0.367600  0.351700  0.823200  1.0
  F  F805  1  0.351700  0.457500  0.823200  1.0
  F  F806  1  0.235400  0.300000  0.275600  1.0
  F  F807  1  0.300000  0.189000  0.275600  1.0
  F  F808  1  0.189000  0.235400  0.275600  1.0
  F  F809  1  0.064100  0.055400  0.723700  1.0
  F  F810  1  0.055400  0.156800  0.723700  1.0
  F  F811  1  0.156800  0.064100  0.723700  1.0
