# generated using pymatgen
data_Ag2P2H28C45N4Cl4(O2F3)4
_symmetry_space_group_name_H-M   'P 1'
_cell_length_a   12.66886139
_cell_length_b   12.66886139
_cell_length_c   17.06510000
_cell_angle_alpha   85.59181117
_cell_angle_beta   85.59181117
_cell_angle_gamma   66.35457746
_symmetry_Int_Tables_number   1
_chemical_formula_structural   Ag2P2H28C45N4Cl4(O2F3)4
_chemical_formula_sum   'Ag4 P4 H56 C90 N8 Cl8 O16 F24'
_cell_volume   2498.39933091
_cell_formula_units_Z   2
loop_
 _symmetry_equiv_pos_site_id
 _symmetry_equiv_pos_as_xyz
  1  'x, y, z'
loop_
 _atom_site_type_symbol
 _atom_site_label
 _atom_site_symmetry_multiplicity
 _atom_site_fract_x
 _atom_site_fract_y
 _atom_site_fract_z
 _atom_site_occupancy
  Ag  Ag1  1  0.723484  0.406684  0.918560  1.0
  Ag  Ag2  1  0.593316  0.276516  0.581440  1.0
  Ag  Ag3  1  0.276516  0.593316  0.081440  1.0
  Ag  Ag4  1  0.406684  0.723484  0.418560  1.0
  C  C5  1  0.269500  0.730500  0.750000  1
  C  C6  1  0.730500  0.269500  0.250000  1
  C  C7  1  0.653200  0.534000  0.756100  1.0
  C  C8  1  0.466000  0.346800  0.743900  1.0
  C  C9  1  0.346800  0.466000  0.243900  1.0
  C  C10  1  0.534000  0.653200  0.256100  1.0
  C  C11  1  0.612400  0.620800  0.699800  1.0
  C  C12  1  0.379200  0.387600  0.800200  1.0
  C  C13  1  0.387600  0.379200  0.300200  1.0
  C  C14  1  0.620800  0.612400  0.199800  1.0
  C  C15  1  0.575400  0.733000  0.721100  1.0
  C  C16  1  0.267000  0.424600  0.778900  1.0
  C  C17  1  0.424600  0.267000  0.278900  1.0
  C  C18  1  0.733000  0.575400  0.221100  1.0
  C  C19  1  0.577900  0.754500  0.798300  1.0
  C  C20  1  0.245500  0.422100  0.701700  1.0
  C  C21  1  0.422100  0.245500  0.201700  1.0
  C  C22  1  0.754500  0.577900  0.298300  1.0
  C  C23  1  0.618600  0.662200  0.852400  1.0
  C  C24  1  0.337800  0.381400  0.647600  1.0
  C  C25  1  0.381400  0.337800  0.147600  1.0
  C  C26  1  0.662200  0.618600  0.352400  1.0
  C  C27  1  0.622870  0.677870  0.937300  1.0
  C  C28  1  0.322130  0.377130  0.562700  1.0
  C  C29  1  0.377130  0.322130  0.062700  1.0
  C  C30  1  0.677870  0.622870  0.437300  1.0
  C  C31  1  0.590700  0.822700  0.027200  1.0
  C  C32  1  0.177300  0.409300  0.472800  1.0
  C  C33  1  0.409300  0.177300  0.972800  1.0
  C  C34  1  0.822700  0.590700  0.527200  1.0
  C  C35  1  0.692200  0.806600  0.056800  1.0
  C  C36  1  0.193400  0.307800  0.443200  1.0
  C  C37  1  0.307800  0.193400  0.943200  1.0
  C  C38  1  0.806600  0.692200  0.556800  1.0
  C  C39  1  0.695500  0.841900  0.132200  1.0
  C  C40  1  0.158100  0.304500  0.367800  1.0
  C  C41  1  0.304500  0.158100  0.867800  1.0
  C  C42  1  0.841900  0.695500  0.632200  1.0
  C  C43  1  0.800200  0.822400  0.167100  1.0
  C  C44  1  0.177600  0.199800  0.332900  1.0
  C  C45  1  0.199800  0.177600  0.832900  1.0
  C  C46  1  0.822400  0.800200  0.667100  1.0
  C  C47  1  0.798400  0.855600  0.240000  1.0
  C  C48  1  0.144400  0.201600  0.260000  1.0
  C  C49  1  0.201600  0.144400  0.760000  1.0
  C  C50  1  0.855600  0.798400  0.740000  1.0
  C  C51  1  0.695900  0.906900  0.283800  1.0
  C  C52  1  0.093100  0.304100  0.216200  1.0
  C  C53  1  0.304100  0.093100  0.716200  1.0
  C  C54  1  0.906900  0.695900  0.783800  1.0
  C  C55  1  0.592400  0.928200  0.253400  1.0
  C  C56  1  0.071800  0.407600  0.246600  1.0
  C  C57  1  0.407600  0.071800  0.746600  1.0
  C  C58  1  0.928200  0.592400  0.753400  1.0
  C  C59  1  0.589200  0.894800  0.177000  1.0
  C  C60  1  0.105200  0.410800  0.323000  1.0
  C  C61  1  0.410800  0.105200  0.823000  1.0
  C  C62  1  0.894800  0.589200  0.677000  1.0
  C  C63  1  0.485800  0.911800  0.143000  1.0
  C  C64  1  0.088200  0.514200  0.357000  1.0
  C  C65  1  0.514200  0.088200  0.857000  1.0
  C  C66  1  0.911800  0.485800  0.643000  1.0
  C  C67  1  0.486700  0.875500  0.070600  1.0
  C  C68  1  0.124500  0.513300  0.429400  1.0
  C  C69  1  0.513300  0.124500  0.929400  1.0
  C  C70  1  0.875500  0.486700  0.570600  1.0
  C  C71  1  0.351500  0.803900  0.040900  1.0
  C  C72  1  0.196100  0.648500  0.459100  1.0
  C  C73  1  0.648500  0.196100  0.959100  1.0
  C  C74  1  0.803900  0.351500  0.540900  1.0
  C  C75  1  0.756100  0.167700  0.999800  1.0
  C  C76  1  0.832300  0.243900  0.500200  1.0
  C  C77  1  0.243900  0.832300  0.000200  1.0
  C  C78  1  0.167700  0.756100  0.499800  1.0
  C  C79  1  0.803900  0.068700  0.045600  1.0
  C  C80  1  0.931300  0.196100  0.454400  1.0
  C  C81  1  0.196100  0.931300  0.954400  1.0
  C  C82  1  0.068700  0.803900  0.545600  1.0
  C  C83  1  0.903500  0.048100  0.082800  1.0
  C  C84  1  0.951900  0.096500  0.417200  1.0
  C  C85  1  0.096500  0.951900  0.917200  1.0
  C  C86  1  0.048100  0.903500  0.582800  1.0
  C  C87  1  0.951200  0.126200  0.072700  1.0
  C  C88  1  0.873800  0.048800  0.427300  1.0
  C  C89  1  0.048800  0.873800  0.927300  1.0
  C  C90  1  0.126200  0.951200  0.572700  1.0
  C  C91  1  0.899200  0.224600  0.027200  1.0
  C  C92  1  0.775400  0.100800  0.472800  1.0
  C  C93  1  0.100800  0.775400  0.972800  1.0
  C  C94  1  0.224600  0.899200  0.527200  1.0
  Cl  Cl95  1  0.271000  0.862400  0.752400  1
  Cl  Cl96  1  0.137600  0.729000  0.747600  1
  Cl  Cl97  1  0.729000  0.137600  0.247600  1
  Cl  Cl98  1  0.862400  0.271000  0.252400  1
  Cl  Cl99  1  0.343700  0.660500  0.835700  1
  Cl  Cl100  1  0.339500  0.656300  0.664300  1
  Cl  Cl101  1  0.656300  0.339500  0.164300  1
  Cl  Cl102  1  0.660500  0.343700  0.335700  1
  F  F103  1  0.255300  0.744700  0.250000  1
  F  F104  1  0.744700  0.255300  0.750000  1
  F  F105  1  0.030100  0.969900  0.250000  1
  F  F106  1  0.969900  0.030100  0.750000  1
  F  F107  1  0.921000  0.625000  0.972200  1.0
  F  F108  1  0.375000  0.079000  0.527800  1.0
  F  F109  1  0.079000  0.375000  0.027800  1.0
  F  F110  1  0.625000  0.921000  0.472200  1.0
  F  F111  1  0.092200  0.510800  0.937300  1.0
  F  F112  1  0.489200  0.907800  0.562700  1.0
  F  F113  1  0.907800  0.489200  0.062700  1.0
  F  F114  1  0.510800  0.092200  0.437300  1.0
  F  F115  1  0.954100  0.450100  0.937200  1.0
  F  F116  1  0.549900  0.045900  0.562800  1.0
  F  F117  1  0.045900  0.549900  0.062800  1.0
  F  F118  1  0.450100  0.954100  0.437200  1.0
  F  F119  1  0.089000  0.805200  0.191300  1.0
  F  F120  1  0.194800  0.911000  0.308700  1.0
  F  F121  1  0.911000  0.194800  0.808700  1.0
  F  F122  1  0.805200  0.089000  0.691300  1.0
  F  F123  1  0.192700  0.910100  0.177500  1.0
  F  F124  1  0.089900  0.807300  0.322500  1.0
  F  F125  1  0.807300  0.089900  0.822500  1.0
  F  F126  1  0.910100  0.192700  0.677500  1.0
  H  H127  1  0.679700  0.458300  0.741100  1.0
  H  H128  1  0.541700  0.320300  0.758900  1.0
  H  H129  1  0.320300  0.541700  0.258900  1.0
  H  H130  1  0.458300  0.679700  0.241100  1.0
  H  H131  1  0.609700  0.604500  0.648000  1.0
  H  H132  1  0.395500  0.390300  0.852000  1.0
  H  H133  1  0.390300  0.395500  0.352000  1.0
  H  H134  1  0.604500  0.609700  0.148000  1.0
  H  H135  1  0.549000  0.793600  0.683500  1.0
  H  H136  1  0.206400  0.451000  0.816500  1.0
  H  H137  1  0.451000  0.206400  0.316500  1.0
  H  H138  1  0.793600  0.549000  0.183500  1.0
  H  H139  1  0.552800  0.829800  0.814000  1.0
  H  H140  1  0.170200  0.447200  0.686000  1.0
  H  H141  1  0.447200  0.170200  0.186000  1.0
  H  H142  1  0.829800  0.552800  0.314000  1.0
  H  H143  1  0.760600  0.771800  0.026900  1.0
  H  H144  1  0.228200  0.239400  0.473100  1.0
  H  H145  1  0.239400  0.228200  0.973100  1.0
  H  H146  1  0.771800  0.760600  0.526900  1.0
  H  H147  1  0.870300  0.786300  0.139400  1.0
  H  H148  1  0.213700  0.129700  0.360600  1.0
  H  H149  1  0.129700  0.213700  0.860600  1.0
  H  H150  1  0.786300  0.870300  0.639400  1.0
  H  H151  1  0.867500  0.843900  0.261600  1.0
  H  H152  1  0.156100  0.132500  0.238400  1.0
  H  H153  1  0.132500  0.156100  0.738400  1.0
  H  H154  1  0.843900  0.867500  0.761600  1.0
  H  H155  1  0.697600  0.927200  0.334800  1.0
  H  H156  1  0.072800  0.302400  0.165200  1.0
  H  H157  1  0.302400  0.072800  0.665200  1.0
  H  H158  1  0.927200  0.697600  0.834800  1.0
  H  H159  1  0.524200  0.964600  0.283000  1.0
  H  H160  1  0.035400  0.475800  0.217000  1.0
  H  H161  1  0.475800  0.035400  0.717000  1.0
  H  H162  1  0.964600  0.524200  0.783000  1.0
  H  H163  1  0.415800  0.948400  0.170700  1.0
  H  H164  1  0.051600  0.584200  0.329300  1.0
  H  H165  1  0.584200  0.051600  0.829300  1.0
  H  H166  1  0.948400  0.415800  0.670700  1.0
  H  H167  1  0.769700  0.015700  0.051500  1.0
  H  H168  1  0.984300  0.230300  0.448500  1.0
  H  H169  1  0.230300  0.984300  0.948500  1.0
  H  H170  1  0.015700  0.769700  0.551500  1.0
  H  H171  1  0.937200  0.981400  0.114500  1.0
  H  H172  1  0.018600  0.062800  0.385500  1.0
  H  H173  1  0.062800  0.018600  0.885500  1.0
  H  H174  1  0.981400  0.937200  0.614500  1.0
  H  H175  1  0.019200  0.113000  0.096500  1.0
  H  H176  1  0.887000  0.980800  0.403500  1.0
  H  H177  1  0.980800  0.887000  0.903500  1.0
  H  H178  1  0.113000  0.019200  0.596500  1.0
  H  H179  1  0.932300  0.278500  0.021700  1.0
  H  H180  1  0.721500  0.067700  0.478300  1.0
  H  H181  1  0.067700  0.721500  0.978300  1.0
  H  H182  1  0.278500  0.932300  0.521700  1.0
  N  N183  1  0.657200  0.552400  0.832000  1.0
  N  N184  1  0.447600  0.342800  0.668000  1.0
  N  N185  1  0.342800  0.447600  0.168000  1.0
  N  N186  1  0.552400  0.657200  0.332000  1.0
  N  N187  1  0.802630  0.246830  0.990300  1.0
  N  N188  1  0.753170  0.197370  0.509700  1.0
  N  N189  1  0.197370  0.753170  0.009700  1.0
  N  N190  1  0.246830  0.802630  0.490300  1.0
  O  O191  1  0.650280  0.604080  0.987520  1.0
  O  O192  1  0.395920  0.349720  0.512480  1.0
  O  O193  1  0.349720  0.395920  0.012480  1.0
  O  O194  1  0.604080  0.650280  0.487520  1.0
  O  O195  1  0.586050  0.791250  0.950930  1.0
  O  O196  1  0.208750  0.413950  0.549070  1.0
  O  O197  1  0.413950  0.208750  0.049070  1.0
  O  O198  1  0.791250  0.586050  0.450930  1.0
  O  O199  1  0.404790  0.713590  0.073500  1.0
  O  O200  1  0.286410  0.595210  0.426500  1.0
  O  O201  1  0.595210  0.286410  0.926500  1.0
  O  O202  1  0.713590  0.404790  0.573500  1.0
  O  O203  1  0.382730  0.893530  0.037000  1.0
  O  O204  1  0.106470  0.617270  0.463000  1.0
  O  O205  1  0.617270  0.106470  0.963000  1.0
  O  O206  1  0.893530  0.382730  0.537000  1.0
  P  P207  1  1.000000  0.500000  1.000000  1
  P  P208  1  0.500000  1.000000  0.500000  1
  P  P209  1  0.143150  0.856850  0.250000  1
  P  P210  1  0.856850  0.143150  0.750000  1
