# generated using pymatgen
data_AgH16C22N2ClO11
_symmetry_space_group_name_H-M   'P 1'
_cell_length_a   12.36024207
_cell_length_b   12.36024207
_cell_length_c   16.55600000
_cell_angle_alpha   84.24367340
_cell_angle_beta   84.24367340
_cell_angle_gamma   66.44416880
_symmetry_Int_Tables_number   1
_chemical_formula_structural   AgH16C22N2ClO11
_chemical_formula_sum   'Ag4 H64 C88 N8 Cl4 O44'
_cell_volume   2301.85963730
_cell_formula_units_Z   4
loop_
 _symmetry_equiv_pos_site_id
 _symmetry_equiv_pos_as_xyz
  1  'x, y, z'
loop_
 _atom_site_type_symbol
 _atom_site_label
 _atom_site_symmetry_multiplicity
 _atom_site_fract_x
 _atom_site_fract_y
 _atom_site_fract_z
 _atom_site_occupancy
  Ag  Ag1  1  0.595720  0.267580  0.089780  1.0
  Ag  Ag2  1  0.732420  0.404280  0.410220  1.0
  Ag  Ag3  1  0.404280  0.732420  0.910220  1.0
  Ag  Ag4  1  0.267580  0.595720  0.589780  1.0
  C  C5  1  0.460000  0.365400  0.255200  1.0
  C  C6  1  0.634600  0.540000  0.244800  1.0
  C  C7  1  0.540000  0.634600  0.744800  1.0
  C  C8  1  0.365400  0.460000  0.755200  1.0
  C  C9  1  0.369300  0.420700  0.309200  1.0
  C  C10  1  0.579300  0.630700  0.190800  1.0
  C  C11  1  0.630700  0.579300  0.690800  1.0
  C  C12  1  0.420700  0.369300  0.809200  1.0
  C  C13  1  0.257200  0.466000  0.286000  1.0
  C  C14  1  0.534000  0.742800  0.214000  1.0
  C  C15  1  0.742800  0.534000  0.714000  1.0
  C  C16  1  0.466000  0.257200  0.786000  1.0
  C  C17  1  0.238100  0.454700  0.206700  1.0
  C  C18  1  0.545300  0.761900  0.293300  1.0
  C  C19  1  0.761900  0.545300  0.793300  1.0
  C  C20  1  0.454700  0.238100  0.706700  1.0
  C  C21  1  0.332600  0.398800  0.154400  1.0
  C  C22  1  0.601200  0.667400  0.345600  1.0
  C  C23  1  0.667400  0.601200  0.845600  1.0
  C  C24  1  0.398800  0.332600  0.654400  1.0
  C  C25  1  0.319900  0.383900  0.068600  1.0
  C  C26  1  0.616100  0.680100  0.431400  1.0
  C  C27  1  0.680100  0.616100  0.931400  1.0
  C  C28  1  0.383900  0.319900  0.568600  1.0
  C  C29  1  0.180400  0.408200  0.974400  1.0
  C  C30  1  0.591800  0.819600  0.525600  1.0
  C  C31  1  0.819600  0.591800  0.025600  1.0
  C  C32  1  0.408200  0.180400  0.474400  1.0
  C  C33  1  0.204500  0.301500  0.945900  1.0
  C  C34  1  0.698500  0.795500  0.554100  1.0
  C  C35  1  0.795500  0.698500  0.054100  1.0
  C  C36  1  0.301500  0.204500  0.445900  1.0
  C  C37  1  0.173300  0.295100  0.867400  1.0
  C  C38  1  0.704900  0.826700  0.632600  1.0
  C  C39  1  0.826700  0.704900  0.132600  1.0
  C  C40  1  0.295100  0.173300  0.367400  1.0
  C  C41  1  0.200100  0.185300  0.834300  1.0
  C  C42  1  0.814700  0.799900  0.665700  1.0
  C  C43  1  0.799900  0.814700  0.165700  1.0
  C  C44  1  0.185300  0.200100  0.334300  1.0
  C  C45  1  0.169900  0.183300  0.756400  1.0
  C  C46  1  0.816700  0.830100  0.743600  1.0
  C  C47  1  0.830100  0.816700  0.243600  1.0
  C  C48  1  0.183300  0.169900  0.256400  1.0
  C  C49  1  0.112900  0.288500  0.710100  1.0
  C  C50  1  0.711500  0.887100  0.789900  1.0
  C  C51  1  0.887100  0.711500  0.289900  1.0
  C  C52  1  0.288500  0.112900  0.210100  1.0
  C  C53  1  0.087100  0.393900  0.739400  1.0
  C  C54  1  0.606100  0.912900  0.760600  1.0
  C  C55  1  0.912900  0.606100  0.260600  1.0
  C  C56  1  0.393900  0.087100  0.239400  1.0
  C  C57  1  0.116100  0.400300  0.819900  1.0
  C  C58  1  0.599700  0.883900  0.680100  1.0
  C  C59  1  0.883900  0.599700  0.180100  1.0
  C  C60  1  0.400300  0.116100  0.319900  1.0
  C  C61  1  0.091200  0.510400  0.852600  1.0
  C  C62  1  0.489600  0.908800  0.647400  1.0
  C  C63  1  0.908800  0.489600  0.147400  1.0
  C  C64  1  0.510400  0.091200  0.352600  1.0
  C  C65  1  0.124800  0.512800  0.926800  1.0
  C  C66  1  0.487200  0.875200  0.573200  1.0
  C  C67  1  0.875200  0.487200  0.073200  1.0
  C  C68  1  0.512800  0.124800  0.426800  1.0
  C  C69  1  0.808000  0.348000  0.040900  1.0
  C  C70  1  0.652000  0.192000  0.459100  1.0
  C  C71  1  0.192000  0.652000  0.959100  1.0
  C  C72  1  0.348000  0.808000  0.540900  1.0
  C  C73  1  0.835400  0.241400  0.997200  1.0
  C  C74  1  0.758600  0.164600  0.502800  1.0
  C  C75  1  0.164600  0.758600  0.002800  1.0
  C  C76  1  0.241400  0.835400  0.497200  1.0
  C  C77  1  0.933800  0.198800  0.946900  1.0
  C  C78  1  0.801200  0.066200  0.553100  1.0
  C  C79  1  0.066200  0.801200  0.053100  1.0
  C  C80  1  0.198800  0.933800  0.446900  1.0
  C  C81  1  0.953800  0.100000  0.904600  1.0
  C  C82  1  0.900000  0.046200  0.595400  1.0
  C  C83  1  0.046200  0.900000  0.095400  1.0
  C  C84  1  0.100000  0.953800  0.404600  1.0
  C  C85  1  0.870800  0.051800  0.913900  1.0
  C  C86  1  0.948200  0.129200  0.586100  1.0
  C  C87  1  0.129200  0.948200  0.086100  1.0
  C  C88  1  0.051800  0.870800  0.413900  1.0
  C  C89  1  0.776100  0.100100  0.964600  1.0
  C  C90  1  0.899900  0.223900  0.535400  1.0
  C  C91  1  0.223900  0.899900  0.035400  1.0
  C  C92  1  0.100100  0.776100  0.464600  1.0
  Cl  Cl93  1  0.159040  0.840960  0.750000  1
  Cl  Cl94  1  0.840960  0.159040  0.250000  1
  Cl  Cl95  1  0.500000  0.000000  0.000000  1
  Cl  Cl96  1  1.000000  0.500000  0.500000  1
  H  H97  1  0.674800  0.317400  0.847900  1
  H  H98  1  0.682600  0.325200  0.652100  1
  H  H99  1  0.325200  0.682600  0.152100  1
  H  H100  1  0.317400  0.674800  0.347900  1
  H  H101  1  0.791800  0.287400  0.845300  1
  H  H102  1  0.712600  0.208200  0.654700  1
  H  H103  1  0.208200  0.712600  0.154700  1
  H  H104  1  0.287400  0.791800  0.345300  1
  H  H105  1  0.536600  0.334200  0.272400  1.0
  H  H106  1  0.665800  0.463400  0.227600  1.0
  H  H107  1  0.463400  0.665800  0.727600  1.0
  H  H108  1  0.334200  0.536600  0.772400  1.0
  H  H109  1  0.384100  0.427700  0.362000  1.0
  H  H110  1  0.572300  0.615900  0.138000  1.0
  H  H111  1  0.615900  0.572300  0.638000  1.0
  H  H112  1  0.427700  0.384100  0.862000  1.0
  H  H113  1  0.194100  0.503900  0.322500  1.0
  H  H114  1  0.496100  0.805900  0.177500  1.0
  H  H115  1  0.805900  0.496100  0.677500  1.0
  H  H116  1  0.503900  0.194100  0.822500  1.0
  H  H117  1  0.161600  0.484800  0.189300  1.0
  H  H118  1  0.515200  0.838400  0.310700  1.0
  H  H119  1  0.838400  0.515200  0.810700  1.0
  H  H120  1  0.484800  0.161600  0.689300  1.0
  H  H121  1  0.241600  0.232600  0.978000  1.0
  H  H122  1  0.767400  0.758400  0.522000  1.0
  H  H123  1  0.758400  0.767400  0.022000  1.0
  H  H124  1  0.232600  0.241600  0.478000  1.0
  H  H125  1  0.237900  0.114900  0.864800  1.0
  H  H126  1  0.885100  0.762100  0.635200  1.0
  H  H127  1  0.762100  0.885100  0.135200  1.0
  H  H128  1  0.114900  0.237900  0.364800  1.0
  H  H129  1  0.187700  0.111300  0.734600  1.0
  H  H130  1  0.888700  0.812300  0.765400  1.0
  H  H131  1  0.812300  0.888700  0.265400  1.0
  H  H132  1  0.111300  0.187700  0.234600  1.0
  H  H133  1  0.092700  0.285300  0.658000  1.0
  H  H134  1  0.714700  0.907300  0.842000  1.0
  H  H135  1  0.907300  0.714700  0.342000  1.0
  H  H136  1  0.285300  0.092700  0.158000  1.0
  H  H137  1  0.050100  0.462900  0.707300  1.0
  H  H138  1  0.537100  0.949900  0.792700  1.0
  H  H139  1  0.949900  0.537100  0.292700  1.0
  H  H140  1  0.462900  0.050100  0.207300  1.0
  H  H141  1  0.051600  0.580800  0.822700  1.0
  H  H142  1  0.419200  0.948400  0.677300  1.0
  H  H143  1  0.948400  0.419200  0.177300  1.0
  H  H144  1  0.580800  0.051600  0.322700  1.0
  H  H145  1  0.987500  0.234900  0.940600  1.0
  H  H146  1  0.765100  0.012500  0.559400  1.0
  H  H147  1  0.012500  0.765100  0.059400  1.0
  H  H148  1  0.234900  0.987500  0.440600  1.0
  H  H149  1  0.022000  0.067600  0.870800  1.0
  H  H150  1  0.932400  0.978000  0.629200  1.0
  H  H151  1  0.978000  0.932400  0.129200  1.0
  H  H152  1  0.067600  0.022000  0.370800  1.0
  H  H153  1  0.880300  0.987100  0.885500  1.0
  H  H154  1  0.012900  0.119700  0.614500  1.0
  H  H155  1  0.119700  0.012900  0.114500  1.0
  H  H156  1  0.987100  0.880300  0.385500  1.0
  H  H157  1  0.721100  0.065500  0.971200  1.0
  H  H158  1  0.934500  0.278900  0.528800  1.0
  H  H159  1  0.278900  0.934500  0.028800  1.0
  H  H160  1  0.065500  0.721100  0.471200  1.0
  N  N161  1  0.444240  0.353240  0.177400  1.0
  N  N162  1  0.646760  0.555760  0.322600  1.0
  N  N163  1  0.555760  0.646760  0.822600  1.0
  N  N164  1  0.353240  0.444240  0.677400  1.0
  N  N165  1  0.753900  0.193900  0.006600  1.0
  N  N166  1  0.806100  0.246100  0.493400  1.0
  N  N167  1  0.246100  0.806100  0.993400  1.0
  N  N168  1  0.193900  0.753900  0.506600  1.0
  O  O169  1  0.737500  0.289500  0.820000  1
  O  O170  1  0.710500  0.262500  0.680000  1
  O  O171  1  0.262500  0.710500  0.180000  1
  O  O172  1  0.289500  0.737500  0.320000  1
  O  O173  1  0.382900  0.058900  0.040400  1
  O  O174  1  0.941100  0.617100  0.459600  1
  O  O175  1  0.617100  0.941100  0.959600  1
  O  O176  1  0.058900  0.382900  0.540400  1
  O  O177  1  0.510500  0.070500  0.937300  1
  O  O178  1  0.929500  0.489500  0.562700  1
  O  O179  1  0.489500  0.929500  0.062700  1
  O  O180  1  0.070500  0.510500  0.437300  1
  O  O181  1  0.571000  0.013200  0.063400  1
  O  O182  1  0.986800  0.429000  0.436600  1
  O  O183  1  0.429000  0.986800  0.936600  1
  O  O184  1  0.013200  0.571000  0.563400  1
  O  O185  1  0.522900  0.890500  0.998000  1
  O  O186  1  0.109500  0.477100  0.502000  1
  O  O187  1  0.477100  0.109500  0.002000  1
  O  O188  1  0.890500  0.522900  0.498000  1
  O  O189  1  0.398510  0.347910  0.018400  1.0
  O  O190  1  0.652090  0.601490  0.481600  1.0
  O  O191  1  0.601490  0.652090  0.981600  1.0
  O  O192  1  0.347910  0.398510  0.518400  1.0
  O  O193  1  0.205400  0.418600  0.053600  1.0
  O  O194  1  0.581400  0.794600  0.446400  1.0
  O  O195  1  0.794600  0.581400  0.946400  1.0
  O  O196  1  0.418600  0.205400  0.553600  1.0
  O  O197  1  0.714070  0.402070  0.073400  1.0
  O  O198  1  0.597930  0.285930  0.426600  1.0
  O  O199  1  0.285930  0.597930  0.926600  1.0
  O  O200  1  0.402070  0.714070  0.573400  1.0
  O  O201  1  0.899960  0.378960  0.039300  1.0
  O  O202  1  0.621040  0.100040  0.460700  1.0
  O  O203  1  0.100040  0.621040  0.960700  1.0
  O  O204  1  0.378960  0.899960  0.539300  1.0
  O  O205  1  0.172600  0.740400  0.721200  1.0
  O  O206  1  0.259600  0.827400  0.778800  1.0
  O  O207  1  0.827400  0.259600  0.278800  1.0
  O  O208  1  0.740400  0.172600  0.221200  1.0
  O  O209  1  0.136500  0.924900  0.690300  1.0
  O  O210  1  0.075100  0.863500  0.809700  1.0
  O  O211  1  0.863500  0.075100  0.309700  1.0
  O  O212  1  0.924900  0.136500  0.190300  1.0
