# generated using pymatgen
data_AgBH14C22N2(OF2)4
_symmetry_space_group_name_H-M   'P 1'
_cell_length_a   12.39225485
_cell_length_b   12.39225485
_cell_length_c   16.22680000
_cell_angle_alpha   82.47431312
_cell_angle_beta   82.47431312
_cell_angle_gamma   66.55430583
_symmetry_Int_Tables_number   1
_chemical_formula_structural   AgBH14C22N2(OF2)4
_chemical_formula_sum   'Ag4 B4 H56 C88 N8 O16 F32'
_cell_volume   2257.95041861
_cell_formula_units_Z   4
loop_
 _symmetry_equiv_pos_site_id
 _symmetry_equiv_pos_as_xyz
  1  'x, y, z'
loop_
 _atom_site_type_symbol
 _atom_site_label
 _atom_site_symmetry_multiplicity
 _atom_site_fract_x
 _atom_site_fract_y
 _atom_site_fract_z
 _atom_site_occupancy
  Ag  Ag1  1  0.735221  0.403731  0.908418  1.0
  Ag  Ag2  1  0.596269  0.264779  0.591582  1.0
  Ag  Ag3  1  0.264779  0.596269  0.091582  1.0
  Ag  Ag4  1  0.403731  0.735221  0.408418  1.0
  B  B5  1  0.000000  0.500000  0.000000  1
  B  B6  1  0.500000  0.000000  0.500000  1
  B  B7  1  0.840200  0.159800  0.750000  1
  B  B8  1  0.159800  0.840200  0.250000  1
  C  C9  1  0.630250  0.538450  0.741320  1.0
  C  C10  1  0.461550  0.369750  0.758680  1.0
  C  C11  1  0.369750  0.461550  0.258680  1.0
  C  C12  1  0.538450  0.630250  0.241320  1.0
  C  C13  1  0.567180  0.627980  0.686630  1.0
  C  C14  1  0.372020  0.432820  0.813370  1.0
  C  C15  1  0.432820  0.372020  0.313370  1.0
  C  C16  1  0.627980  0.567180  0.186630  1.0
  C  C17  1  0.517410  0.740010  0.710400  1.0
  C  C18  1  0.259990  0.482590  0.789600  1.0
  C  C19  1  0.482590  0.259990  0.289600  1.0
  C  C20  1  0.740010  0.517410  0.210400  1.0
  C  C21  1  0.531770  0.759770  0.789710  1.0
  C  C22  1  0.240230  0.468230  0.710290  1.0
  C  C23  1  0.468230  0.240230  0.210290  1.0
  C  C24  1  0.759770  0.531770  0.289710  1.0
  C  C25  1  0.595850  0.665450  0.841230  1.0
  C  C26  1  0.334550  0.404150  0.658770  1.0
  C  C27  1  0.404150  0.334550  0.158770  1.0
  C  C28  1  0.665450  0.595850  0.341230  1.0
  C  C29  1  0.615060  0.677660  0.927690  1.0
  C  C30  1  0.322340  0.384940  0.572310  1.0
  C  C31  1  0.384940  0.322340  0.072310  1.0
  C  C32  1  0.677660  0.615060  0.427690  1.0
  C  C33  1  0.588060  0.818060  0.021660  1.0
  C  C34  1  0.181940  0.411940  0.478340  1.0
  C  C35  1  0.411940  0.181940  0.978340  1.0
  C  C36  1  0.818060  0.588060  0.521660  1.0
  C  C37  1  0.694240  0.791040  0.050530  1.0
  C  C38  1  0.208960  0.305760  0.449470  1.0
  C  C39  1  0.305760  0.208960  0.949470  1.0
  C  C40  1  0.791040  0.694240  0.550530  1.0
  C  C41  1  0.699510  0.822110  0.130240  1.0
  C  C42  1  0.177890  0.300490  0.369760  1.0
  C  C43  1  0.300490  0.177890  0.869760  1.0
  C  C44  1  0.822110  0.699510  0.630240  1.0
  C  C45  1  0.809270  0.791870  0.164100  1.0
  C  C46  1  0.208130  0.190730  0.335900  1.0
  C  C47  1  0.190730  0.208130  0.835900  1.0
  C  C48  1  0.791870  0.809270  0.664100  1.0
  C  C49  1  0.811560  0.823160  0.240800  1.0
  C  C50  1  0.176840  0.188440  0.259200  1.0
  C  C51  1  0.188440  0.176840  0.759200  1.0
  C  C52  1  0.823160  0.811560  0.740800  1.0
  C  C53  1  0.707100  0.882900  0.287400  1.0
  C  C54  1  0.117100  0.292900  0.212600  1.0
  C  C55  1  0.292900  0.117100  0.712600  1.0
  C  C56  1  0.882900  0.707100  0.787400  1.0
  C  C57  1  0.599730  0.912930  0.258000  1.0
  C  C58  1  0.087070  0.400270  0.242000  1.0
  C  C59  1  0.400270  0.087070  0.742000  1.0
  C  C60  1  0.912930  0.599730  0.758000  1.0
  C  C61  1  0.593840  0.883240  0.177490  1.0
  C  C62  1  0.116760  0.406160  0.322510  1.0
  C  C63  1  0.406160  0.116760  0.822510  1.0
  C  C64  1  0.883240  0.593840  0.677490  1.0
  C  C65  1  0.484780  0.910180  0.144940  1.0
  C  C66  1  0.089820  0.515220  0.355060  1.0
  C  C67  1  0.515220  0.089820  0.855060  1.0
  C  C68  1  0.910180  0.484780  0.644940  1.0
  C  C69  1  0.483750  0.876550  0.069040  1.0
  C  C70  1  0.123450  0.516250  0.430960  1.0
  C  C71  1  0.516250  0.123450  0.930960  1.0
  C  C72  1  0.876550  0.483750  0.569040  1.0
  C  C73  1  0.345030  0.808430  0.037770  1.0
  C  C74  1  0.191570  0.654970  0.462230  1.0
  C  C75  1  0.654970  0.191570  0.962230  1.0
  C  C76  1  0.808430  0.345030  0.537770  1.0
  C  C77  1  0.762550  0.161950  0.006340  1.0
  C  C78  1  0.838050  0.237450  0.493660  1.0
  C  C79  1  0.237450  0.838050  0.993660  1.0
  C  C80  1  0.161950  0.762550  0.506340  1.0
  C  C81  1  0.806540  0.061740  0.058500  1.0
  C  C82  1  0.938260  0.193460  0.441500  1.0
  C  C83  1  0.193460  0.938260  0.941500  1.0
  C  C84  1  0.061740  0.806540  0.558500  1.0
  C  C85  1  0.902300  0.043300  0.100900  1.0
  C  C86  1  0.956700  0.097700  0.399100  1.0
  C  C87  1  0.097700  0.956700  0.899100  1.0
  C  C88  1  0.043300  0.902300  0.600900  1.0
  C  C89  1  0.950800  0.125000  0.089000  1.0
  C  C90  1  0.875000  0.049200  0.411000  1.0
  C  C91  1  0.049200  0.875000  0.911000  1.0
  C  C92  1  0.125000  0.950800  0.589000  1.0
  C  C93  1  0.903680  0.223280  0.035300  1.0
  C  C94  1  0.776720  0.096320  0.464700  1.0
  C  C95  1  0.096320  0.776720  0.964700  1.0
  C  C96  1  0.223280  0.903680  0.535300  1.0
  F  F97  1  0.740300  0.228300  0.731600  1
  F  F98  1  0.771700  0.259700  0.768400  1
  F  F99  1  0.259700  0.771700  0.268400  1
  F  F100  1  0.228300  0.740300  0.231600  1
  F  F101  1  0.105400  0.484000  0.010100  1
  F  F102  1  0.516000  0.894600  0.489900  1
  F  F103  1  0.894600  0.516000  0.989900  1
  F  F104  1  0.484000  0.105400  0.510100  1
  F  F105  1  0.883300  0.059500  0.786700  1
  F  F106  1  0.940500  0.116700  0.713300  1
  F  F107  1  0.116700  0.940500  0.213300  1
  F  F108  1  0.059500  0.883300  0.286700  1
  F  F109  1  0.992900  0.435900  0.939100  1
  F  F110  1  0.564100  0.007100  0.560900  1
  F  F111  1  0.007100  0.564100  0.060900  1
  F  F112  1  0.435900  0.992900  0.439100  1
  F  F113  1  0.944500  0.614500  0.967800  1.0
  F  F114  1  0.385500  0.055500  0.532200  1.0
  F  F115  1  0.055500  0.385500  0.032200  1.0
  F  F116  1  0.614500  0.944500  0.467800  1.0
  F  F117  1  0.933400  0.482200  0.062900  1.0
  F  F118  1  0.517800  0.066600  0.437100  1.0
  F  F119  1  0.066600  0.517800  0.937100  1.0
  F  F120  1  0.482200  0.933400  0.562900  1.0
  F  F121  1  0.881800  0.230200  0.797100  1.0
  F  F122  1  0.769800  0.118200  0.702900  1.0
  F  F123  1  0.118200  0.769800  0.202900  1.0
  F  F124  1  0.230200  0.881800  0.297100  1.0
  F  F125  1  0.904200  0.171600  0.677300  1.0
  F  F126  1  0.828400  0.095800  0.822700  1.0
  F  F127  1  0.095800  0.828400  0.322700  1.0
  F  F128  1  0.171600  0.904200  0.177300  1.0
  H  H129  1  0.664500  0.462300  0.724300  1.0
  H  H130  1  0.537700  0.335500  0.775700  1.0
  H  H131  1  0.335500  0.537700  0.275700  1.0
  H  H132  1  0.462300  0.664500  0.224300  1.0
  H  H133  1  0.558300  0.612700  0.633900  1.0
  H  H134  1  0.387300  0.441700  0.866100  1.0
  H  H135  1  0.441700  0.387300  0.366100  1.0
  H  H136  1  0.612700  0.558300  0.133900  1.0
  H  H137  1  0.474500  0.802300  0.674000  1.0
  H  H138  1  0.197700  0.525500  0.826000  1.0
  H  H139  1  0.525500  0.197700  0.326000  1.0
  H  H140  1  0.802300  0.474500  0.174000  1.0
  H  H141  1  0.498600  0.835400  0.807500  1.0
  H  H142  1  0.164600  0.501400  0.692500  1.0
  H  H143  1  0.501400  0.164600  0.192500  1.0
  H  H144  1  0.835400  0.498600  0.307500  1.0
  H  H145  1  0.763500  0.752100  0.018100  1.0
  H  H146  1  0.247900  0.236500  0.481900  1.0
  H  H147  1  0.236500  0.247900  0.981900  1.0
  H  H148  1  0.752100  0.763500  0.518100  1.0
  H  H149  1  0.879600  0.750600  0.133600  1.0
  H  H150  1  0.249400  0.120400  0.366400  1.0
  H  H151  1  0.120400  0.249400  0.866400  1.0
  H  H152  1  0.750600  0.879600  0.633600  1.0
  H  H153  1  0.883500  0.804500  0.262200  1.0
  H  H154  1  0.195500  0.116500  0.237800  1.0
  H  H155  1  0.116500  0.195500  0.737800  1.0
  H  H156  1  0.804500  0.883500  0.762200  1.0
  H  H157  1  0.710300  0.902900  0.340100  1.0
  H  H158  1  0.097100  0.289700  0.159900  1.0
  H  H159  1  0.289700  0.097100  0.659900  1.0
  H  H160  1  0.902900  0.710300  0.840100  1.0
  H  H161  1  0.530800  0.952600  0.290400  1.0
  H  H162  1  0.047400  0.469200  0.209600  1.0
  H  H163  1  0.469200  0.047400  0.709600  1.0
  H  H164  1  0.952600  0.530800  0.790400  1.0
  H  H165  1  0.414300  0.950700  0.175500  1.0
  H  H166  1  0.049300  0.585700  0.324500  1.0
  H  H167  1  0.585700  0.049300  0.824500  1.0
  H  H168  1  0.950700  0.414300  0.675500  1.0
  H  H169  1  0.772100  0.006500  0.065400  1.0
  H  H170  1  0.993500  0.227900  0.434600  1.0
  H  H171  1  0.227900  0.993500  0.934600  1.0
  H  H172  1  0.006500  0.772100  0.565400  1.0
  H  H173  1  0.933200  0.975800  0.137000  1.0
  H  H174  1  0.024200  0.066800  0.363000  1.0
  H  H175  1  0.066800  0.024200  0.863000  1.0
  H  H176  1  0.975800  0.933200  0.637000  1.0
  H  H177  1  0.015600  0.114600  0.117000  1.0
  H  H178  1  0.885400  0.984400  0.383000  1.0
  H  H179  1  0.984400  0.885400  0.883000  1.0
  H  H180  1  0.114600  0.015600  0.617000  1.0
  H  H181  1  0.938500  0.278300  0.027000  1.0
  H  H182  1  0.721700  0.061500  0.473000  1.0
  H  H183  1  0.061500  0.721700  0.973000  1.0
  H  H184  1  0.278300  0.938500  0.527000  1.0
  N  N185  1  0.645400  0.554880  0.818230  1.0
  N  N186  1  0.445120  0.354600  0.681770  1.0
  N  N187  1  0.354600  0.445120  0.181770  1.0
  N  N188  1  0.554880  0.645400  0.318230  1.0
  N  N189  1  0.809720  0.243720  0.994140  1.0
  N  N190  1  0.756280  0.190280  0.505860  1.0
  N  N191  1  0.190280  0.756280  0.005860  1.0
  N  N192  1  0.243720  0.809720  0.494140  1.0
  O  O193  1  0.657040  0.597800  0.978040  1.0
  O  O194  1  0.402200  0.342960  0.521960  1.0
  O  O195  1  0.342960  0.402200  0.021960  1.0
  O  O196  1  0.597800  0.657040  0.478040  1.0
  O  O197  1  0.577920  0.792440  0.941870  1.0
  O  O198  1  0.207560  0.422080  0.558130  1.0
  O  O199  1  0.422080  0.207560  0.058130  1.0
  O  O200  1  0.792440  0.577920  0.441870  1.0
  O  O201  1  0.401140  0.713300  0.068610  1.0
  O  O202  1  0.286700  0.598860  0.431390  1.0
  O  O203  1  0.598860  0.286700  0.931390  1.0
  O  O204  1  0.713300  0.401140  0.568610  1.0
  O  O205  1  0.375090  0.902570  0.036160  1.0
  O  O206  1  0.097430  0.624910  0.463840  1.0
  O  O207  1  0.624910  0.097430  0.963840  1.0
  O  O208  1  0.902570  0.375090  0.536160  1.0
