# generated using pymatgen
data_Ag2H28C44N7O20
_symmetry_space_group_name_H-M   'P 1'
_cell_length_a   12.16904015
_cell_length_b   12.16904015
_cell_length_c   16.06090000
_cell_angle_alpha   83.42361344
_cell_angle_beta   83.42361344
_cell_angle_gamma   64.36391691
_symmetry_Int_Tables_number   1
_chemical_formula_structural   Ag2H28C44N7O20
_chemical_formula_sum   'Ag4 H56 C88 N14 O40'
_cell_volume   2124.53677693
_cell_formula_units_Z   2
loop_
 _symmetry_equiv_pos_site_id
 _symmetry_equiv_pos_as_xyz
  1  'x, y, z'
loop_
 _atom_site_type_symbol
 _atom_site_label
 _atom_site_symmetry_multiplicity
 _atom_site_fract_x
 _atom_site_fract_y
 _atom_site_fract_z
 _atom_site_occupancy
  Ag  Ag1  1  0.111228  0.748068  0.103351  1.0
  Ag  Ag2  1  0.251932  0.888772  0.396649  1.0
  Ag  Ag3  1  0.888772  0.251932  0.896649  1.0
  Ag  Ag4  1  0.748068  0.111228  0.603351  1.0
  C  C5  1  0.343680  0.735080  0.990300  1.0
  C  C6  1  0.264920  0.656320  0.509700  1.0
  C  C7  1  0.656320  0.264920  0.009700  1.0
  C  C8  1  0.735080  0.343680  0.490300  1.0
  C  C9  1  0.443500  0.693500  0.933900  1.0
  C  C10  1  0.306500  0.556500  0.566100  1.0
  C  C11  1  0.556500  0.306500  0.066100  1.0
  C  C12  1  0.693500  0.443500  0.433900  1.0
  C  C13  1  0.466000  0.591800  0.890600  1.0
  C  C14  1  0.408200  0.534000  0.609400  1.0
  C  C15  1  0.534000  0.408200  0.109400  1.0
  C  C16  1  0.591800  0.466000  0.390600  1.0
  C  C17  1  0.388300  0.538700  0.905700  1.0
  C  C18  1  0.461300  0.611700  0.594300  1.0
  C  C19  1  0.611700  0.461300  0.094300  1.0
  C  C20  1  0.538700  0.388300  0.405700  1.0
  C  C21  1  0.289740  0.585140  0.962700  1.0
  C  C22  1  0.414860  0.710260  0.537300  1.0
  C  C23  1  0.710260  0.414860  0.037300  1.0
  C  C24  1  0.585140  0.289740  0.462700  1.0
  C  C25  1  0.308880  0.846880  0.033100  1.0
  C  C26  1  0.153120  0.691120  0.466900  1.0
  C  C27  1  0.691120  0.153120  0.966900  1.0
  C  C28  1  0.846880  0.308880  0.533100  1.0
  C  C29  1  0.374130  0.987930  0.070200  1.0
  C  C30  1  0.012070  0.625870  0.429800  1.0
  C  C31  1  0.625870  0.012070  0.929800  1.0
  C  C32  1  0.987930  0.374130  0.570200  1.0
  C  C33  1  0.313010  0.097010  0.021300  1.0
  C  C34  1  0.902990  0.686990  0.478700  1.0
  C  C35  1  0.686990  0.902990  0.978700  1.0
  C  C36  1  0.097010  0.313010  0.521300  1.0
  C  C37  1  0.283070  0.206470  0.052300  1.0
  C  C38  1  0.793530  0.716930  0.447700  1.0
  C  C39  1  0.716930  0.793530  0.947700  1.0
  C  C40  1  0.206470  0.283070  0.552300  1.0
  C  C41  1  0.313240  0.211640  0.133200  1.0
  C  C42  1  0.788360  0.686760  0.366800  1.0
  C  C43  1  0.686760  0.788360  0.866800  1.0
  C  C44  1  0.211640  0.313240  0.633200  1.0
  C  C45  1  0.281840  0.323640  0.168000  1.0
  C  C46  1  0.676360  0.718160  0.332000  1.0
  C  C47  1  0.718160  0.676360  0.832000  1.0
  C  C48  1  0.323640  0.281840  0.668000  1.0
  C  C49  1  0.313090  0.326890  0.244800  1.0
  C  C50  1  0.673110  0.686910  0.255200  1.0
  C  C51  1  0.686910  0.673110  0.755200  1.0
  C  C52  1  0.326890  0.313090  0.744800  1.0
  C  C53  1  0.375790  0.218190  0.293600  1.0
  C  C54  1  0.781810  0.624210  0.206400  1.0
  C  C55  1  0.624210  0.781810  0.706400  1.0
  C  C56  1  0.218190  0.375790  0.793600  1.0
  C  C57  1  0.405460  0.109660  0.262400  1.0
  C  C58  1  0.890340  0.594540  0.237600  1.0
  C  C59  1  0.594540  0.890340  0.737600  1.0
  C  C60  1  0.109660  0.405460  0.762400  1.0
  C  C61  1  0.375890  0.102690  0.180700  1.0
  C  C62  1  0.897310  0.624110  0.319300  1.0
  C  C63  1  0.624110  0.897310  0.819300  1.0
  C  C64  1  0.102690  0.375890  0.680700  1.0
  C  C65  1  0.406270  0.989670  0.146900  1.0
  C  C66  1  0.010330  0.593730  0.353100  1.0
  C  C67  1  0.593730  0.010330  0.853100  1.0
  C  C68  1  0.989670  0.406270  0.646900  1.0
  C  C69  1  0.171800  0.130000  0.921100  1.0
  C  C70  1  0.870000  0.828200  0.578900  1.0
  C  C71  1  0.828200  0.870000  0.078900  1.0
  C  C72  1  0.130000  0.171800  0.421100  1.0
  C  C73  1  0.836100  0.899900  0.163500  1.0
  C  C74  1  0.100100  0.163900  0.336500  1.0
  C  C75  1  0.163900  0.100100  0.836500  1.0
  C  C76  1  0.899900  0.836100  0.663500  1.0
  C  C77  1  0.736180  0.969780  0.213500  1.0
  C  C78  1  0.030220  0.263820  0.286500  1.0
  C  C79  1  0.263820  0.030220  0.786500  1.0
  C  C80  1  0.969780  0.736180  0.713500  1.0
  C  C81  1  0.749450  0.993050  0.292100  1.0
  C  C82  1  0.006950  0.250550  0.207900  1.0
  C  C83  1  0.250550  0.006950  0.707900  1.0
  C  C84  1  0.993050  0.749450  0.792100  1.0
  C  C85  1  0.865090  0.944490  0.319100  1.0
  C  C86  1  0.055510  0.134910  0.180900  1.0
  C  C87  1  0.134910  0.055510  0.680900  1.0
  C  C88  1  0.944490  0.865090  0.819100  1.0
  C  C89  1  0.961180  0.874780  0.266300  1.0
  C  C90  1  0.125220  0.038820  0.233700  1.0
  C  C91  1  0.038820  0.125220  0.733700  1.0
  C  C92  1  0.874780  0.961180  0.766300  1.0
  H  H93  1  0.495500  0.732300  0.924600  1.0
  H  H94  1  0.267700  0.504500  0.575400  1.0
  H  H95  1  0.504500  0.267700  0.075400  1.0
  H  H96  1  0.732300  0.495500  0.424600  1.0
  H  H97  1  0.533400  0.561400  0.852100  1.0
  H  H98  1  0.438600  0.466600  0.647900  1.0
  H  H99  1  0.466600  0.438600  0.147900  1.0
  H  H100  1  0.561400  0.533400  0.352100  1.0
  H  H101  1  0.401400  0.470800  0.877500  1.0
  H  H102  1  0.529200  0.598600  0.622500  1.0
  H  H103  1  0.598600  0.529200  0.122500  1.0
  H  H104  1  0.470800  0.401400  0.377500  1.0
  H  H105  1  0.237400  0.546800  0.972200  1.0
  H  H106  1  0.453200  0.762600  0.527800  1.0
  H  H107  1  0.762600  0.453200  0.027800  1.0
  H  H108  1  0.546800  0.237400  0.472200  1.0
  H  H109  1  0.242400  0.278400  0.019700  1.0
  H  H110  1  0.721600  0.757600  0.480300  1.0
  H  H111  1  0.757600  0.721600  0.980300  1.0
  H  H112  1  0.278400  0.242400  0.519700  1.0
  H  H113  1  0.238700  0.396500  0.137200  1.0
  H  H114  1  0.603500  0.761300  0.362800  1.0
  H  H115  1  0.761300  0.603500  0.862800  1.0
  H  H116  1  0.396500  0.238700  0.637200  1.0
  H  H117  1  0.293000  0.401800  0.265900  1.0
  H  H118  1  0.598200  0.707000  0.234100  1.0
  H  H119  1  0.707000  0.598200  0.734100  1.0
  H  H120  1  0.401800  0.293000  0.765900  1.0
  H  H121  1  0.396600  0.221000  0.347000  1.0
  H  H122  1  0.779000  0.603400  0.153000  1.0
  H  H123  1  0.603400  0.779000  0.653000  1.0
  H  H124  1  0.221000  0.396600  0.847000  1.0
  H  H125  1  0.446200  0.037800  0.295200  1.0
  H  H126  1  0.962200  0.553800  0.204800  1.0
  H  H127  1  0.553800  0.962200  0.704800  1.0
  H  H128  1  0.037800  0.446200  0.795200  1.0
  H  H129  1  0.448600  0.916600  0.177900  1.0
  H  H130  1  0.083400  0.551400  0.322100  1.0
  H  H131  1  0.551400  0.083400  0.822100  1.0
  H  H132  1  0.916600  0.448600  0.677900  1.0
  H  H133  1  0.658700  0.001500  0.193600  1.0
  H  H134  1  0.998500  0.341300  0.306400  1.0
  H  H135  1  0.341300  0.998500  0.806400  1.0
  H  H136  1  0.001500  0.658700  0.693600  1.0
  H  H137  1  0.682000  0.040400  0.326300  1.0
  H  H138  1  0.959600  0.318000  0.173700  1.0
  H  H139  1  0.318000  0.959600  0.673700  1.0
  H  H140  1  0.040400  0.682000  0.826300  1.0
  H  H141  1  0.878200  0.958400  0.372000  1.0
  H  H142  1  0.041600  0.121800  0.128000  1.0
  H  H143  1  0.121800  0.041600  0.628000  1.0
  H  H144  1  0.958400  0.878200  0.872000  1.0
  H  H145  1  0.039200  0.842000  0.285400  1.0
  H  H146  1  0.158000  0.960800  0.214600  1.0
  H  H147  1  0.960800  0.158000  0.714600  1.0
  H  H148  1  0.842000  0.039200  0.785400  1.0
  N  N149  1  0.325100  0.674900  0.250000  1
  N  N150  1  0.674900  0.325100  0.750000  1
  N  N151  1  0.008900  0.519500  0.012400  1.0
  N  N152  1  0.480500  0.991100  0.487600  1.0
  N  N153  1  0.991100  0.480500  0.987600  1.0
  N  N154  1  0.519500  0.008900  0.512400  1.0
  N  N155  1  0.264110  0.682910  0.005890  1.0
  N  N156  1  0.317090  0.735890  0.494110  1.0
  N  N157  1  0.735890  0.317090  0.994110  1.0
  N  N158  1  0.682910  0.264110  0.505890  1.0
  N  N159  1  0.949990  0.850990  0.189400  1.0
  N  N160  1  0.149010  0.050010  0.310600  1.0
  N  N161  1  0.050010  0.149010  0.810600  1.0
  N  N162  1  0.850990  0.949990  0.689400  1.0
  O  O163  1  0.334800  0.595600  0.310700  1
  O  O164  1  0.404400  0.665200  0.189300  1
  O  O165  1  0.665200  0.404400  0.689300  1
  O  O166  1  0.595600  0.334800  0.810700  1
  O  O167  1  0.373290  0.744290  0.263900  1
  O  O168  1  0.255710  0.626710  0.236100  1
  O  O169  1  0.626710  0.255710  0.736100  1
  O  O170  1  0.744290  0.373290  0.763900  1
  O  O171  1  0.266600  0.679400  0.187600  1
  O  O172  1  0.320600  0.733400  0.312400  1
  O  O173  1  0.733400  0.320600  0.812400  1
  O  O174  1  0.679400  0.266600  0.687600  1
  O  O175  1  0.070000  0.522000  0.063300  1.0
  O  O176  1  0.478000  0.930000  0.436700  1.0
  O  O177  1  0.930000  0.478000  0.936700  1.0
  O  O178  1  0.522000  0.070000  0.563300  1.0
  O  O179  1  0.030100  0.534900  0.942800  1.0
  O  O180  1  0.465100  0.969900  0.557200  1.0
  O  O181  1  0.969900  0.465100  0.057200  1.0
  O  O182  1  0.534900  0.030100  0.442800  1.0
  O  O183  1  0.909800  0.513800  0.038500  1.0
  O  O184  1  0.486200  0.090200  0.461500  1.0
  O  O185  1  0.090200  0.486200  0.961500  1.0
  O  O186  1  0.513800  0.909800  0.538500  1.0
  O  O187  1  0.207620  0.909040  0.060180  1.0
  O  O188  1  0.090960  0.792380  0.439820  1.0
  O  O189  1  0.792380  0.090960  0.939820  1.0
  O  O190  1  0.909040  0.207620  0.560180  1.0
  O  O191  1  0.402960  0.876360  0.035780  1.0
  O  O192  1  0.123640  0.597040  0.464220  1.0
  O  O193  1  0.597040  0.123640  0.964220  1.0
  O  O194  1  0.876360  0.402960  0.535780  1.0
  O  O195  1  0.289830  0.084570  0.940330  1.0
  O  O196  1  0.915430  0.710170  0.559670  1.0
  O  O197  1  0.710170  0.915430  0.059670  1.0
  O  O198  1  0.084570  0.289830  0.440330  1.0
  O  O199  1  0.087390  0.186090  0.968290  1.0
  O  O200  1  0.813910  0.912610  0.531710  1.0
  O  O201  1  0.912610  0.813910  0.031710  1.0
  O  O202  1  0.186090  0.087390  0.468290  1.0
