# generated using pymatgen
data_H30PdC21N4(ClO3)2
_symmetry_space_group_name_H-M   'P 1'
_cell_length_a   15.85064213
_cell_length_b   15.85064213
_cell_length_c   15.85064213
_cell_angle_alpha   90.89146623
_cell_angle_beta   90.89146623
_cell_angle_gamma   90.89146623
_symmetry_Int_Tables_number   1
_chemical_formula_structural   H30PdC21N4(ClO3)2
_chemical_formula_sum   'H180 Pd6 C126 N24 Cl12 O36'
_cell_volume   3980.89935311
_cell_formula_units_Z   6
loop_
 _symmetry_equiv_pos_site_id
 _symmetry_equiv_pos_as_xyz
  1  'x, y, z'
loop_
 _atom_site_type_symbol
 _atom_site_label
 _atom_site_symmetry_multiplicity
 _atom_site_fract_x
 _atom_site_fract_y
 _atom_site_fract_z
 _atom_site_occupancy
  C  C1  1  0.479300  0.056400  0.980600  1
  C  C2  1  0.980600  0.479300  0.056400  1
  C  C3  1  0.056400  0.980600  0.479300  1
  C  C4  1  0.480600  0.556400  0.979300  1
  C  C5  1  0.556400  0.979300  0.480600  1
  C  C6  1  0.979300  0.480600  0.556400  1
  C  C7  1  0.006600  0.805300  0.313500  1.0
  C  C8  1  0.313500  0.006600  0.805300  1.0
  C  C9  1  0.805300  0.313500  0.006600  1.0
  C  C10  1  0.813500  0.305300  0.506600  1.0
  C  C11  1  0.305300  0.506600  0.813500  1.0
  C  C12  1  0.506600  0.813500  0.305300  1.0
  C  C13  1  0.942600  0.804200  0.371400  1.0
  C  C14  1  0.371400  0.942600  0.804200  1.0
  C  C15  1  0.804200  0.371400  0.942600  1.0
  C  C16  1  0.871400  0.304200  0.442600  1.0
  C  C17  1  0.304200  0.442600  0.871400  1.0
  C  C18  1  0.442600  0.871400  0.304200  1.0
  C  C19  1  0.947100  0.751900  0.437200  1.0
  C  C20  1  0.437200  0.947100  0.751900  1.0
  C  C21  1  0.751900  0.437200  0.947100  1.0
  C  C22  1  0.937200  0.251900  0.447100  1.0
  C  C23  1  0.251900  0.447100  0.937200  1.0
  C  C24  1  0.447100  0.937200  0.251900  1.0
  C  C25  1  0.015800  0.698700  0.446000  1.0
  C  C26  1  0.446000  0.015800  0.698700  1.0
  C  C27  1  0.698700  0.446000  0.015800  1.0
  C  C28  1  0.946000  0.198700  0.515800  1.0
  C  C29  1  0.198700  0.515800  0.946000  1.0
  C  C30  1  0.515800  0.946000  0.198700  1.0
  C  C31  1  0.078560  0.701060  0.386460  1.0
  C  C32  1  0.386460  0.078560  0.701060  1.0
  C  C33  1  0.701060  0.386460  0.078560  1.0
  C  C34  1  0.886460  0.201060  0.578560  1.0
  C  C35  1  0.201060  0.578560  0.886460  1.0
  C  C36  1  0.578560  0.886460  0.201060  1.0
  C  C37  1  0.152500  0.643000  0.392000  1.0
  C  C38  1  0.392000  0.152500  0.643000  1.0
  C  C39  1  0.643000  0.392000  0.152500  1.0
  C  C40  1  0.892000  0.143000  0.652500  1.0
  C  C41  1  0.143000  0.652500  0.892000  1.0
  C  C42  1  0.652500  0.892000  0.143000  1.0
  C  C43  1  0.227750  0.677550  0.444350  1.0
  C  C44  1  0.444350  0.227750  0.677550  1.0
  C  C45  1  0.677550  0.444350  0.227750  1.0
  C  C46  1  0.944350  0.177550  0.727750  1.0
  C  C47  1  0.177550  0.727750  0.944350  1.0
  C  C48  1  0.727750  0.944350  0.177550  1.0
  C  C49  1  0.369550  0.618850  0.438860  1.0
  C  C50  1  0.438860  0.369550  0.618850  1.0
  C  C51  1  0.618850  0.438860  0.369550  1.0
  C  C52  1  0.938860  0.118850  0.869550  1.0
  C  C53  1  0.118850  0.869550  0.938860  1.0
  C  C54  1  0.869550  0.938860  0.118850  1.0
  C  C55  1  0.424600  0.544600  0.459800  1.0
  C  C56  1  0.459800  0.424600  0.544600  1.0
  C  C57  1  0.544600  0.459800  0.424600  1.0
  C  C58  1  0.959800  0.044600  0.924600  1.0
  C  C59  1  0.044600  0.924600  0.959800  1.0
  C  C60  1  0.924600  0.959800  0.044600  1.0
  C  C61  1  0.492460  0.527590  0.407930  1.0
  C  C62  1  0.407930  0.492460  0.527590  1.0
  C  C63  1  0.527590  0.407930  0.492460  1.0
  C  C64  1  0.907930  0.027590  0.992460  1.0
  C  C65  1  0.027590  0.992460  0.907930  1.0
  C  C66  1  0.992460  0.907930  0.027590  1.0
  C  C67  1  0.252200  0.865300  0.107500  1.0
  C  C68  1  0.107500  0.252200  0.865300  1.0
  C  C69  1  0.865300  0.107500  0.252200  1.0
  C  C70  1  0.607500  0.365300  0.752200  1.0
  C  C71  1  0.365300  0.752200  0.607500  1.0
  C  C72  1  0.752200  0.607500  0.365300  1.0
  C  C73  1  0.314500  0.889500  0.051000  1.0
  C  C74  1  0.051000  0.314500  0.889500  1.0
  C  C75  1  0.889500  0.051000  0.314500  1.0
  C  C76  1  0.551000  0.389500  0.814500  1.0
  C  C77  1  0.389500  0.814500  0.551000  1.0
  C  C78  1  0.814500  0.551000  0.389500  1.0
  C  C79  1  0.385900  0.842300  0.044800  1.0
  C  C80  1  0.044800  0.385900  0.842300  1.0
  C  C81  1  0.842300  0.044800  0.385900  1.0
  C  C82  1  0.544800  0.342300  0.885900  1.0
  C  C83  1  0.342300  0.885900  0.544800  1.0
  C  C84  1  0.885900  0.544800  0.342300  1.0
  C  C85  1  0.393400  0.769900  0.093800  1.0
  C  C86  1  0.093800  0.393400  0.769900  1.0
  C  C87  1  0.769900  0.093800  0.393400  1.0
  C  C88  1  0.593800  0.269900  0.893400  1.0
  C  C89  1  0.269900  0.893400  0.593800  1.0
  C  C90  1  0.893400  0.593800  0.269900  1.0
  C  C91  1  0.329450  0.748650  0.148250  1.0
  C  C92  1  0.148250  0.329450  0.748650  1.0
  C  C93  1  0.748650  0.148250  0.329450  1.0
  C  C94  1  0.648250  0.248650  0.829450  1.0
  C  C95  1  0.248650  0.829450  0.648250  1.0
  C  C96  1  0.829450  0.648250  0.248650  1.0
  C  C97  1  0.336380  0.669780  0.199580  1.0
  C  C98  1  0.199580  0.336380  0.669780  1.0
  C  C99  1  0.669780  0.199580  0.336380  1.0
  C  C100  1  0.699580  0.169780  0.836380  1.0
  C  C101  1  0.169780  0.836380  0.699580  1.0
  C  C102  1  0.836380  0.699580  0.169780  1.0
  C  C103  1  0.308800  0.593100  0.144900  1.0
  C  C104  1  0.144900  0.308800  0.593100  1.0
  C  C105  1  0.593100  0.144900  0.308800  1.0
  C  C106  1  0.644900  0.093100  0.808800  1.0
  C  C107  1  0.093100  0.808800  0.644900  1.0
  C  C108  1  0.808800  0.644900  0.093100  1.0
  C  C109  1  0.370050  0.475450  0.222150  1.0
  C  C110  1  0.222150  0.370050  0.475450  1.0
  C  C111  1  0.475450  0.222150  0.370050  1.0
  C  C112  1  0.722150  0.975450  0.870050  1.0
  C  C113  1  0.975450  0.870050  0.722150  1.0
  C  C114  1  0.870050  0.722150  0.975450  1.0
  C  C115  1  0.354820  0.407620  0.285020  1.0
  C  C116  1  0.285020  0.354820  0.407620  1.0
  C  C117  1  0.407620  0.285020  0.354820  1.0
  C  C118  1  0.785020  0.907620  0.854820  1.0
  C  C119  1  0.907620  0.854820  0.785020  1.0
  C  C120  1  0.854820  0.785020  0.907620  1.0
  C  C121  1  0.413440  0.343740  0.290640  1.0
  C  C122  1  0.290640  0.413440  0.343740  1.0
  C  C123  1  0.343740  0.290640  0.413440  1.0
  C  C124  1  0.790640  0.843740  0.913440  1.0
  C  C125  1  0.843740  0.913440  0.790640  1.0
  C  C126  1  0.913440  0.790640  0.843740  1.0
  Cl  Cl127  1  0.099790  0.675510  0.150630  1.0
  Cl  Cl128  1  0.150630  0.099790  0.675510  1.0
  Cl  Cl129  1  0.675510  0.150630  0.099790  1.0
  Cl  Cl130  1  0.650630  0.175510  0.599790  1.0
  Cl  Cl131  1  0.175510  0.599790  0.650630  1.0
  Cl  Cl132  1  0.599790  0.650630  0.175510  1.0
  Cl  Cl133  1  0.220900  0.878290  0.324890  1.0
  Cl  Cl134  1  0.324890  0.220900  0.878290  1.0
  Cl  Cl135  1  0.878290  0.324890  0.220900  1.0
  Cl  Cl136  1  0.824890  0.378290  0.720900  1.0
  Cl  Cl137  1  0.378290  0.720900  0.824890  1.0
  Cl  Cl138  1  0.720900  0.824890  0.378290  1.0
  H  H139  1  0.094000  0.449400  0.247800  1
  H  H140  1  0.247800  0.094000  0.449400  1
  H  H141  1  0.449400  0.247800  0.094000  1
  H  H142  1  0.747800  0.949400  0.594000  1
  H  H143  1  0.949400  0.594000  0.747800  1
  H  H144  1  0.594000  0.747800  0.949400  1
  H  H145  1  0.158000  0.410300  0.205800  1
  H  H146  1  0.205800  0.158000  0.410300  1
  H  H147  1  0.410300  0.205800  0.158000  1
  H  H148  1  0.705800  0.910300  0.658000  1
  H  H149  1  0.910300  0.658000  0.705800  1
  H  H150  1  0.658000  0.705800  0.910300  1
  H  H151  1  0.576200  0.992000  0.978100  1
  H  H152  1  0.978100  0.576200  0.992000  1
  H  H153  1  0.992000  0.978100  0.576200  1
  H  H154  1  0.478100  0.492000  0.076200  1
  H  H155  1  0.492000  0.076200  0.478100  1
  H  H156  1  0.076200  0.478100  0.492000  1
  H  H157  1  0.516900  0.101400  0.002700  1
  H  H158  1  0.002700  0.516900  0.101400  1
  H  H159  1  0.101400  0.002700  0.516900  1
  H  H160  1  0.502700  0.601400  0.016900  1
  H  H161  1  0.601400  0.016900  0.502700  1
  H  H162  1  0.016900  0.502700  0.601400  1
  H  H163  1  0.432300  0.048100  0.019100  1
  H  H164  1  0.019100  0.432300  0.048100  1
  H  H165  1  0.048100  0.019100  0.432300  1
  H  H166  1  0.519100  0.548100  0.932300  1
  H  H167  1  0.548100  0.932300  0.519100  1
  H  H168  1  0.932300  0.519100  0.548100  1
  H  H169  1  0.457200  0.072100  0.924900  1
  H  H170  1  0.924900  0.457200  0.072100  1
  H  H171  1  0.072100  0.924900  0.457200  1
  H  H172  1  0.424900  0.572100  0.957200  1
  H  H173  1  0.572100  0.957200  0.424900  1
  H  H174  1  0.957200  0.424900  0.572100  1
  H  H175  1  0.169200  0.309500  0.091700  1
  H  H176  1  0.091700  0.169200  0.309500  1
  H  H177  1  0.309500  0.091700  0.169200  1
  H  H178  1  0.591700  0.809500  0.669200  1
  H  H179  1  0.809500  0.669200  0.591700  1
  H  H180  1  0.669200  0.591700  0.809500  1
  H  H181  1  0.209600  0.234400  0.101800  1
  H  H182  1  0.101800  0.209600  0.234400  1
  H  H183  1  0.234400  0.101800  0.209600  1
  H  H184  1  0.601800  0.734400  0.709600  1
  H  H185  1  0.734400  0.709600  0.601800  1
  H  H186  1  0.709600  0.601800  0.734400  1
  H  H187  1  0.203900  0.150600  0.075200  1
  H  H188  1  0.075200  0.203900  0.150600  1
  H  H189  1  0.150600  0.075200  0.203900  1
  H  H190  1  0.575200  0.650600  0.703900  1
  H  H191  1  0.650600  0.703900  0.575200  1
  H  H192  1  0.703900  0.575200  0.650600  1
  H  H193  1  0.221700  0.084400  0.021900  1
  H  H194  1  0.021900  0.221700  0.084400  1
  H  H195  1  0.084400  0.021900  0.221700  1
  H  H196  1  0.521900  0.584400  0.721700  1
  H  H197  1  0.584400  0.721700  0.521900  1
  H  H198  1  0.721700  0.521900  0.584400  1
  H  H199  1  0.272000  0.566000  0.485400  1.0
  H  H200  1  0.485400  0.272000  0.566000  1.0
  H  H201  1  0.566000  0.485400  0.272000  1.0
  H  H202  1  0.985400  0.066000  0.772000  1.0
  H  H203  1  0.066000  0.772000  0.985400  1.0
  H  H204  1  0.772000  0.985400  0.066000  1.0
  H  H205  1  0.251700  0.498600  0.211300  1.0
  H  H206  1  0.211300  0.251700  0.498600  1.0
  H  H207  1  0.498600  0.211300  0.251700  1.0
  H  H208  1  0.711300  0.998600  0.751700  1.0
  H  H209  1  0.998600  0.751700  0.711300  1.0
  H  H210  1  0.751700  0.711300  0.998600  1.0
  H  H211  1  0.002900  0.841400  0.266400  1.0
  H  H212  1  0.266400  0.002900  0.841400  1.0
  H  H213  1  0.841400  0.266400  0.002900  1.0
  H  H214  1  0.766400  0.341400  0.502900  1.0
  H  H215  1  0.341400  0.502900  0.766400  1.0
  H  H216  1  0.502900  0.766400  0.341400  1.0
  H  H217  1  0.895600  0.840100  0.364800  1.0
  H  H218  1  0.364800  0.895600  0.840100  1.0
  H  H219  1  0.840100  0.364800  0.895600  1.0
  H  H220  1  0.864800  0.340100  0.395600  1.0
  H  H221  1  0.340100  0.395600  0.864800  1.0
  H  H222  1  0.395600  0.864800  0.340100  1.0
  H  H223  1  0.903500  0.751200  0.477600  1.0
  H  H224  1  0.477600  0.903500  0.751200  1.0
  H  H225  1  0.751200  0.477600  0.903500  1.0
  H  H226  1  0.977600  0.251200  0.403500  1.0
  H  H227  1  0.251200  0.403500  0.977600  1.0
  H  H228  1  0.403500  0.977600  0.251200  1.0
  H  H229  1  0.019300  0.661600  0.492200  1.0
  H  H230  1  0.492200  0.019300  0.661600  1.0
  H  H231  1  0.661600  0.492200  0.019300  1.0
  H  H232  1  0.992200  0.161600  0.519300  1.0
  H  H233  1  0.161600  0.519300  0.992200  1.0
  H  H234  1  0.519300  0.992200  0.161600  1.0
  H  H235  1  0.171700  0.630400  0.334100  1.0
  H  H236  1  0.334100  0.171700  0.630400  1.0
  H  H237  1  0.630400  0.334100  0.171700  1.0
  H  H238  1  0.834100  0.130400  0.671700  1.0
  H  H239  1  0.130400  0.671700  0.834100  1.0
  H  H240  1  0.671700  0.834100  0.130400  1.0
  H  H241  1  0.133300  0.589200  0.416700  1.0
  H  H242  1  0.416700  0.133300  0.589200  1.0
  H  H243  1  0.589200  0.416700  0.133300  1.0
  H  H244  1  0.916700  0.089200  0.633300  1.0
  H  H245  1  0.089200  0.633300  0.916700  1.0
  H  H246  1  0.633300  0.916700  0.089200  1.0
  H  H247  1  0.255100  0.724300  0.413900  1.0
  H  H248  1  0.413900  0.255100  0.724300  1.0
  H  H249  1  0.724300  0.413900  0.255100  1.0
  H  H250  1  0.913900  0.224300  0.755100  1.0
  H  H251  1  0.224300  0.755100  0.913900  1.0
  H  H252  1  0.755100  0.913900  0.224300  1.0
  H  H253  1  0.207500  0.700200  0.498800  1.0
  H  H254  1  0.498800  0.207500  0.700200  1.0
  H  H255  1  0.700200  0.498800  0.207500  1.0
  H  H256  1  0.998800  0.200200  0.707500  1.0
  H  H257  1  0.200200  0.707500  0.998800  1.0
  H  H258  1  0.707500  0.998800  0.200200  1.0
  H  H259  1  0.503300  0.562400  0.360900  1.0
  H  H260  1  0.360900  0.503300  0.562400  1.0
  H  H261  1  0.562400  0.360900  0.503300  1.0
  H  H262  1  0.860900  0.062400  0.003300  1.0
  H  H263  1  0.062400  0.003300  0.860900  1.0
  H  H264  1  0.003300  0.860900  0.062400  1.0
  H  H265  1  0.202700  0.898000  0.112300  1.0
  H  H266  1  0.112300  0.202700  0.898000  1.0
  H  H267  1  0.898000  0.112300  0.202700  1.0
  H  H268  1  0.612300  0.398000  0.702700  1.0
  H  H269  1  0.398000  0.702700  0.612300  1.0
  H  H270  1  0.702700  0.612300  0.398000  1.0
  H  H271  1  0.307400  0.938100  0.017300  1.0
  H  H272  1  0.017300  0.307400  0.938100  1.0
  H  H273  1  0.938100  0.017300  0.307400  1.0
  H  H274  1  0.517300  0.438100  0.807400  1.0
  H  H275  1  0.438100  0.807400  0.517300  1.0
  H  H276  1  0.807400  0.517300  0.438100  1.0
  H  H277  1  0.429700  0.858300  0.007800  1.0
  H  H278  1  0.007800  0.429700  0.858300  1.0
  H  H279  1  0.858300  0.007800  0.429700  1.0
  H  H280  1  0.507800  0.358300  0.929700  1.0
  H  H281  1  0.358300  0.929700  0.507800  1.0
  H  H282  1  0.929700  0.507800  0.358300  1.0
  H  H283  1  0.441800  0.735700  0.089500  1.0
  H  H284  1  0.089500  0.441800  0.735700  1.0
  H  H285  1  0.735700  0.089500  0.441800  1.0
  H  H286  1  0.589500  0.235700  0.941800  1.0
  H  H287  1  0.235700  0.941800  0.589500  1.0
  H  H288  1  0.941800  0.589500  0.235700  1.0
  H  H289  1  0.300000  0.674200  0.249600  1.0
  H  H290  1  0.249600  0.300000  0.674200  1.0
  H  H291  1  0.674200  0.249600  0.300000  1.0
  H  H292  1  0.749600  0.174200  0.800000  1.0
  H  H293  1  0.174200  0.800000  0.749600  1.0
  H  H294  1  0.800000  0.749600  0.174200  1.0
  H  H295  1  0.395400  0.663000  0.219400  1.0
  H  H296  1  0.219400  0.395400  0.663000  1.0
  H  H297  1  0.663000  0.219400  0.395400  1.0
  H  H298  1  0.719400  0.163000  0.895400  1.0
  H  H299  1  0.163000  0.895400  0.719400  1.0
  H  H300  1  0.895400  0.719400  0.163000  1.0
  H  H301  1  0.253600  0.604200  0.117600  1.0
  H  H302  1  0.117600  0.253600  0.604200  1.0
  H  H303  1  0.604200  0.117600  0.253600  1.0
  H  H304  1  0.617600  0.104200  0.753600  1.0
  H  H305  1  0.104200  0.753600  0.617600  1.0
  H  H306  1  0.753600  0.617600  0.104200  1.0
  H  H307  1  0.350500  0.583800  0.099900  1.0
  H  H308  1  0.099900  0.350500  0.583800  1.0
  H  H309  1  0.583800  0.099900  0.350500  1.0
  H  H310  1  0.599900  0.083800  0.850500  1.0
  H  H311  1  0.083800  0.850500  0.599900  1.0
  H  H312  1  0.850500  0.599900  0.083800  1.0
  H  H313  1  0.457400  0.340100  0.250800  1.0
  H  H314  1  0.250800  0.457400  0.340100  1.0
  H  H315  1  0.340100  0.250800  0.457400  1.0
  H  H316  1  0.750800  0.840100  0.957400  1.0
  H  H317  1  0.840100  0.957400  0.750800  1.0
  H  H318  1  0.957400  0.750800  0.840100  1.0
  N  N319  1  0.074870  0.755470  0.323170  1.0
  N  N320  1  0.323170  0.074870  0.755470  1.0
  N  N321  1  0.755470  0.323170  0.074870  1.0
  N  N322  1  0.823170  0.255470  0.574870  1.0
  N  N323  1  0.255470  0.574870  0.823170  1.0
  N  N324  1  0.574870  0.823170  0.255470  1.0
  N  N325  1  0.289050  0.612330  0.460270  1.0
  N  N326  1  0.460270  0.289050  0.612330  1.0
  N  N327  1  0.612330  0.460270  0.289050  1.0
  N  N328  1  0.960270  0.112330  0.789050  1.0
  N  N329  1  0.112330  0.789050  0.960270  1.0
  N  N330  1  0.789050  0.960270  0.112330  1.0
  N  N331  1  0.260990  0.795990  0.155690  1.0
  N  N332  1  0.155690  0.260990  0.795990  1.0
  N  N333  1  0.795990  0.155690  0.260990  1.0
  N  N334  1  0.655690  0.295990  0.760990  1.0
  N  N335  1  0.295990  0.760990  0.655690  1.0
  N  N336  1  0.760990  0.655690  0.295990  1.0
  N  N337  1  0.301970  0.517070  0.196770  1.0
  N  N338  1  0.196770  0.301970  0.517070  1.0
  N  N339  1  0.517070  0.196770  0.301970  1.0
  N  N340  1  0.696770  0.017070  0.801970  1.0
  N  N341  1  0.017070  0.801970  0.696770  1.0
  N  N342  1  0.801970  0.696770  0.017070  1.0
  O  O343  1  0.136500  0.457100  0.217700  1
  O  O344  1  0.217700  0.136500  0.457100  1
  O  O345  1  0.457100  0.217700  0.136500  1
  O  O346  1  0.717700  0.957100  0.636500  1
  O  O347  1  0.957100  0.636500  0.717700  1
  O  O348  1  0.636500  0.717700  0.957100  1
  O  O349  1  0.524200  0.981500  0.973100  1
  O  O350  1  0.973100  0.524200  0.981500  1
  O  O351  1  0.981500  0.973100  0.524200  1
  O  O352  1  0.473100  0.481500  0.024200  1
  O  O353  1  0.481500  0.024200  0.473100  1
  O  O354  1  0.024200  0.473100  0.481500  1
  O  O355  1  0.206600  0.284600  0.119400  1
  O  O356  1  0.119400  0.206600  0.284600  1
  O  O357  1  0.284600  0.119400  0.206600  1
  O  O358  1  0.619400  0.784600  0.706600  1
  O  O359  1  0.784600  0.706600  0.619400  1
  O  O360  1  0.706600  0.619400  0.784600  1
  O  O361  1  0.183000  0.109800  0.046900  1
  O  O362  1  0.046900  0.183000  0.109800  1
  O  O363  1  0.109800  0.046900  0.183000  1
  O  O364  1  0.546900  0.609800  0.683000  1
  O  O365  1  0.609800  0.683000  0.546900  1
  O  O366  1  0.683000  0.546900  0.609800  1
  O  O367  1  0.400510  0.680060  0.403360  1.0
  O  O368  1  0.403360  0.400510  0.680060  1.0
  O  O369  1  0.680060  0.403360  0.400510  1.0
  O  O370  1  0.903360  0.180060  0.900510  1.0
  O  O371  1  0.180060  0.900510  0.903360  1.0
  O  O372  1  0.900510  0.903360  0.180060  1.0
  O  O373  1  0.442040  0.491340  0.197180  1.0
  O  O374  1  0.197180  0.442040  0.491340  1.0
  O  O375  1  0.491340  0.197180  0.442040  1.0
  O  O376  1  0.697180  0.991340  0.942040  1.0
  O  O377  1  0.991340  0.942040  0.697180  1.0
  O  O378  1  0.942040  0.697180  0.991340  1.0
  Pd  Pd379  1  0.166603  0.772908  0.238629  1.0
  Pd  Pd380  1  0.238629  0.166603  0.772908  1.0
  Pd  Pd381  1  0.772908  0.238629  0.166603  1.0
  Pd  Pd382  1  0.738629  0.272908  0.666603  1.0
  Pd  Pd383  1  0.272908  0.666603  0.738629  1.0
  Pd  Pd384  1  0.666603  0.738629  0.272908  1.0
