# generated using pymatgen
data_H41Pd2C41N7Cl4O5
_symmetry_space_group_name_H-M   'P 1'
_cell_length_a   16.78245693
_cell_length_b   16.78245693
_cell_length_c   16.78245693
_cell_angle_alpha   103.13624642
_cell_angle_beta   103.13624642
_cell_angle_gamma   103.13624642
_symmetry_Int_Tables_number   1
_chemical_formula_structural   H41Pd2C41N7Cl4O5
_chemical_formula_sum   'H123 Pd6 C123 N21 Cl12 O15'
_cell_volume   4284.39336716
_cell_formula_units_Z   3
loop_
 _symmetry_equiv_pos_site_id
 _symmetry_equiv_pos_as_xyz
  1  'x, y, z'
loop_
 _atom_site_type_symbol
 _atom_site_label
 _atom_site_symmetry_multiplicity
 _atom_site_fract_x
 _atom_site_fract_y
 _atom_site_fract_z
 _atom_site_occupancy
  C  C1  1  0.516500  0.660600  0.999300  1.0
  C  C2  1  0.999300  0.516500  0.660600  1.0
  C  C3  1  0.660600  0.999300  0.516500  1.0
  C  C4  1  0.477400  0.722800  0.993300  1.0
  C  C5  1  0.993300  0.477400  0.722800  1.0
  C  C6  1  0.722800  0.993300  0.477400  1.0
  C  C7  1  0.422600  0.742100  0.038400  1.0
  C  C8  1  0.038400  0.422600  0.742100  1.0
  C  C9  1  0.742100  0.038400  0.422600  1.0
  C  C10  1  0.406300  0.693600  0.091500  1.0
  C  C11  1  0.091500  0.406300  0.693600  1.0
  C  C12  1  0.693600  0.091500  0.406300  1.0
  C  C13  1  0.445900  0.631800  0.097800  1.0
  C  C14  1  0.097800  0.445900  0.631800  1.0
  C  C15  1  0.631800  0.097800  0.445900  1.0
  C  C16  1  0.431400  0.575700  0.160300  1.0
  C  C17  1  0.160300  0.431400  0.575700  1.0
  C  C18  1  0.575700  0.160300  0.431400  1.0
  C  C19  1  0.351800  0.506700  0.130400  1.0
  C  C20  1  0.130400  0.351800  0.506700  1.0
  C  C21  1  0.506700  0.130400  0.351800  1.0
  C  C22  1  0.321700  0.372100  0.162500  1.0
  C  C23  1  0.162500  0.321700  0.372100  1.0
  C  C24  1  0.372100  0.162500  0.321700  1.0
  C  C25  1  0.308100  0.334600  0.233400  1.0
  C  C26  1  0.233400  0.308100  0.334600  1.0
  C  C27  1  0.334600  0.233400  0.308100  1.0
  C  C28  1  0.245100  0.352200  0.279100  1.0
  C  C29  1  0.279100  0.245100  0.352200  1.0
  C  C30  1  0.352200  0.279100  0.245100  1.0
  C  C31  1  0.696400  0.452600  0.008200  1.0
  C  C32  1  0.008200  0.696400  0.452600  1.0
  C  C33  1  0.452600  0.008200  0.696400  1.0
  C  C34  1  0.746400  0.399100  0.001800  1.0
  C  C35  1  0.001800  0.746400  0.399100  1.0
  C  C36  1  0.399100  0.001800  0.746400  1.0
  C  C37  1  0.745900  0.338900  0.044800  1.0
  C  C38  1  0.044800  0.745900  0.338900  1.0
  C  C39  1  0.338900  0.044800  0.745900  1.0
  C  C40  1  0.693200  0.336500  0.096000  1.0
  C  C41  1  0.096000  0.693200  0.336500  1.0
  C  C42  1  0.336500  0.096000  0.693200  1.0
  C  C43  1  0.645100  0.391600  0.104300  1.0
  C  C44  1  0.104300  0.645100  0.391600  1.0
  C  C45  1  0.391600  0.104300  0.645100  1.0
  C  C46  1  0.596300  0.390700  0.166600  1.0
  C  C47  1  0.166600  0.596300  0.390700  1.0
  C  C48  1  0.390700  0.166600  0.596300  1.0
  C  C49  1  0.617800  0.471000  0.233100  1.0
  C  C50  1  0.233100  0.617800  0.471000  1.0
  C  C51  1  0.471000  0.233100  0.617800  1.0
  C  C52  1  0.568700  0.416300  0.344700  1.0
  C  C53  1  0.344700  0.568700  0.416300  1.0
  C  C54  1  0.416300  0.344700  0.568700  1.0
  C  C55  1  0.513300  0.436800  0.404500  1.0
  C  C56  1  0.404500  0.513300  0.436800  1.0
  C  C57  1  0.436800  0.404500  0.513300  1.0
  C  C58  1  0.503900  0.397000  0.471400  1.0
  C  C59  1  0.471400  0.503900  0.397000  1.0
  C  C60  1  0.397000  0.471400  0.503900  1.0
  C  C61  1  0.605900  0.105200  0.941100  1.0
  C  C62  1  0.941100  0.605900  0.105200  1.0
  C  C63  1  0.105200  0.941100  0.605900  1.0
  C  C64  1  0.620000  0.147400  0.882700  1.0
  C  C65  1  0.882700  0.620000  0.147400  1.0
  C  C66  1  0.147400  0.882700  0.620000  1.0
  C  C67  1  0.577700  0.205100  0.865500  1.0
  C  C68  1  0.865500  0.577700  0.205100  1.0
  C  C69  1  0.205100  0.865500  0.577700  1.0
  C  C70  1  0.522100  0.219100  0.911600  1.0
  C  C71  1  0.911600  0.522100  0.219100  1.0
  C  C72  1  0.219100  0.911600  0.522100  1.0
  C  C73  1  0.510500  0.179300  0.972300  1.0
  C  C74  1  0.972300  0.510500  0.179300  1.0
  C  C75  1  0.179300  0.972300  0.510500  1.0
  C  C76  1  0.442300  0.192600  0.018500  1.0
  C  C77  1  0.018500  0.442300  0.192600  1.0
  C  C78  1  0.192600  0.018500  0.442300  1.0
  C  C79  1  0.361400  0.131900  0.975900  1.0
  C  C80  1  0.975900  0.361400  0.131900  1.0
  C  C81  1  0.131900  0.975900  0.361400  1.0
  C  C82  1  0.257300  0.098100  0.044800  1.0
  C  C83  1  0.044800  0.257300  0.098100  1.0
  C  C84  1  0.098100  0.044800  0.257300  1.0
  C  C85  1  0.192200  0.115000  0.089400  1.0
  C  C86  1  0.089400  0.192200  0.115000  1.0
  C  C87  1  0.115000  0.089400  0.192200  1.0
  C  C88  1  0.176100  0.080200  0.152600  1.0
  C  C89  1  0.152600  0.176100  0.080200  1.0
  C  C90  1  0.080200  0.152600  0.176100  1.0
  C  C91  1  0.543900  0.955300  0.189900  1.0
  C  C92  1  0.189900  0.543900  0.955300  1.0
  C  C93  1  0.955300  0.189900  0.543900  1.0
  C  C94  1  0.519800  0.909000  0.242000  1.0
  C  C95  1  0.242000  0.519800  0.909000  1.0
  C  C96  1  0.909000  0.242000  0.519800  1.0
  C  C97  1  0.436800  0.886500  0.243700  1.0
  C  C98  1  0.243700  0.436800  0.886500  1.0
  C  C99  1  0.886500  0.243700  0.436800  1.0
  C  C100  1  0.381100  0.913900  0.191000  1.0
  C  C101  1  0.191000  0.381100  0.913900  1.0
  C  C102  1  0.913900  0.191000  0.381100  1.0
  C  C103  1  0.404600  0.957300  0.136700  1.0
  C  C104  1  0.136700  0.404600  0.957300  1.0
  C  C105  1  0.957300  0.136700  0.404600  1.0
  C  C106  1  0.289300  0.891200  0.186700  1.0
  C  C107  1  0.186700  0.289300  0.891200  1.0
  C  C108  1  0.891200  0.186700  0.289300  1.0
  C  C109  1  0.234500  0.810900  0.117500  1.0
  C  C110  1  0.117500  0.234500  0.810900  1.0
  C  C111  1  0.810900  0.117500  0.234500  1.0
  C  C112  1  0.141800  0.793900  0.108100  1.0
  C  C113  1  0.108100  0.141800  0.793900  1.0
  C  C114  1  0.793900  0.108100  0.141800  1.0
  C  C115  1  0.027100  0.858600  0.063000  1.0
  C  C116  1  0.063000  0.027100  0.858600  1.0
  C  C117  1  0.858600  0.063000  0.027100  1.0
  C  C118  1  0.000500  0.918200  0.018300  1.0
  C  C119  1  0.018300  0.000500  0.918200  1.0
  C  C120  1  0.918200  0.018300  0.000500  1.0
  C  C121  1  0.037600  0.945000  0.957100  1.0
  C  C122  1  0.957100  0.037600  0.945000  1.0
  C  C123  1  0.945000  0.957100  0.037600  1.0
  Cl  Cl124  1  0.680100  0.639300  0.156100  1.0
  Cl  Cl125  1  0.156100  0.680100  0.639300  1.0
  Cl  Cl126  1  0.639300  0.156100  0.680100  1.0
  Cl  Cl127  1  0.459600  0.420200  0.959700  1.0
  Cl  Cl128  1  0.959700  0.459600  0.420200  1.0
  Cl  Cl129  1  0.420200  0.959700  0.459600  1.0
  Cl  Cl130  1  0.452200  0.930940  0.943260  1.0
  Cl  Cl131  1  0.943260  0.452200  0.930940  1.0
  Cl  Cl132  1  0.930940  0.943260  0.452200  1.0
  Cl  Cl133  1  0.603000  0.158610  0.180090  1.0
  Cl  Cl134  1  0.180090  0.603000  0.158610  1.0
  Cl  Cl135  1  0.158610  0.180090  0.603000  1.0
  H  H136  1  0.330300  0.486700  0.228000  1.0
  H  H137  1  0.228000  0.330300  0.486700  1.0
  H  H138  1  0.486700  0.228000  0.330300  1.0
  H  H139  1  0.612300  0.528800  0.353600  1.0
  H  H140  1  0.353600  0.612300  0.528800  1.0
  H  H141  1  0.528800  0.353600  0.612300  1.0
  H  H142  1  0.554500  0.649800  0.966700  1.0
  H  H143  1  0.966700  0.554500  0.649800  1.0
  H  H144  1  0.649800  0.966700  0.554500  1.0
  H  H145  1  0.489100  0.754900  0.955200  1.0
  H  H146  1  0.955200  0.489100  0.754900  1.0
  H  H147  1  0.754900  0.955200  0.489100  1.0
  H  H148  1  0.397300  0.786600  0.033300  1.0
  H  H149  1  0.033300  0.397300  0.786600  1.0
  H  H150  1  0.786600  0.033300  0.397300  1.0
  H  H151  1  0.367700  0.702800  0.123600  1.0
  H  H152  1  0.123600  0.367700  0.702800  1.0
  H  H153  1  0.702800  0.123600  0.367700  1.0
  H  H154  1  0.479400  0.550600  0.171000  1.0
  H  H155  1  0.171000  0.479400  0.550600  1.0
  H  H156  1  0.550600  0.171000  0.479400  1.0
  H  H157  1  0.433800  0.613900  0.215700  1.0
  H  H158  1  0.215700  0.433800  0.613900  1.0
  H  H159  1  0.613900  0.215700  0.433800  1.0
  H  H160  1  0.304400  0.532300  0.117700  1.0
  H  H161  1  0.117700  0.304400  0.532300  1.0
  H  H162  1  0.532300  0.117700  0.304400  1.0
  H  H163  1  0.350700  0.468500  0.075500  1.0
  H  H164  1  0.075500  0.350700  0.468500  1.0
  H  H165  1  0.468500  0.075500  0.350700  1.0
  H  H166  1  0.215000  0.392500  0.269500  1.0
  H  H167  1  0.269500  0.215000  0.392500  1.0
  H  H168  1  0.392500  0.269500  0.215000  1.0
  H  H169  1  0.697800  0.493200  0.977000  1.0
  H  H170  1  0.977000  0.697800  0.493200  1.0
  H  H171  1  0.493200  0.977000  0.697800  1.0
  H  H172  1  0.782900  0.403800  0.966300  1.0
  H  H173  1  0.966300  0.782900  0.403800  1.0
  H  H174  1  0.403800  0.966300  0.782900  1.0
  H  H175  1  0.780100  0.301200  0.039300  1.0
  H  H176  1  0.039300  0.780100  0.301200  1.0
  H  H177  1  0.301200  0.039300  0.780100  1.0
  H  H178  1  0.690100  0.295300  0.126800  1.0
  H  H179  1  0.126800  0.690100  0.295300  1.0
  H  H180  1  0.295300  0.126800  0.690100  1.0
  H  H181  1  0.534600  0.374400  0.135400  1.0
  H  H182  1  0.135400  0.534600  0.374400  1.0
  H  H183  1  0.374400  0.135400  0.534600  1.0
  H  H184  1  0.605200  0.345900  0.194100  1.0
  H  H185  1  0.194100  0.605200  0.345900  1.0
  H  H186  1  0.345900  0.194100  0.605200  1.0
  H  H187  1  0.589000  0.508100  0.207100  1.0
  H  H188  1  0.207100  0.589000  0.508100  1.0
  H  H189  1  0.508100  0.207100  0.589000  1.0
  H  H190  1  0.680100  0.497900  0.246200  1.0
  H  H191  1  0.246200  0.680100  0.497900  1.0
  H  H192  1  0.497900  0.246200  0.680100  1.0
  H  H193  1  0.541800  0.365500  0.488400  1.0
  H  H194  1  0.488400  0.541800  0.365500  1.0
  H  H195  1  0.365500  0.488400  0.541800  1.0
  H  H196  1  0.269100  0.196800  0.010200  1.0
  H  H197  1  0.010200  0.269100  0.196800  1.0
  H  H198  1  0.196800  0.010200  0.269100  1.0
  H  H199  1  0.635000  0.064300  0.950500  1.0
  H  H200  1  0.950500  0.635000  0.064300  1.0
  H  H201  1  0.064300  0.950500  0.635000  1.0
  H  H202  1  0.660300  0.136500  0.853300  1.0
  H  H203  1  0.853300  0.660300  0.136500  1.0
  H  H204  1  0.136500  0.853300  0.660300  1.0
  H  H205  1  0.586300  0.233600  0.823900  1.0
  H  H206  1  0.823900  0.586300  0.233600  1.0
  H  H207  1  0.233600  0.823900  0.586300  1.0
  H  H208  1  0.490700  0.257900  0.901200  1.0
  H  H209  1  0.901200  0.490700  0.257900  1.0
  H  H210  1  0.257900  0.901200  0.490700  1.0
  H  H211  1  0.461900  0.188900  0.077300  1.0
  H  H212  1  0.077300  0.461900  0.188900  1.0
  H  H213  1  0.188900  0.077300  0.461900  1.0
  H  H214  1  0.436700  0.250700  0.022700  1.0
  H  H215  1  0.022700  0.436700  0.250700  1.0
  H  H216  1  0.250700  0.022700  0.436700  1.0
  H  H217  1  0.365400  0.074900  0.979700  1.0
  H  H218  1  0.979700  0.365400  0.074900  1.0
  H  H219  1  0.074900  0.979700  0.365400  1.0
  H  H220  1  0.346300  0.129100  0.914600  1.0
  H  H221  1  0.914600  0.346300  0.129100  1.0
  H  H222  1  0.129100  0.914600  0.346300  1.0
  H  H223  1  0.210800  0.046400  0.170300  1.0
  H  H224  1  0.170300  0.210800  0.046400  1.0
  H  H225  1  0.046400  0.170300  0.210800  1.0
  H  H226  1  0.602200  0.971400  0.190800  1.0
  H  H227  1  0.190800  0.602200  0.971400  1.0
  H  H228  1  0.971400  0.190800  0.602200  1.0
  H  H229  1  0.561400  0.892000  0.277700  1.0
  H  H230  1  0.277700  0.561400  0.892000  1.0
  H  H231  1  0.892000  0.277700  0.561400  1.0
  H  H232  1  0.419000  0.853900  0.279400  1.0
  H  H233  1  0.279400  0.419000  0.853900  1.0
  H  H234  1  0.853900  0.279400  0.419000  1.0
  H  H235  1  0.363400  0.972700  0.098900  1.0
  H  H236  1  0.098900  0.363400  0.972700  1.0
  H  H237  1  0.972700  0.098900  0.363400  1.0
  H  H238  1  0.267100  0.939300  0.177600  1.0
  H  H239  1  0.177600  0.267100  0.939300  1.0
  H  H240  1  0.939300  0.177600  0.267100  1.0
  H  H241  1  0.284100  0.884300  0.242600  1.0
  H  H242  1  0.242600  0.284100  0.884300  1.0
  H  H243  1  0.884300  0.242600  0.284100  1.0
  H  H244  1  0.244300  0.815100  0.062400  1.0
  H  H245  1  0.062400  0.244300  0.815100  1.0
  H  H246  1  0.815100  0.062400  0.244300  1.0
  H  H247  1  0.252500  0.761800  0.130000  1.0
  H  H248  1  0.130000  0.252500  0.761800  1.0
  H  H249  1  0.761800  0.130000  0.252500  1.0
  H  H250  1  0.132700  0.803400  0.165300  1.0
  H  H251  1  0.165300  0.132700  0.803400  1.0
  H  H252  1  0.803400  0.165300  0.132700  1.0
  H  H253  1  0.111700  0.733200  0.075000  1.0
  H  H254  1  0.075000  0.111700  0.733200  1.0
  H  H255  1  0.733200  0.075000  0.111700  1.0
  H  H256  1  0.080200  0.920600  0.943100  1.0
  H  H257  1  0.943100  0.080200  0.920600  1.0
  H  H258  1  0.920600  0.943100  0.080200  1.0
  N  N259  1  0.499600  0.615400  0.052700  1.0
  N  N260  1  0.052700  0.499600  0.615400  1.0
  N  N261  1  0.615400  0.052700  0.499600  1.0
  N  N262  1  0.334600  0.459800  0.178300  1.0
  N  N263  1  0.178300  0.334600  0.459800  1.0
  N  N264  1  0.459800  0.178300  0.334600  1.0
  N  N265  1  0.645600  0.447600  0.058900  1.0
  N  N266  1  0.058900  0.645600  0.447600  1.0
  N  N267  1  0.447600  0.058900  0.645600  1.0
  N  N268  1  0.599600  0.476900  0.318600  1.0
  N  N269  1  0.318600  0.599600  0.476900  1.0
  N  N270  1  0.476900  0.318600  0.599600  1.0
  N  N271  1  0.551300  0.121300  0.985000  1.0
  N  N272  1  0.985000  0.551300  0.121300  1.0
  N  N273  1  0.121300  0.985000  0.551300  1.0
  N  N274  1  0.287100  0.151800  0.012600  1.0
  N  N275  1  0.012600  0.287100  0.151800  1.0
  N  N276  1  0.151800  0.012600  0.287100  1.0
  N  N277  1  0.486600  0.978400  0.137400  1.0
  N  N278  1  0.137400  0.486600  0.978400  1.0
  N  N279  1  0.978400  0.137400  0.486600  1.0
  O  O280  1  0.339400  0.328100  0.102100  1.0
  O  O281  1  0.102100  0.339400  0.328100  1.0
  O  O282  1  0.328100  0.102100  0.339400  1.0
  O  O283  1  0.574900  0.346300  0.338000  1.0
  O  O284  1  0.338000  0.574900  0.346300  1.0
  O  O285  1  0.346300  0.338000  0.574900  1.0
  O  O286  1  0.259500  0.019900  0.029900  1.0
  O  O287  1  0.029900  0.259500  0.019900  1.0
  O  O288  1  0.019900  0.029900  0.259500  1.0
  O  O289  1  0.966300  0.809200  0.085300  1.0
  O  O290  1  0.085300  0.966300  0.809200  1.0
  O  O291  1  0.809200  0.085300  0.966300  1.0
  O  O292  1  0.103000  0.853000  0.061400  1.0
  O  O293  1  0.061400  0.103000  0.853000  1.0
  O  O294  1  0.853000  0.061400  0.103000  1.0
  Pd  Pd295  1  0.569930  0.529710  0.057860  1.0
  Pd  Pd296  1  0.057860  0.569930  0.529710  1.0
  Pd  Pd297  1  0.529710  0.057860  0.569930  1.0
  Pd  Pd298  1  0.522540  0.048620  0.062140  1.0
  Pd  Pd299  1  0.062140  0.522540  0.048620  1.0
  Pd  Pd300  1  0.048620  0.062140  0.522540  1.0
