# generated using pymatgen
data_H41Pd2C41N7Cl4O5
_symmetry_space_group_name_H-M   'P 1'
_cell_length_a   16.77870591
_cell_length_b   16.77870591
_cell_length_c   16.77870591
_cell_angle_alpha   103.03893214
_cell_angle_beta   103.03893214
_cell_angle_gamma   103.03893214
_symmetry_Int_Tables_number   1
_chemical_formula_structural   H41Pd2C41N7Cl4O5
_chemical_formula_sum   'H123 Pd6 C123 N21 Cl12 O15'
_cell_volume   4288.69807230
_cell_formula_units_Z   3
loop_
 _symmetry_equiv_pos_site_id
 _symmetry_equiv_pos_as_xyz
  1  'x, y, z'
loop_
 _atom_site_type_symbol
 _atom_site_label
 _atom_site_symmetry_multiplicity
 _atom_site_fract_x
 _atom_site_fract_y
 _atom_site_fract_z
 _atom_site_occupancy
  C  C1  1  0.715400  0.963600  0.409900  1.0
  C  C2  1  0.409900  0.715400  0.963600  1.0
  C  C3  1  0.963600  0.409900  0.715400  1.0
  C  C4  1  0.661900  0.013700  0.408800  1.0
  C  C5  1  0.408800  0.661900  0.013700  1.0
  C  C6  1  0.013700  0.408800  0.661900  1.0
  C  C7  1  0.669000  0.076000  0.369100  1.0
  C  C8  1  0.369100  0.669000  0.076000  1.0
  C  C9  1  0.076000  0.369100  0.669000  1.0
  C  C10  1  0.718900  0.074900  0.315500  1.0
  C  C11  1  0.315500  0.718900  0.074900  1.0
  C  C12  1  0.074900  0.315500  0.718900  1.0
  C  C13  1  0.771700  0.024200  0.315800  1.0
  C  C14  1  0.315800  0.771700  0.024200  1.0
  C  C15  1  0.024200  0.315800  0.771700  1.0
  C  C16  1  0.830600  0.020500  0.244100  1.0
  C  C17  1  0.244100  0.830600  0.020500  1.0
  C  C18  1  0.020500  0.244100  0.830600  1.0
  C  C19  1  0.775700  0.950000  0.162200  1.0
  C  C20  1  0.162200  0.775700  0.950000  1.0
  C  C21  1  0.950000  0.162200  0.775700  1.0
  C  C22  1  0.847700  0.996600  0.056800  1.0
  C  C23  1  0.056800  0.847700  0.996600  1.0
  C  C24  1  0.996600  0.056800  0.847700  1.0
  C  C25  1  0.906600  0.978400  0.010400  1.0
  C  C26  1  0.010400  0.906600  0.978400  1.0
  C  C27  1  0.978400  0.010400  0.906600  1.0
  C  C28  1  0.915100  0.023000  0.952200  1.0
  C  C29  1  0.952200  0.915100  0.023000  1.0
  C  C30  1  0.023000  0.952200  0.915100  1.0
  C  C31  1  0.903900  0.760000  0.430100  1.0
  C  C32  1  0.430100  0.903900  0.760000  1.0
  C  C33  1  0.760000  0.430100  0.903900  1.0
  C  C34  1  0.951000  0.704000  0.432700  1.0
  C  C35  1  0.432700  0.951000  0.704000  1.0
  C  C36  1  0.704000  0.432700  0.951000  1.0
  C  C37  1  0.006100  0.688300  0.387000  1.0
  C  C38  1  0.387000  0.006100  0.688300  1.0
  C  C39  1  0.688300  0.387000  0.006100  1.0
  C  C40  1  0.015900  0.733100  0.330000  1.0
  C  C41  1  0.330000  0.015900  0.733100  1.0
  C  C42  1  0.733100  0.330000  0.015900  1.0
  C  C43  1  0.967500  0.788000  0.326200  1.0
  C  C44  1  0.326200  0.967500  0.788000  1.0
  C  C45  1  0.788000  0.326200  0.967500  1.0
  C  C46  1  0.983200  0.838300  0.254800  1.0
  C  C47  1  0.254800  0.983200  0.838300  1.0
  C  C48  1  0.838300  0.254800  0.983200  1.0
  C  C49  1  0.064500  0.910200  0.292100  1.0
  C  C50  1  0.292100  0.064500  0.910200  1.0
  C  C51  1  0.910200  0.292100  0.064500  1.0
  C  C52  1  0.087900  0.045000  0.252100  1.0
  C  C53  1  0.252100  0.087900  0.045000  1.0
  C  C54  1  0.045000  0.252100  0.087900  1.0
  C  C55  1  0.104300  0.078100  0.182200  1.0
  C  C56  1  0.182200  0.104300  0.078100  1.0
  C  C57  1  0.078100  0.182200  0.104300  1.0
  C  C58  1  0.160500  0.055600  0.139800  1.0
  C  C59  1  0.139800  0.160500  0.055600  1.0
  C  C60  1  0.055600  0.139800  0.160500  1.0
  C  C61  1  0.472200  0.813000  0.316700  1.0
  C  C62  1  0.316700  0.472200  0.813000  1.0
  C  C63  1  0.813000  0.316700  0.472200  1.0
  C  C64  1  0.538300  0.805300  0.284100  1.0
  C  C65  1  0.284100  0.538300  0.805300  1.0
  C  C66  1  0.805300  0.284100  0.538300  1.0
  C  C67  1  0.550900  0.842400  0.222100  1.0
  C  C68  1  0.222100  0.550900  0.842400  1.0
  C  C69  1  0.842400  0.222100  0.550900  1.0
  C  C70  1  0.502400  0.894300  0.203400  1.0
  C  C71  1  0.203400  0.502400  0.894300  1.0
  C  C72  1  0.894300  0.203400  0.502400  1.0
  C  C73  1  0.438000  0.904100  0.237900  1.0
  C  C74  1  0.237900  0.438000  0.904100  1.0
  C  C75  1  0.904100  0.237900  0.438000  1.0
  C  C76  1  0.397000  0.968400  0.223000  1.0
  C  C77  1  0.223000  0.397000  0.968400  1.0
  C  C78  1  0.968400  0.223000  0.397000  1.0
  C  C79  1  0.442900  0.052000  0.284000  1.0
  C  C80  1  0.284000  0.442900  0.052000  1.0
  C  C81  1  0.052000  0.284000  0.442900  1.0
  C  C82  1  0.373300  0.165000  0.326100  1.0
  C  C83  1  0.326100  0.373300  0.165000  1.0
  C  C84  1  0.165000  0.326100  0.373300  1.0
  C  C85  1  0.327600  0.225400  0.300900  1.0
  C  C86  1  0.300900  0.327600  0.225400  1.0
  C  C87  1  0.225400  0.300900  0.327600  1.0
  C  C88  1  0.339200  0.261700  0.237400  1.0
  C  C89  1  0.237400  0.339200  0.261700  1.0
  C  C90  1  0.261700  0.237400  0.339200  1.0
  C  C91  1  0.223600  0.868400  0.459800  1.0
  C  C92  1  0.459800  0.223600  0.868400  1.0
  C  C93  1  0.868400  0.459800  0.223600  1.0
  C  C94  1  0.171200  0.896500  0.503300  1.0
  C  C95  1  0.503300  0.171200  0.896500  1.0
  C  C96  1  0.896500  0.503300  0.171200  1.0
  C  C97  1  0.167300  0.978200  0.526900  1.0
  C  C98  1  0.526900  0.167300  0.978200  1.0
  C  C99  1  0.978200  0.526900  0.167300  1.0
  C  C100  1  0.222600  0.038200  0.507300  1.0
  C  C101  1  0.507300  0.222600  0.038200  1.0
  C  C102  1  0.038200  0.507300  0.222600  1.0
  C  C103  1  0.269500  0.008800  0.457400  1.0
  C  C104  1  0.457400  0.269500  0.008800  1.0
  C  C105  1  0.008800  0.457400  0.269500  1.0
  C  C106  1  0.218100  0.126200  0.516800  1.0
  C  C107  1  0.516800  0.218100  0.126200  1.0
  C  C108  1  0.126200  0.516800  0.218100  1.0
  C  C109  1  0.297100  0.180500  0.584800  1.0
  C  C110  1  0.584800  0.297100  0.180500  1.0
  C  C111  1  0.180500  0.584800  0.297100  1.0
  C  C112  1  0.302900  0.272200  0.615400  1.0
  C  C113  1  0.615400  0.302900  0.272200  1.0
  C  C114  1  0.272200  0.615400  0.302900  1.0
  C  C115  1  0.355800  0.382100  0.560300  1.0
  C  C116  1  0.560300  0.355800  0.382100  1.0
  C  C117  1  0.382100  0.560300  0.355800  1.0
  C  C118  1  0.396500  0.412300  0.499300  1.0
  C  C119  1  0.499300  0.396500  0.412300  1.0
  C  C120  1  0.412300  0.499300  0.396500  1.0
  C  C121  1  0.378700  0.477900  0.464100  1.0
  C  C122  1  0.464100  0.378700  0.477900  1.0
  C  C123  1  0.477900  0.464100  0.378700  1.0
  Cl  Cl124  1  0.737900  0.780500  0.259700  1.0
  Cl  Cl125  1  0.259700  0.737900  0.780500  1.0
  Cl  Cl126  1  0.780500  0.259700  0.737900  1.0
  Cl  Cl127  1  0.949100  0.994800  0.460900  1.0
  Cl  Cl128  1  0.460900  0.949100  0.994800  1.0
  Cl  Cl129  1  0.994800  0.460900  0.949100  1.0
  Cl  Cl130  1  0.468900  0.961760  0.487140  1.0
  Cl  Cl131  1  0.487140  0.468900  0.961760  1.0
  Cl  Cl132  1  0.961760  0.487140  0.468900  1.0
  Cl  Cl133  1  0.231500  0.810100  0.259100  1.0
  Cl  Cl134  1  0.259100  0.231500  0.810100  1.0
  Cl  Cl135  1  0.810100  0.259100  0.231500  1.0
  H  H136  1  0.815900  0.889300  0.067800  1.0
  H  H137  1  0.067800  0.815900  0.889300  1.0
  H  H138  1  0.889300  0.067800  0.815900  1.0
  H  H139  1  0.086300  0.929100  0.186900  1.0
  H  H140  1  0.186900  0.086300  0.929100  1.0
  H  H141  1  0.929100  0.186900  0.086300  1.0
  H  H142  1  0.713400  0.924200  0.442600  1.0
  H  H143  1  0.442600  0.713400  0.924200  1.0
  H  H144  1  0.924200  0.442600  0.713400  1.0
  H  H145  1  0.618600  0.004900  0.436600  1.0
  H  H146  1  0.436600  0.618600  0.004900  1.0
  H  H147  1  0.004900  0.436600  0.618600  1.0
  H  H148  1  0.640200  0.118500  0.378200  1.0
  H  H149  1  0.378200  0.640200  0.118500  1.0
  H  H150  1  0.118500  0.378200  0.640200  1.0
  H  H151  1  0.717000  0.109600  0.277900  1.0
  H  H152  1  0.277900  0.717000  0.109600  1.0
  H  H153  1  0.109600  0.277900  0.717000  1.0
  H  H154  1  0.845400  0.076300  0.232000  1.0
  H  H155  1  0.232000  0.845400  0.076300  1.0
  H  H156  1  0.076300  0.232000  0.845400  1.0
  H  H157  1  0.884300  0.007700  0.267700  1.0
  H  H158  1  0.267700  0.884300  0.007700  1.0
  H  H159  1  0.007700  0.267700  0.884300  1.0
  H  H160  1  0.763600  0.894800  0.175500  1.0
  H  H161  1  0.175500  0.763600  0.894800  1.0
  H  H162  1  0.894800  0.175500  0.763600  1.0
  H  H163  1  0.720200  0.961600  0.142800  1.0
  H  H164  1  0.142800  0.720200  0.961600  1.0
  H  H165  1  0.961600  0.142800  0.720200  1.0
  H  H166  1  0.881400  0.060200  0.941800  1.0
  H  H167  1  0.941800  0.881400  0.060200  1.0
  H  H168  1  0.060200  0.941800  0.881400  1.0
  H  H169  1  0.867100  0.768100  0.464800  1.0
  H  H170  1  0.464800  0.867100  0.768100  1.0
  H  H171  1  0.768100  0.464800  0.867100  1.0
  H  H172  1  0.944600  0.671400  0.471700  1.0
  H  H173  1  0.471700  0.944600  0.671400  1.0
  H  H174  1  0.671400  0.471700  0.944600  1.0
  H  H175  1  0.036200  0.647700  0.394500  1.0
  H  H176  1  0.394500  0.036200  0.647700  1.0
  H  H177  1  0.647700  0.394500  0.036200  1.0
  H  H178  1  0.053300  0.726700  0.295700  1.0
  H  H179  1  0.295700  0.053300  0.726700  1.0
  H  H180  1  0.726700  0.295700  0.053300  1.0
  H  H181  1  0.986600  0.797700  0.203500  1.0
  H  H182  1  0.203500  0.986600  0.797700  1.0
  H  H183  1  0.797700  0.203500  0.986600  1.0
  H  H184  1  0.934600  0.861000  0.237200  1.0
  H  H185  1  0.237200  0.934600  0.861000  1.0
  H  H186  1  0.861000  0.237200  0.934600  1.0
  H  H187  1  0.061200  0.949100  0.344400  1.0
  H  H188  1  0.344400  0.061200  0.949100  1.0
  H  H189  1  0.949100  0.344400  0.061200  1.0
  H  H190  1  0.112700  0.886700  0.308800  1.0
  H  H191  1  0.308800  0.112700  0.886700  1.0
  H  H192  1  0.886700  0.308800  0.112700  1.0
  H  H193  1  0.184900  0.011300  0.148900  1.0
  H  H194  1  0.148900  0.184900  0.011300  1.0
  H  H195  1  0.011300  0.148900  0.184900  1.0
  H  H196  1  0.391000  0.131100  0.210600  1.0
  H  H197  1  0.210600  0.391000  0.131100  1.0
  H  H198  1  0.131100  0.210600  0.391000  1.0
  H  H199  1  0.461200  0.784300  0.357600  1.0
  H  H200  1  0.357600  0.461200  0.784300  1.0
  H  H201  1  0.784300  0.357600  0.461200  1.0
  H  H202  1  0.575300  0.774300  0.304500  1.0
  H  H203  1  0.304500  0.575300  0.774300  1.0
  H  H204  1  0.774300  0.304500  0.575300  1.0
  H  H205  1  0.591800  0.832400  0.193000  1.0
  H  H206  1  0.193000  0.591800  0.832400  1.0
  H  H207  1  0.832400  0.193000  0.591800  1.0
  H  H208  1  0.514100  0.925300  0.164300  1.0
  H  H209  1  0.164300  0.514100  0.925300  1.0
  H  H210  1  0.925300  0.164300  0.514100  1.0
  H  H211  1  0.338000  0.951000  0.227100  1.0
  H  H212  1  0.227100  0.338000  0.951000  1.0
  H  H213  1  0.951000  0.227100  0.338000  1.0
  H  H214  1  0.393400  0.972200  0.164300  1.0
  H  H215  1  0.164300  0.393400  0.972200  1.0
  H  H216  1  0.972200  0.164300  0.393400  1.0
  H  H217  1  0.503000  0.068200  0.282700  1.0
  H  H218  1  0.282700  0.503000  0.068200  1.0
  H  H219  1  0.068200  0.282700  0.503000  1.0
  H  H220  1  0.442800  0.049800  0.342400  1.0
  H  H221  1  0.342400  0.442800  0.049800  1.0
  H  H222  1  0.049800  0.342400  0.442800  1.0
  H  H223  1  0.372300  0.243400  0.201900  1.0
  H  H224  1  0.201900  0.372300  0.243400  1.0
  H  H225  1  0.243400  0.201900  0.372300  1.0
  H  H226  1  0.223900  0.810400  0.444900  1.0
  H  H227  1  0.444900  0.223900  0.810400  1.0
  H  H228  1  0.810400  0.444900  0.223900  1.0
  H  H229  1  0.134000  0.855000  0.519000  1.0
  H  H230  1  0.519000  0.134000  0.855000  1.0
  H  H231  1  0.855000  0.519000  0.134000  1.0
  H  H232  1  0.127500  0.992600  0.555600  1.0
  H  H233  1  0.555600  0.127500  0.992600  1.0
  H  H234  1  0.992600  0.555600  0.127500  1.0
  H  H235  1  0.300400  0.047400  0.433800  1.0
  H  H236  1  0.433800  0.300400  0.047400  1.0
  H  H237  1  0.047400  0.433800  0.300400  1.0
  H  H238  1  0.166800  0.133500  0.533800  1.0
  H  H239  1  0.533800  0.166800  0.133500  1.0
  H  H240  1  0.133500  0.533800  0.166800  1.0
  H  H241  1  0.216000  0.140800  0.462600  1.0
  H  H242  1  0.462600  0.216000  0.140800  1.0
  H  H243  1  0.140800  0.462600  0.216000  1.0
  H  H244  1  0.302200  0.157000  0.634100  1.0
  H  H245  1  0.634100  0.302200  0.157000  1.0
  H  H246  1  0.157000  0.634100  0.302200  1.0
  H  H247  1  0.346600  0.176200  0.563000  1.0
  H  H248  1  0.563000  0.346600  0.176200  1.0
  H  H249  1  0.176200  0.563000  0.346600  1.0
  H  H250  1  0.332500  0.295800  0.677400  1.0
  H  H251  1  0.677400  0.332500  0.295800  1.0
  H  H252  1  0.295800  0.677400  0.332500  1.0
  H  H253  1  0.245300  0.280700  0.603900  1.0
  H  H254  1  0.603900  0.245300  0.280700  1.0
  H  H255  1  0.280700  0.603900  0.245300  1.0
  H  H256  1  0.343400  0.509100  0.485600  1.0
  H  H257  1  0.485600  0.343400  0.509100  1.0
  H  H258  1  0.509100  0.485600  0.343400  1.0
  N  N259  1  0.770300  0.971100  0.364000  1.0
  N  N260  1  0.364000  0.770300  0.971100  1.0
  N  N261  1  0.971100  0.364000  0.770300  1.0
  N  N262  1  0.815000  0.941700  0.090700  1.0
  N  N263  1  0.090700  0.815000  0.941700  1.0
  N  N264  1  0.941700  0.090700  0.815000  1.0
  N  N265  1  0.915400  0.802500  0.373400  1.0
  N  N266  1  0.373400  0.915400  0.802500  1.0
  N  N267  1  0.802500  0.373400  0.915400  1.0
  N  N268  1  0.080500  0.956300  0.235700  1.0
  N  N269  1  0.235700  0.080500  0.956300  1.0
  N  N270  1  0.956300  0.235700  0.080500  1.0
  N  N271  1  0.423000  0.860100  0.292400  1.0
  N  N272  1  0.292400  0.423000  0.860100  1.0
  N  N273  1  0.860100  0.292400  0.423000  1.0
  N  N274  1  0.398600  0.121400  0.260700  1.0
  N  N275  1  0.260700  0.398600  0.121400  1.0
  N  N276  1  0.121400  0.260700  0.398600  1.0
  N  N277  1  0.274500  0.929100  0.439700  1.0
  N  N278  1  0.439700  0.274500  0.929100  1.0
  N  N279  1  0.929100  0.439700  0.274500  1.0
  O  O280  1  0.840500  0.071100  0.072600  1.0
  O  O281  1  0.072600  0.840500  0.071100  1.0
  O  O282  1  0.071100  0.072600  0.840500  1.0
  O  O283  1  0.074500  0.087300  0.309900  1.0
  O  O284  1  0.309900  0.074500  0.087300  1.0
  O  O285  1  0.087300  0.309900  0.074500  1.0
  O  O286  1  0.381600  0.153300  0.394000  1.0
  O  O287  1  0.394000  0.381600  0.153300  1.0
  O  O288  1  0.153300  0.394000  0.381600  1.0
  O  O289  1  0.353800  0.312700  0.564500  1.0
  O  O290  1  0.564500  0.353800  0.312700  1.0
  O  O291  1  0.312700  0.564500  0.353800  1.0
  O  O292  1  0.323500  0.441500  0.603700  1.0
  O  O293  1  0.603700  0.323500  0.441500  1.0
  O  O294  1  0.441500  0.603700  0.323500  1.0
  Pd  Pd295  1  0.844350  0.888270  0.357780  1.0
  Pd  Pd296  1  0.357780  0.844350  0.888270  1.0
  Pd  Pd297  1  0.888270  0.357780  0.844350  1.0
  Pd  Pd298  1  0.350470  0.892030  0.370200  1.0
  Pd  Pd299  1  0.370200  0.350470  0.892030  1.0
  Pd  Pd300  1  0.892030  0.370200  0.350470  1.0
