# generated using pymatgen
data_H57Pd2C47Br4N7O9
_symmetry_space_group_name_H-M   'P 1'
_cell_length_a   16.86018776
_cell_length_b   16.86018776
_cell_length_c   16.86018776
_cell_angle_alpha   103.07732668
_cell_angle_beta   103.07732668
_cell_angle_gamma   103.07732668
_symmetry_Int_Tables_number   1
_chemical_formula_structural   H57Pd2C47Br4N7O9
_chemical_formula_sum   'H171 Pd6 C141 Br12 N21 O27'
_cell_volume   4348.61877803
_cell_formula_units_Z   3
loop_
 _symmetry_equiv_pos_site_id
 _symmetry_equiv_pos_as_xyz
  1  'x, y, z'
loop_
 _atom_site_type_symbol
 _atom_site_label
 _atom_site_symmetry_multiplicity
 _atom_site_fract_x
 _atom_site_fract_y
 _atom_site_fract_z
 _atom_site_occupancy
  Br  Br1  1  0.245260  0.719820  0.206520  1.0
  Br  Br2  1  0.206520  0.245260  0.719820  1.0
  Br  Br3  1  0.719820  0.206520  0.245260  1.0
  Br  Br4  1  0.458520  0.960070  0.422820  1.0
  Br  Br5  1  0.422820  0.458520  0.960070  1.0
  Br  Br6  1  0.960070  0.422820  0.458520  1.0
  Br  Br7  1  0.708370  0.234570  0.723970  1.0
  Br  Br8  1  0.723970  0.708370  0.234570  1.0
  Br  Br9  1  0.234570  0.723970  0.708370  1.0
  Br  Br10  1  0.948130  0.387300  0.975700  1.0
  Br  Br11  1  0.975700  0.948130  0.387300  1.0
  Br  Br12  1  0.387300  0.975700  0.948130  1.0
  C  C13  1  0.994300  0.640200  0.618700  1
  C  C14  1  0.618700  0.994300  0.640200  1
  C  C15  1  0.640200  0.618700  0.994300  1
  C  C16  1  0.963700  0.653600  0.532100  1
  C  C17  1  0.532100  0.963700  0.653600  1
  C  C18  1  0.653600  0.532100  0.963700  1
  C  C19  1  0.867000  0.623700  0.501500  1
  C  C20  1  0.501500  0.867000  0.623700  1
  C  C21  1  0.623700  0.501500  0.867000  1
  C  C22  1  0.431400  0.160900  0.491000  1
  C  C23  1  0.491000  0.431400  0.160900  1
  C  C24  1  0.160900  0.491000  0.431400  1
  C  C25  1  0.353600  0.145600  0.528600  1
  C  C26  1  0.528600  0.353600  0.145600  1
  C  C27  1  0.145600  0.528600  0.353600  1
  C  C28  1  0.528700  0.179200  0.525700  1
  C  C29  1  0.525700  0.528700  0.179200  1
  C  C30  1  0.179200  0.525700  0.528700  1
  C  C31  1  0.295300  0.781200  0.441600  1.0
  C  C32  1  0.441600  0.295300  0.781200  1.0
  C  C33  1  0.781200  0.441600  0.295300  1.0
  C  C34  1  0.258200  0.773500  0.504100  1.0
  C  C35  1  0.504100  0.258200  0.773500  1.0
  C  C36  1  0.773500  0.504100  0.258200  1.0
  C  C37  1  0.199300  0.818200  0.516800  1.0
  C  C38  1  0.516800  0.199300  0.818200  1.0
  C  C39  1  0.818200  0.516800  0.199300  1.0
  C  C40  1  0.184100  0.871300  0.467800  1.0
  C  C41  1  0.467800  0.184100  0.871300  1.0
  C  C42  1  0.871300  0.467800  0.184100  1.0
  C  C43  1  0.230400  0.881200  0.408900  1.0
  C  C44  1  0.408900  0.230400  0.881200  1.0
  C  C45  1  0.881200  0.408900  0.230400  1.0
  C  C46  1  0.212300  0.939900  0.354800  1.0
  C  C47  1  0.354800  0.212300  0.939900  1.0
  C  C48  1  0.939900  0.354800  0.212300  1.0
  C  C49  1  0.136100  0.897900  0.279800  1.0
  C  C50  1  0.279800  0.136100  0.897900  1.0
  C  C51  1  0.897900  0.279800  0.136100  1.0
  C  C52  1  0.111200  0.946400  0.152400  1.0
  C  C53  1  0.152400  0.111200  0.946400  1.0
  C  C54  1  0.946400  0.152400  0.111200  1.0
  C  C55  1  0.092400  0.014800  0.113600  1.0
  C  C56  1  0.113600  0.092400  0.014800  1.0
  C  C57  1  0.014800  0.113600  0.092400  1.0
  C  C58  1  0.033300  0.055200  0.132300  1.0
  C  C59  1  0.132300  0.033300  0.055200  1.0
  C  C60  1  0.055200  0.132300  0.033300  1.0
  C  C61  1  0.476400  0.790200  0.235000  1.0
  C  C62  1  0.235000  0.476400  0.790200  1.0
  C  C63  1  0.790200  0.235000  0.476400  1.0
  C  C64  1  0.525700  0.783900  0.179700  1.0
  C  C65  1  0.179700  0.525700  0.783900  1.0
  C  C66  1  0.783900  0.179700  0.525700  1.0
  C  C67  1  0.526800  0.829700  0.125300  1.0
  C  C68  1  0.125300  0.526800  0.829700  1.0
  C  C69  1  0.829700  0.125300  0.526800  1.0
  C  C70  1  0.478300  0.886000  0.125600  1.0
  C  C71  1  0.125600  0.478300  0.886000  1.0
  C  C72  1  0.886000  0.125600  0.478300  1.0
  C  C73  1  0.427800  0.893000  0.180200  1.0
  C  C74  1  0.180200  0.427800  0.893000  1.0
  C  C75  1  0.893000  0.180200  0.427800  1.0
  C  C76  1  0.377600  0.953500  0.180700  1.0
  C  C77  1  0.180700  0.377600  0.953500  1.0
  C  C78  1  0.953500  0.180700  0.377600  1.0
  C  C79  1  0.434900  0.043200  0.229000  1.0
  C  C80  1  0.229000  0.434900  0.043200  1.0
  C  C81  1  0.043200  0.229000  0.434900  1.0
  C  C82  1  0.346100  0.135700  0.191400  1.0
  C  C83  1  0.191400  0.346100  0.135700  1.0
  C  C84  1  0.135700  0.191400  0.346100  1.0
  C  C85  1  0.292500  0.189800  0.217000  1.0
  C  C86  1  0.217000  0.292500  0.189800  1.0
  C  C87  1  0.189800  0.217000  0.292500  1.0
  C  C88  1  0.248200  0.174100  0.276700  1.0
  C  C89  1  0.276700  0.248200  0.174100  1.0
  C  C90  1  0.174100  0.276700  0.248200  1.0
  C  C91  1  0.890000  0.393000  0.732300  1.0
  C  C92  1  0.732300  0.890000  0.393000  1.0
  C  C93  1  0.393000  0.732300  0.890000  1.0
  C  C94  1  0.929100  0.406600  0.672700  1.0
  C  C95  1  0.672700  0.929100  0.406600  1.0
  C  C96  1  0.406600  0.672700  0.929100  1.0
  C  C97  1  0.986800  0.364900  0.656100  1.0
  C  C98  1  0.656100  0.986800  0.364900  1.0
  C  C99  1  0.364900  0.656100  0.986800  1.0
  C  C100  1  0.000300  0.305500  0.696600  1.0
  C  C101  1  0.696600  0.000300  0.305500  1.0
  C  C102  1  0.305500  0.696600  0.000300  1.0
  C  C103  1  0.958500  0.290400  0.755300  1.0
  C  C104  1  0.755300  0.958500  0.290400  1.0
  C  C105  1  0.290400  0.755300  0.958500  1.0
  C  C106  1  0.974000  0.225900  0.801000  1.0
  C  C107  1  0.801000  0.974000  0.225900  1.0
  C  C108  1  0.225900  0.801000  0.974000  1.0
  C  C109  1  0.916200  0.138200  0.751200  1.0
  C  C110  1  0.751200  0.916200  0.138200  1.0
  C  C111  1  0.138200  0.751200  0.916200  1.0
  C  C112  1  0.871000  0.033900  0.825700  1.0
  C  C113  1  0.825700  0.871000  0.033900  1.0
  C  C114  1  0.033900  0.825700  0.871000  1.0
  C  C115  1  0.897200  0.973700  0.872600  1.0
  C  C116  1  0.872600  0.897200  0.973700  1.0
  C  C117  1  0.973700  0.872600  0.897200  1.0
  C  C118  1  0.955700  0.931900  0.855300  1.0
  C  C119  1  0.855300  0.955700  0.931900  1.0
  C  C120  1  0.931900  0.855300  0.955700  1.0
  C  C121  1  0.733100  0.326700  0.973800  1.0
  C  C122  1  0.973800  0.733100  0.326700  1.0
  C  C123  1  0.326700  0.973800  0.733100  1.0
  C  C124  1  0.685800  0.301300  0.024900  1.0
  C  C125  1  0.024900  0.685800  0.301300  1.0
  C  C126  1  0.301300  0.024900  0.685800  1.0
  C  C127  1  0.663500  0.215400  0.021800  1.0
  C  C128  1  0.021800  0.663500  0.215400  1.0
  C  C129  1  0.215400  0.021800  0.663500  1.0
  C  C130  1  0.689800  0.158600  0.970400  1.0
  C  C131  1  0.970400  0.689800  0.158600  1.0
  C  C132  1  0.158600  0.970400  0.689800  1.0
  C  C133  1  0.736600  0.188300  0.920300  1.0
  C  C134  1  0.920300  0.736600  0.188300  1.0
  C  C135  1  0.188300  0.920300  0.736600  1.0
  C  C136  1  0.668100  0.066100  0.964600  1.0
  C  C137  1  0.964600  0.668100  0.066100  1.0
  C  C138  1  0.066100  0.964600  0.668100  1.0
  C  C139  1  0.592900  0.012800  0.887000  1.0
  C  C140  1  0.887000  0.592900  0.012800  1.0
  C  C141  1  0.012800  0.887000  0.592900  1.0
  C  C142  1  0.574800  0.917100  0.879000  1.0
  C  C143  1  0.879000  0.574800  0.917100  1.0
  C  C144  1  0.917100  0.879000  0.574800  1.0
  C  C145  1  0.637700  0.807200  0.840800  1.0
  C  C146  1  0.840800  0.637700  0.807200  1.0
  C  C147  1  0.807200  0.840800  0.637700  1.0
  C  C148  1  0.698100  0.782400  0.795900  1.0
  C  C149  1  0.795900  0.698100  0.782400  1.0
  C  C150  1  0.782400  0.795900  0.698100  1.0
  C  C151  1  0.734700  0.722300  0.820300  1.0
  C  C152  1  0.820300  0.734700  0.722300  1.0
  C  C153  1  0.722300  0.820300  0.734700  1.0
  H  H154  1  0.056600  0.656000  0.636900  1
  H  H155  1  0.636900  0.056600  0.656000  1
  H  H156  1  0.656000  0.636900  0.056600  1
  H  H157  1  0.971000  0.580200  0.614700  1
  H  H158  1  0.614700  0.971000  0.580200  1
  H  H159  1  0.580200  0.614700  0.971000  1
  H  H160  1  0.974800  0.675800  0.660200  1
  H  H161  1  0.660200  0.974800  0.675800  1
  H  H162  1  0.675800  0.660200  0.974800  1
  H  H163  1  0.847200  0.630600  0.444800  1
  H  H164  1  0.444800  0.847200  0.630600  1
  H  H165  1  0.630600  0.444800  0.847200  1
  H  H166  1  0.844600  0.657600  0.541300  1
  H  H167  1  0.541300  0.844600  0.657600  1
  H  H168  1  0.657600  0.541300  0.844600  1
  H  H169  1  0.846900  0.563600  0.498600  1
  H  H170  1  0.498600  0.846900  0.563600  1
  H  H171  1  0.563600  0.498600  0.846900  1
  H  H172  1  0.624700  0.425400  0.575000  1
  H  H173  1  0.575000  0.624700  0.425400  1
  H  H174  1  0.425400  0.575000  0.624700  1
  H  H175  1  0.701400  0.449600  0.557200  1
  H  H176  1  0.557200  0.701400  0.449600  1
  H  H177  1  0.449600  0.557200  0.701400  1
  H  H178  1  0.380800  0.352000  0.544900  1
  H  H179  1  0.544900  0.380800  0.352000  1
  H  H180  1  0.352000  0.544900  0.380800  1
  H  H181  1  0.304200  0.359200  0.555500  1
  H  H182  1  0.555500  0.304200  0.359200  1
  H  H183  1  0.359200  0.555500  0.304200  1
  H  H184  1  0.300400  0.129500  0.482700  1
  H  H185  1  0.482700  0.300400  0.129500  1
  H  H186  1  0.129500  0.482700  0.300400  1
  H  H187  1  0.358100  0.197700  0.571300  1
  H  H188  1  0.571300  0.358100  0.197700  1
  H  H189  1  0.197700  0.571300  0.358100  1
  H  H190  1  0.354300  0.099600  0.555300  1
  H  H191  1  0.555300  0.354300  0.099600  1
  H  H192  1  0.099600  0.555300  0.354300  1
  H  H193  1  0.555100  0.187200  0.480800  1
  H  H194  1  0.480800  0.555100  0.187200  1
  H  H195  1  0.187200  0.480800  0.555100  1
  H  H196  1  0.541200  0.131100  0.544200  1
  H  H197  1  0.544200  0.541200  0.131100  1
  H  H198  1  0.131100  0.544200  0.541200  1
  H  H199  1  0.551700  0.231100  0.574100  1
  H  H200  1  0.574100  0.551700  0.231100  1
  H  H201  1  0.231100  0.574100  0.551700  1
  H  H202  1  0.108900  0.005800  0.263000  1.0
  H  H203  1  0.263000  0.108900  0.005800  1.0
  H  H204  1  0.005800  0.263000  0.108900  1.0
  H  H205  1  0.380600  0.121300  0.301800  1.0
  H  H206  1  0.301800  0.380600  0.121300  1.0
  H  H207  1  0.121300  0.301800  0.380600  1.0
  H  H208  1  0.331800  0.747500  0.430100  1.0
  H  H209  1  0.430100  0.331800  0.747500  1.0
  H  H210  1  0.747500  0.430100  0.331800  1.0
  H  H211  1  0.272100  0.738400  0.538800  1.0
  H  H212  1  0.538800  0.272100  0.738400  1.0
  H  H213  1  0.738400  0.538800  0.272100  1.0
  H  H214  1  0.170500  0.812000  0.558400  1.0
  H  H215  1  0.558400  0.170500  0.812000  1.0
  H  H216  1  0.812000  0.558400  0.170500  1.0
  H  H217  1  0.143000  0.901000  0.473500  1.0
  H  H218  1  0.473500  0.143000  0.901000  1.0
  H  H219  1  0.901000  0.473500  0.143000  1.0
  H  H220  1  0.203700  0.990900  0.390400  1.0
  H  H221  1  0.390400  0.203700  0.990900  1.0
  H  H222  1  0.990900  0.390400  0.203700  1.0
  H  H223  1  0.262400  0.959300  0.335100  1.0
  H  H224  1  0.335100  0.262400  0.959300  1.0
  H  H225  1  0.959300  0.335100  0.262400  1.0
  H  H226  1  0.146500  0.850500  0.240900  1.0
  H  H227  1  0.240900  0.146500  0.850500  1.0
  H  H228  1  0.850500  0.240900  0.146500  1.0
  H  H229  1  0.086700  0.873900  0.298600  1.0
  H  H230  1  0.298600  0.086700  0.873900  1.0
  H  H231  1  0.873900  0.298600  0.086700  1.0
  H  H232  1  0.005500  0.042300  0.173000  1.0
  H  H233  1  0.173000  0.005500  0.042300  1.0
  H  H234  1  0.042300  0.173000  0.005500  1.0
  H  H235  1  0.476600  0.756900  0.273500  1.0
  H  H236  1  0.273500  0.476600  0.756900  1.0
  H  H237  1  0.756900  0.273500  0.476600  1.0
  H  H238  1  0.559500  0.745900  0.180600  1.0
  H  H239  1  0.180600  0.559500  0.745900  1.0
  H  H240  1  0.745900  0.180600  0.559500  1.0
  H  H241  1  0.560100  0.824100  0.087100  1.0
  H  H242  1  0.087100  0.560100  0.824100  1.0
  H  H243  1  0.824100  0.087100  0.560100  1.0
  H  H244  1  0.479600  0.920400  0.088100  1.0
  H  H245  1  0.088100  0.479600  0.920400  1.0
  H  H246  1  0.920400  0.088100  0.479600  1.0
  H  H247  1  0.332600  0.937900  0.208000  1.0
  H  H248  1  0.208000  0.332600  0.937900  1.0
  H  H249  1  0.937900  0.208000  0.332600  1.0
  H  H250  1  0.349800  0.951100  0.121500  1.0
  H  H251  1  0.121500  0.349800  0.951100  1.0
  H  H252  1  0.951100  0.121500  0.349800  1.0
  H  H253  1  0.471000  0.063300  0.194400  1.0
  H  H254  1  0.194400  0.471000  0.063300  1.0
  H  H255  1  0.063300  0.194400  0.471000  1.0
  H  H256  1  0.473100  0.042200  0.282700  1.0
  H  H257  1  0.282700  0.473100  0.042200  1.0
  H  H258  1  0.042200  0.282700  0.473100  1.0
  H  H259  1  0.258600  0.133800  0.306000  1.0
  H  H260  1  0.306000  0.258600  0.133800  1.0
  H  H261  1  0.133800  0.306000  0.258600  1.0
  H  H262  1  0.980500  0.065500  0.805200  1.0
  H  H263  1  0.805200  0.980500  0.065500  1.0
  H  H264  1  0.065500  0.805200  0.980500  1.0
  H  H265  1  0.852900  0.425100  0.746300  1.0
  H  H266  1  0.746300  0.852900  0.425100  1.0
  H  H267  1  0.425100  0.746300  0.852900  1.0
  H  H268  1  0.916300  0.445400  0.642200  1.0
  H  H269  1  0.642200  0.916300  0.445400  1.0
  H  H270  1  0.445400  0.642200  0.916300  1.0
  H  H271  1  0.017200  0.377100  0.617100  1.0
  H  H272  1  0.617100  0.017200  0.377100  1.0
  H  H273  1  0.377100  0.617100  0.017200  1.0
  H  H274  1  0.038700  0.274400  0.684200  1.0
  H  H275  1  0.684200  0.038700  0.274400  1.0
  H  H276  1  0.274400  0.684200  0.038700  1.0
  H  H277  1  0.034000  0.225500  0.810100  1.0
  H  H278  1  0.810100  0.034000  0.225500  1.0
  H  H279  1  0.225500  0.810100  0.034000  1.0
  H  H280  1  0.964500  0.242200  0.857500  1.0
  H  H281  1  0.857500  0.964500  0.242200  1.0
  H  H282  1  0.242200  0.857500  0.964500  1.0
  H  H283  1  0.856200  0.138700  0.741400  1.0
  H  H284  1  0.741400  0.856200  0.138700  1.0
  H  H285  1  0.138700  0.741400  0.856200  1.0
  H  H286  1  0.926300  0.121600  0.695000  1.0
  H  H287  1  0.695000  0.926300  0.121600  1.0
  H  H288  1  0.121600  0.695000  0.926300  1.0
  H  H289  1  0.983800  0.943400  0.814500  1.0
  H  H290  1  0.814500  0.983800  0.943400  1.0
  H  H291  1  0.943400  0.814500  0.983800  1.0
  H  H292  1  0.747700  0.384700  0.974700  1.0
  H  H293  1  0.974700  0.747700  0.384700  1.0
  H  H294  1  0.384700  0.974700  0.747700  1.0
  H  H295  1  0.668700  0.341300  0.061700  1.0
  H  H296  1  0.061700  0.668700  0.341300  1.0
  H  H297  1  0.341300  0.061700  0.668700  1.0
  H  H298  1  0.629900  0.196300  0.055900  1.0
  H  H299  1  0.055900  0.629900  0.196300  1.0
  H  H300  1  0.196300  0.055900  0.629900  1.0
  H  H301  1  0.753800  0.148900  0.883100  1.0
  H  H302  1  0.883100  0.753800  0.148900  1.0
  H  H303  1  0.148900  0.883100  0.753800  1.0
  H  H304  1  0.654100  0.058400  0.016900  1.0
  H  H305  1  0.016900  0.654100  0.058400  1.0
  H  H306  1  0.058400  0.016900  0.654100  1.0
  H  H307  1  0.718300  0.045800  0.961400  1.0
  H  H308  1  0.961400  0.718300  0.045800  1.0
  H  H309  1  0.045800  0.961400  0.718300  1.0
  H  H310  1  0.605500  0.023100  0.835000  1.0
  H  H311  1  0.835000  0.605500  0.023100  1.0
  H  H312  1  0.023100  0.835000  0.605500  1.0
  H  H313  1  0.541700  0.030600  0.891900  1.0
  H  H314  1  0.891900  0.541700  0.030600  1.0
  H  H315  1  0.030600  0.891900  0.541700  1.0
  H  H316  1  0.582300  0.908200  0.935900  1.0
  H  H317  1  0.935900  0.582300  0.908200  1.0
  H  H318  1  0.908200  0.935900  0.582300  1.0
  H  H319  1  0.515600  0.886000  0.843600  1.0
  H  H320  1  0.843600  0.515600  0.886000  1.0
  H  H321  1  0.886000  0.843600  0.515600  1.0
  H  H322  1  0.718900  0.697700  0.861900  1.0
  H  H323  1  0.861900  0.718900  0.697700  1.0
  H  H324  1  0.697700  0.861900  0.718900  1.0
  N  N325  1  0.282500  0.834400  0.395500  1.0
  N  N326  1  0.395500  0.282500  0.834400  1.0
  N  N327  1  0.834400  0.395500  0.282500  1.0
  N  N328  1  0.116900  0.959100  0.234800  1.0
  N  N329  1  0.234800  0.116900  0.959100  1.0
  N  N330  1  0.959100  0.234800  0.116900  1.0
  N  N331  1  0.426600  0.845700  0.234100  1.0
  N  N332  1  0.234100  0.426600  0.845700  1.0
  N  N333  1  0.845700  0.234100  0.426600  1.0
  N  N334  1  0.384400  0.105400  0.249700  1.0
  N  N335  1  0.249700  0.384400  0.105400  1.0
  N  N336  1  0.105400  0.249700  0.384400  1.0
  N  N337  1  0.903500  0.333500  0.772300  1.0
  N  N338  1  0.772300  0.903500  0.333500  1.0
  N  N339  1  0.333500  0.772300  0.903500  1.0
  N  N340  1  0.930900  0.075900  0.796700  1.0
  N  N341  1  0.796700  0.930900  0.075900  1.0
  N  N342  1  0.075900  0.796700  0.930900  1.0
  N  N343  1  0.759400  0.271000  0.921900  1.0
  N  N344  1  0.921900  0.759400  0.271000  1.0
  N  N345  1  0.271000  0.921900  0.759400  1.0
  O  O346  1  0.016700  0.685400  0.501600  1
  O  O347  1  0.501600  0.016700  0.685400  1
  O  O348  1  0.685400  0.501600  0.016700  1
  O  O349  1  0.668100  0.411500  0.568300  1
  O  O350  1  0.568300  0.668100  0.411500  1
  O  O351  1  0.411500  0.568300  0.668100  1
  O  O352  1  0.331100  0.324900  0.541300  1
  O  O353  1  0.541300  0.331100  0.324900  1
  O  O354  1  0.324900  0.541300  0.331100  1
  O  O355  1  0.393900  0.164100  0.424500  1
  O  O356  1  0.424500  0.393900  0.164100  1
  O  O357  1  0.164100  0.424500  0.393900  1
  O  O358  1  0.122900  0.883400  0.108600  1.0
  O  O359  1  0.108600  0.122900  0.883400  1.0
  O  O360  1  0.883400  0.108600  0.122900  1.0
  O  O361  1  0.353000  0.121800  0.118000  1.0
  O  O362  1  0.118000  0.353000  0.121800  1.0
  O  O363  1  0.121800  0.118000  0.353000  1.0
  O  O364  1  0.798100  0.040800  0.813400  1.0
  O  O365  1  0.813400  0.798100  0.040800  1.0
  O  O366  1  0.040800  0.813400  0.798100  1.0
  O  O367  1  0.594700  0.763900  0.869800  1.0
  O  O368  1  0.869800  0.594700  0.763900  1.0
  O  O369  1  0.763900  0.869800  0.594700  1.0
  O  O370  1  0.633300  0.886900  0.839900  1.0
  O  O371  1  0.839900  0.633300  0.886900  1.0
  O  O372  1  0.886900  0.839900  0.633300  1.0
  Pd  Pd373  1  0.352070  0.842300  0.312660  1.0
  Pd  Pd374  1  0.312660  0.352070  0.842300  1.0
  Pd  Pd375  1  0.842300  0.312660  0.352070  1.0
  Pd  Pd376  1  0.830220  0.306110  0.848760  1.0
  Pd  Pd377  1  0.848760  0.830220  0.306110  1.0
  Pd  Pd378  1  0.306110  0.848760  0.830220  1.0
