# generated using pymatgen
data_H57Pd2C47Br4N7O9
_symmetry_space_group_name_H-M   'P 1'
_cell_length_a   16.85030734
_cell_length_b   16.85030734
_cell_length_c   16.85030734
_cell_angle_alpha   103.09631655
_cell_angle_beta   103.09631655
_cell_angle_gamma   103.09631655
_symmetry_Int_Tables_number   1
_chemical_formula_structural   H57Pd2C47Br4N7O9
_chemical_formula_sum   'H171 Pd6 C141 Br12 N21 O27'
_cell_volume   4339.55972849
_cell_formula_units_Z   3
loop_
 _symmetry_equiv_pos_site_id
 _symmetry_equiv_pos_as_xyz
  1  'x, y, z'
loop_
 _atom_site_type_symbol
 _atom_site_label
 _atom_site_symmetry_multiplicity
 _atom_site_fract_x
 _atom_site_fract_y
 _atom_site_fract_z
 _atom_site_occupancy
  Br  Br1  1  0.067900  0.591900  0.107200  1.0
  Br  Br2  1  0.107200  0.067900  0.591900  1.0
  Br  Br3  1  0.591900  0.107200  0.067900  1.0
  Br  Br4  1  0.852300  0.350900  0.888800  1.0
  Br  Br5  1  0.888800  0.852300  0.350900  1.0
  Br  Br6  1  0.350900  0.888800  0.852300  1.0
  Br  Br7  1  0.589000  0.604400  0.078600  1.0
  Br  Br8  1  0.078600  0.589000  0.604400  1.0
  Br  Br9  1  0.604400  0.078600  0.589000  1.0
  Br  Br10  1  0.337100  0.365000  0.924900  1.0
  Br  Br11  1  0.924900  0.337100  0.365000  1.0
  Br  Br12  1  0.365000  0.924900  0.337100  1.0
  C  C13  1  0.296000  0.634000  0.817000  1
  C  C14  1  0.817000  0.296000  0.634000  1
  C  C15  1  0.634000  0.817000  0.296000  1
  C  C16  1  0.353000  0.662000  0.768000  1
  C  C17  1  0.768000  0.353000  0.662000  1
  C  C18  1  0.662000  0.768000  0.353000  1
  C  C19  1  0.445000  0.681000  0.807000  1
  C  C20  1  0.807000  0.445000  0.681000  1
  C  C21  1  0.681000  0.807000  0.445000  1
  C  C22  1  0.799000  0.127000  0.782000  1
  C  C23  1  0.782000  0.799000  0.127000  1
  C  C24  1  0.127000  0.782000  0.799000  1
  C  C25  1  0.891000  0.145000  0.822000  1
  C  C26  1  0.822000  0.891000  0.145000  1
  C  C27  1  0.145000  0.822000  0.891000  1
  C  C28  1  0.950000  0.170000  0.774000  1
  C  C29  1  0.774000  0.950000  0.170000  1
  C  C30  1  0.170000  0.774000  0.950000  1
  C  C31  1  0.016000  0.536000  0.876000  1.0
  C  C32  1  0.876000  0.016000  0.536000  1.0
  C  C33  1  0.536000  0.876000  0.016000  1.0
  C  C34  1  0.060000  0.543000  0.810000  1.0
  C  C35  1  0.810000  0.060000  0.543000  1.0
  C  C36  1  0.543000  0.810000  0.060000  1.0
  C  C37  1  0.111000  0.493000  0.794000  1.0
  C  C38  1  0.794000  0.111000  0.493000  1.0
  C  C39  1  0.493000  0.794000  0.111000  1.0
  C  C40  1  0.130000  0.441000  0.845000  1.0
  C  C41  1  0.845000  0.130000  0.441000  1.0
  C  C42  1  0.441000  0.845000  0.130000  1.0
  C  C43  1  0.082000  0.428000  0.903000  1.0
  C  C44  1  0.903000  0.082000  0.428000  1.0
  C  C45  1  0.428000  0.903000  0.082000  1.0
  C  C46  1  0.100000  0.370000  0.955000  1.0
  C  C47  1  0.955000  0.100000  0.370000  1.0
  C  C48  1  0.370000  0.955000  0.100000  1.0
  C  C49  1  0.176000  0.413000  0.031000  1.0
  C  C50  1  0.031000  0.176000  0.413000  1.0
  C  C51  1  0.413000  0.031000  0.176000  1.0
  C  C52  1  0.198000  0.365000  0.153000  1.0
  C  C53  1  0.153000  0.198000  0.365000  1.0
  C  C54  1  0.365000  0.153000  0.198000  1.0
  C  C55  1  0.223000  0.296000  0.200000  1.0
  C  C56  1  0.200000  0.223000  0.296000  1.0
  C  C57  1  0.296000  0.200000  0.223000  1.0
  C  C58  1  0.278000  0.257000  0.178000  1.0
  C  C59  1  0.178000  0.278000  0.257000  1.0
  C  C60  1  0.257000  0.178000  0.278000  1.0
  C  C61  1  0.838000  0.524000  0.078000  1.0
  C  C62  1  0.078000  0.838000  0.524000  1.0
  C  C63  1  0.524000  0.078000  0.838000  1.0
  C  C64  1  0.788000  0.530000  0.137000  1.0
  C  C65  1  0.137000  0.788000  0.530000  1.0
  C  C66  1  0.530000  0.137000  0.788000  1.0
  C  C67  1  0.786000  0.481000  0.188000  1.0
  C  C68  1  0.188000  0.786000  0.481000  1.0
  C  C69  1  0.481000  0.188000  0.786000  1.0
  C  C70  1  0.836000  0.428000  0.188000  1.0
  C  C71  1  0.188000  0.836000  0.428000  1.0
  C  C72  1  0.428000  0.188000  0.836000  1.0
  C  C73  1  0.887000  0.421000  0.135000  1.0
  C  C74  1  0.135000  0.887000  0.421000  1.0
  C  C75  1  0.421000  0.135000  0.887000  1.0
  C  C76  1  0.931000  0.358000  0.133000  1.0
  C  C77  1  0.133000  0.931000  0.358000  1.0
  C  C78  1  0.358000  0.133000  0.931000  1.0
  C  C79  1  0.876000  0.272000  0.085000  1.0
  C  C80  1  0.085000  0.876000  0.272000  1.0
  C  C81  1  0.272000  0.085000  0.876000  1.0
  C  C82  1  0.964000  0.172000  0.118000  1.0
  C  C83  1  0.118000  0.964000  0.172000  1.0
  C  C84  1  0.172000  0.118000  0.964000  1.0
  C  C85  1  0.022000  0.127000  0.099000  1.0
  C  C86  1  0.099000  0.022000  0.127000  1.0
  C  C87  1  0.127000  0.099000  0.022000  1.0
  C  C88  1  0.037000  0.065000  0.137000  1.0
  C  C89  1  0.137000  0.037000  0.065000  1.0
  C  C90  1  0.065000  0.137000  0.037000  1.0
  C  C91  1  0.579000  0.420000  0.916000  1.0
  C  C92  1  0.916000  0.579000  0.420000  1.0
  C  C93  1  0.420000  0.916000  0.579000  1.0
  C  C94  1  0.639000  0.387000  0.907000  1.0
  C  C95  1  0.907000  0.639000  0.387000  1.0
  C  C96  1  0.387000  0.907000  0.639000  1.0
  C  C97  1  0.656000  0.326000  0.948000  1.0
  C  C98  1  0.948000  0.656000  0.326000  1.0
  C  C99  1  0.326000  0.948000  0.656000  1.0
  C  C100  1  0.615000  0.309000  0.009000  1.0
  C  C101  1  0.009000  0.615000  0.309000  1.0
  C  C102  1  0.309000  0.009000  0.615000  1.0
  C  C103  1  0.556000  0.353000  0.018000  1.0
  C  C104  1  0.018000  0.556000  0.353000  1.0
  C  C105  1  0.353000  0.018000  0.556000  1.0
  C  C106  1  0.512000  0.341000  0.086000  1.0
  C  C107  1  0.086000  0.512000  0.341000  1.0
  C  C108  1  0.341000  0.086000  0.512000  1.0
  C  C109  1  0.562000  0.393000  0.173000  1.0
  C  C110  1  0.173000  0.562000  0.393000  1.0
  C  C111  1  0.393000  0.173000  0.562000  1.0
  C  C112  1  0.490000  0.445000  0.280000  1.0
  C  C113  1  0.280000  0.490000  0.445000  1.0
  C  C114  1  0.445000  0.280000  0.490000  1.0
  C  C115  1  0.442000  0.415000  0.340000  1.0
  C  C116  1  0.340000  0.442000  0.415000  1.0
  C  C117  1  0.415000  0.340000  0.442000  1.0
  C  C118  1  0.382000  0.458000  0.357000  1.0
  C  C119  1  0.357000  0.382000  0.458000  1.0
  C  C120  1  0.458000  0.357000  0.382000  1.0
  C  C121  1  0.337000  0.576000  0.987000  1.0
  C  C122  1  0.987000  0.337000  0.576000  1.0
  C  C123  1  0.576000  0.987000  0.337000  1.0
  C  C124  1  0.283000  0.627000  0.014000  1.0
  C  C125  1  0.014000  0.283000  0.627000  1.0
  C  C126  1  0.627000  0.014000  0.283000  1.0
  C  C127  1  0.288000  0.647000  0.103000  1.0
  C  C128  1  0.103000  0.288000  0.647000  1.0
  C  C129  1  0.647000  0.103000  0.288000  1.0
  C  C130  1  0.341000  0.625000  0.153000  1.0
  C  C131  1  0.153000  0.341000  0.625000  1.0
  C  C132  1  0.625000  0.153000  0.341000  1.0
  C  C133  1  0.389000  0.577000  0.120000  1.0
  C  C134  1  0.120000  0.389000  0.577000  1.0
  C  C135  1  0.577000  0.120000  0.389000  1.0
  C  C136  1  0.346000  0.645000  0.245000  1.0
  C  C137  1  0.245000  0.346000  0.645000  1.0
  C  C138  1  0.645000  0.245000  0.346000  1.0
  C  C139  1  0.424000  0.719000  0.303000  1.0
  C  C140  1  0.303000  0.424000  0.719000  1.0
  C  C141  1  0.719000  0.303000  0.424000  1.0
  C  C142  1  0.430000  0.741000  0.395000  1.0
  C  C143  1  0.395000  0.430000  0.741000  1.0
  C  C144  1  0.741000  0.395000  0.430000  1.0
  C  C145  1  0.469000  0.678000  0.506000  1.0
  C  C146  1  0.506000  0.469000  0.678000  1.0
  C  C147  1  0.678000  0.506000  0.469000  1.0
  C  C148  1  0.516000  0.616000  0.530000  1.0
  C  C149  1  0.530000  0.516000  0.616000  1.0
  C  C150  1  0.616000  0.530000  0.516000  1.0
  C  C151  1  0.577000  0.590000  0.495000  1.0
  C  C152  1  0.495000  0.577000  0.590000  1.0
  C  C153  1  0.590000  0.495000  0.577000  1.0
  H  H154  1  0.236600  0.624600  0.785000  1
  H  H155  1  0.785000  0.236600  0.624600  1
  H  H156  1  0.624600  0.785000  0.236600  1
  H  H157  1  0.310600  0.676000  0.872000  1
  H  H158  1  0.872000  0.310600  0.676000  1
  H  H159  1  0.676000  0.872000  0.310600  1
  H  H160  1  0.302400  0.579200  0.825800  1
  H  H161  1  0.825800  0.302400  0.579200  1
  H  H162  1  0.579200  0.825800  0.302400  1
  H  H163  1  0.475500  0.700300  0.768000  1
  H  H164  1  0.768000  0.475500  0.700300  1
  H  H165  1  0.700300  0.768000  0.475500  1
  H  H166  1  0.457200  0.628300  0.814800  1
  H  H167  1  0.814800  0.457200  0.628300  1
  H  H168  1  0.628300  0.814800  0.457200  1
  H  H169  1  0.463500  0.724500  0.861100  1
  H  H170  1  0.861100  0.463500  0.724500  1
  H  H171  1  0.724500  0.861100  0.463500  1
  H  H172  1  0.767000  0.107100  0.818600  1
  H  H173  1  0.818600  0.767000  0.107100  1
  H  H174  1  0.107100  0.818600  0.767000  1
  H  H175  1  0.781800  0.082800  0.726700  1
  H  H176  1  0.726700  0.781800  0.082800  1
  H  H177  1  0.082800  0.726700  0.781800  1
  H  H178  1  0.787600  0.179200  0.772400  1
  H  H179  1  0.772400  0.787600  0.179200  1
  H  H180  1  0.179200  0.772400  0.787600  1
  H  H181  1  0.008700  0.182000  0.809200  1
  H  H182  1  0.809200  0.008700  0.182000  1
  H  H183  1  0.182000  0.809200  0.008700  1
  H  H184  1  0.942000  0.220200  0.757900  1
  H  H185  1  0.757900  0.942000  0.220200  1
  H  H186  1  0.220200  0.757900  0.942000  1
  H  H187  1  0.938500  0.122600  0.722200  1
  H  H188  1  0.722200  0.938500  0.122600  1
  H  H189  1  0.122600  0.722200  0.938500  1
  H  H190  1  0.771000  0.975000  0.024000  1
  H  H191  1  0.024000  0.771000  0.975000  1
  H  H192  1  0.975000  0.024000  0.771000  1
  H  H193  1  0.741200  0.930100  0.941500  1
  H  H194  1  0.941500  0.741200  0.930100  1
  H  H195  1  0.930100  0.941500  0.741200  1
  H  H196  1  0.678200  0.924800  0.738500  1
  H  H197  1  0.738500  0.678200  0.924800  1
  H  H198  1  0.924800  0.738500  0.678200  1
  H  H199  1  0.634000  0.851500  0.677800  1
  H  H200  1  0.677800  0.634000  0.851500  1
  H  H201  1  0.851500  0.677800  0.634000  1
  H  H202  1  0.204000  0.308300  0.051300  1.0
  H  H203  1  0.051300  0.204000  0.308300  1.0
  H  H204  1  0.308300  0.051300  0.204000  1.0
  H  H205  1  0.932900  0.194500  0.008700  1.0
  H  H206  1  0.008700  0.932900  0.194500  1.0
  H  H207  1  0.194500  0.008700  0.932900  1.0
  H  H208  1  0.979500  0.568500  0.888400  1.0
  H  H209  1  0.888400  0.979500  0.568500  1.0
  H  H210  1  0.568500  0.888400  0.979500  1.0
  H  H211  1  0.053400  0.584100  0.779400  1.0
  H  H212  1  0.779400  0.053400  0.584100  1.0
  H  H213  1  0.584100  0.779400  0.053400  1.0
  H  H214  1  0.133700  0.493300  0.747600  1.0
  H  H215  1  0.747600  0.133700  0.493300  1.0
  H  H216  1  0.493300  0.747600  0.133700  1.0
  H  H217  1  0.174700  0.415400  0.842100  1.0
  H  H218  1  0.842100  0.174700  0.415400  1.0
  H  H219  1  0.415400  0.842100  0.174700  1.0
  H  H220  1  0.109100  0.320500  0.919200  1.0
  H  H221  1  0.919200  0.109100  0.320500  1.0
  H  H222  1  0.320500  0.919200  0.109100  1.0
  H  H223  1  0.049300  0.351100  0.973600  1.0
  H  H224  1  0.973600  0.049300  0.351100  1.0
  H  H225  1  0.351100  0.973600  0.049300  1.0
  H  H226  1  0.225900  0.436700  0.012600  1.0
  H  H227  1  0.012600  0.225900  0.436700  1.0
  H  H228  1  0.436700  0.012600  0.225900  1.0
  H  H229  1  0.165400  0.462200  0.068600  1.0
  H  H230  1  0.068600  0.165400  0.462200  1.0
  H  H231  1  0.462200  0.068600  0.165400  1.0
  H  H232  1  0.303900  0.268400  0.136200  1.0
  H  H233  1  0.136200  0.303900  0.268400  1.0
  H  H234  1  0.268400  0.136200  0.303900  1.0
  H  H235  1  0.837300  0.557500  0.040100  1.0
  H  H236  1  0.040100  0.837300  0.557500  1.0
  H  H237  1  0.557500  0.040100  0.837300  1.0
  H  H238  1  0.756400  0.570500  0.139200  1.0
  H  H239  1  0.139200  0.756400  0.570500  1.0
  H  H240  1  0.570500  0.139200  0.756400  1.0
  H  H241  1  0.750800  0.483100  0.225300  1.0
  H  H242  1  0.225300  0.750800  0.483100  1.0
  H  H243  1  0.483100  0.225300  0.750800  1.0
  H  H244  1  0.836000  0.393700  0.226200  1.0
  H  H245  1  0.226200  0.836000  0.393700  1.0
  H  H246  1  0.393700  0.226200  0.836000  1.0
  H  H247  1  0.957300  0.358200  0.192300  1.0
  H  H248  1  0.192300  0.957300  0.358200  1.0
  H  H249  1  0.358200  0.192300  0.957300  1.0
  H  H250  1  0.977700  0.372000  0.107400  1.0
  H  H251  1  0.107400  0.977700  0.372000  1.0
  H  H252  1  0.372000  0.107400  0.977700  1.0
  H  H253  1  0.837000  0.273700  0.032000  1.0
  H  H254  1  0.032000  0.837000  0.273700  1.0
  H  H255  1  0.273700  0.032000  0.837000  1.0
  H  H256  1  0.839900  0.250000  0.119100  1.0
  H  H257  1  0.119100  0.839900  0.250000  1.0
  H  H258  1  0.250000  0.119100  0.839900  1.0
  H  H259  1  0.003700  0.051900  0.172900  1.0
  H  H260  1  0.172900  0.003700  0.051900  1.0
  H  H261  1  0.051900  0.172900  0.003700  1.0
  H  H262  1  0.504800  0.332900  0.246800  1.0
  H  H263  1  0.246800  0.504800  0.332900  1.0
  H  H264  1  0.332900  0.246800  0.504800  1.0
  H  H265  1  0.561700  0.452500  0.879200  1.0
  H  H266  1  0.879200  0.561700  0.452500  1.0
  H  H267  1  0.452500  0.879200  0.561700  1.0
  H  H268  1  0.671600  0.403100  0.871500  1.0
  H  H269  1  0.871500  0.671600  0.403100  1.0
  H  H270  1  0.403100  0.871500  0.671600  1.0
  H  H271  1  0.695900  0.297100  0.935200  1.0
  H  H272  1  0.935200  0.695900  0.297100  1.0
  H  H273  1  0.297100  0.935200  0.695900  1.0
  H  H274  1  0.627100  0.271600  0.041500  1.0
  H  H275  1  0.041500  0.627100  0.271600  1.0
  H  H276  1  0.271600  0.041500  0.627100  1.0
  H  H277  1  0.457300  0.354000  0.071000  1.0
  H  H278  1  0.071000  0.457300  0.354000  1.0
  H  H279  1  0.354000  0.071000  0.457300  1.0
  H  H280  1  0.499500  0.280300  0.083900  1.0
  H  H281  1  0.083900  0.499500  0.280300  1.0
  H  H282  1  0.280300  0.083900  0.499500  1.0
  H  H283  1  0.615800  0.378600  0.189400  1.0
  H  H284  1  0.189400  0.615800  0.378600  1.0
  H  H285  1  0.378600  0.189400  0.615800  1.0
  H  H286  1  0.577300  0.454400  0.174900  1.0
  H  H287  1  0.174900  0.577300  0.454400  1.0
  H  H288  1  0.454400  0.174900  0.577300  1.0
  H  H289  1  0.370700  0.497000  0.327800  1.0
  H  H290  1  0.327800  0.370700  0.497000  1.0
  H  H291  1  0.497000  0.327800  0.370700  1.0
  H  H292  1  0.334400  0.558800  0.928500  1.0
  H  H293  1  0.928500  0.334400  0.558800  1.0
  H  H294  1  0.558800  0.928500  0.334400  1.0
  H  H295  1  0.247200  0.645200  0.974600  1.0
  H  H296  1  0.974600  0.247200  0.645200  1.0
  H  H297  1  0.645200  0.974600  0.247200  1.0
  H  H298  1  0.250800  0.676700  0.123100  1.0
  H  H299  1  0.123100  0.250800  0.676700  1.0
  H  H300  1  0.676700  0.123100  0.250800  1.0
  H  H301  1  0.426400  0.558900  0.159500  1.0
  H  H302  1  0.159500  0.426400  0.558900  1.0
  H  H303  1  0.558900  0.159500  0.426400  1.0
  H  H304  1  0.348900  0.593100  0.263700  1.0
  H  H305  1  0.263700  0.348900  0.593100  1.0
  H  H306  1  0.593100  0.263700  0.348900  1.0
  H  H307  1  0.294000  0.657900  0.252900  1.0
  H  H308  1  0.252900  0.294000  0.657900  1.0
  H  H309  1  0.657900  0.252900  0.294000  1.0
  H  H310  1  0.476000  0.704500  0.295500  1.0
  H  H311  1  0.295500  0.476000  0.704500  1.0
  H  H312  1  0.704500  0.295500  0.476000  1.0
  H  H313  1  0.421900  0.769400  0.282900  1.0
  H  H314  1  0.282900  0.421900  0.769400  1.0
  H  H315  1  0.769400  0.282900  0.421900  1.0
  H  H316  1  0.373500  0.733100  0.404200  1.0
  H  H317  1  0.404200  0.373500  0.733100  1.0
  H  H318  1  0.733100  0.404200  0.373500  1.0
  H  H319  1  0.464900  0.801700  0.424500  1.0
  H  H320  1  0.424500  0.464900  0.801700  1.0
  H  H321  1  0.801700  0.424500  0.464900  1.0
  H  H322  1  0.594100  0.614900  0.454800  1.0
  H  H323  1  0.454800  0.594100  0.614900  1.0
  H  H324  1  0.614900  0.454800  0.594100  1.0
  N  N325  1  0.031000  0.478000  0.916000  1.0
  N  N326  1  0.916000  0.031000  0.478000  1.0
  N  N327  1  0.478000  0.916000  0.031000  1.0
  N  N328  1  0.195000  0.355000  0.079000  1.0
  N  N329  1  0.079000  0.195000  0.355000  1.0
  N  N330  1  0.355000  0.079000  0.195000  1.0
  N  N331  1  0.886000  0.467000  0.078000  1.0
  N  N332  1  0.078000  0.886000  0.467000  1.0
  N  N333  1  0.467000  0.078000  0.886000  1.0
  N  N334  1  0.928000  0.208000  0.061000  1.0
  N  N335  1  0.061000  0.928000  0.208000  1.0
  N  N336  1  0.208000  0.061000  0.928000  1.0
  N  N337  1  0.537000  0.410000  0.980000  1.0
  N  N338  1  0.980000  0.537000  0.410000  1.0
  N  N339  1  0.410000  0.980000  0.537000  1.0
  N  N340  1  0.515000  0.383000  0.236000  1.0
  N  N341  1  0.236000  0.515000  0.383000  1.0
  N  N342  1  0.383000  0.236000  0.515000  1.0
  N  N343  1  0.389000  0.554000  0.041000  1.0
  N  N344  1  0.041000  0.389000  0.554000  1.0
  N  N345  1  0.554000  0.041000  0.389000  1.0
  O  O346  1  0.325000  0.671000  0.700000  1
  O  O347  1  0.700000  0.325000  0.671000  1
  O  O348  1  0.671000  0.700000  0.325000  1
  O  O349  1  0.915000  0.134000  0.890000  1
  O  O350  1  0.890000  0.915000  0.134000  1
  O  O351  1  0.134000  0.890000  0.915000  1
  O  O352  1  0.775000  0.974000  0.976000  1
  O  O353  1  0.976000  0.775000  0.974000  1
  O  O354  1  0.974000  0.976000  0.775000  1
  O  O355  1  0.676000  0.875000  0.720000  1
  O  O356  1  0.720000  0.676000  0.875000  1
  O  O357  1  0.875000  0.720000  0.676000  1
  O  O358  1  0.189000  0.429000  0.203000  1.0
  O  O359  1  0.203000  0.189000  0.429000  1.0
  O  O360  1  0.429000  0.203000  0.189000  1.0
  O  O361  1  0.959000  0.191000  0.194000  1.0
  O  O362  1  0.194000  0.959000  0.191000  1.0
  O  O363  1  0.191000  0.194000  0.959000  1.0
  O  O364  1  0.502000  0.518000  0.273000  1.0
  O  O365  1  0.273000  0.502000  0.518000  1.0
  O  O366  1  0.518000  0.273000  0.502000  1.0
  O  O367  1  0.475000  0.679000  0.427000  1.0
  O  O368  1  0.427000  0.475000  0.679000  1.0
  O  O369  1  0.679000  0.427000  0.475000  1.0
  O  O370  1  0.440000  0.719000  0.551000  1.0
  O  O371  1  0.551000  0.440000  0.719000  1.0
  O  O372  1  0.719000  0.551000  0.440000  1.0
  Pd  Pd373  1  0.960400  0.470100  0.000500  1.0
  Pd  Pd374  1  0.000500  0.960400  0.470100  1.0
  Pd  Pd375  1  0.470100  0.000500  0.960400  1.0
  Pd  Pd376  1  0.464100  0.483200  0.006700  1.0
  Pd  Pd377  1  0.006700  0.464100  0.483200  1.0
  Pd  Pd378  1  0.483200  0.006700  0.464100  1.0
