# generated using pymatgen
data_Zr3Si6C193N6
_symmetry_space_group_name_H-M   'P 1'
_cell_length_a   14.29600000
_cell_length_b   24.55250000
_cell_length_c   41.66340000
_cell_angle_alpha   90.00000000
_cell_angle_beta   90.00000000
_cell_angle_gamma   90.58000000
_symmetry_Int_Tables_number   1
_chemical_formula_structural   Zr3Si6C193N6
_chemical_formula_sum   'Zr12 Si24 C772 N24'
_cell_volume   14623.20994875
_cell_formula_units_Z   4
loop_
 _symmetry_equiv_pos_site_id
 _symmetry_equiv_pos_as_xyz
  1  'x, y, z'
loop_
 _atom_site_type_symbol
 _atom_site_label
 _atom_site_symmetry_multiplicity
 _atom_site_fract_x
 _atom_site_fract_y
 _atom_site_fract_z
 _atom_site_occupancy
  Zr  Zr1  1  0.370230  0.678120  0.251270  1
  Zr  Zr2  1  0.129770  0.821880  0.751270  1
  Zr  Zr3  1  0.629770  0.321880  0.748730  1
  Zr  Zr4  1  0.870230  0.178120  0.248730  1
  Zr  Zr5  1  0.278480  0.520640  0.823590  1
  Zr  Zr6  1  0.221520  0.979360  0.323590  1
  Zr  Zr7  1  0.721520  0.479360  0.176410  1
  Zr  Zr8  1  0.778480  0.020640  0.676410  1
  Zr  Zr9  1  0.631360  0.849960  0.457030  1
  Zr  Zr10  1  0.868640  0.650040  0.957030  1
  Zr  Zr11  1  0.368640  0.150040  0.542970  1
  Zr  Zr12  1  0.131360  0.349960  0.042970  1
  Si  Si13  1  0.471100  0.704000  0.332990  1
  Si  Si14  1  0.028900  0.796000  0.832990  1
  Si  Si15  1  0.528900  0.296000  0.667010  1
  Si  Si16  1  0.971100  0.204000  0.167010  1
  Si  Si17  1  0.414200  0.597700  0.760650  1
  Si  Si18  1  0.085800  0.902300  0.260650  1
  Si  Si19  1  0.585800  0.402300  0.239350  1
  Si  Si20  1  0.914200  0.097700  0.739350  1
  Si  Si21  1  0.161400  0.384700  0.814700  1
  Si  Si22  1  0.338600  0.115300  0.314700  1
  Si  Si23  1  0.838600  0.615300  0.185300  1
  Si  Si24  1  0.661400  0.884700  0.685300  1
  Si  Si25  1  0.682800  0.893100  0.540290  1
  Si  Si26  1  0.817200  0.606900  0.040290  1
  Si  Si27  1  0.317200  0.106900  0.459710  1
  Si  Si28  1  0.182800  0.393100  0.959710  1
  Si  Si29  1  0.690900  0.921200  0.381010  1
  Si  Si30  1  0.809100  0.578800  0.881010  1
  Si  Si31  1  0.309100  0.078800  0.618990  1
  Si  Si32  1  0.190900  0.421200  0.118990  1
  Si  Si33  1  0.208900  0.567100  0.225180  1
  Si  Si34  1  0.291100  0.932900  0.725180  1
  Si  Si35  1  0.791100  0.432900  0.774820  1
  Si  Si36  1  0.708900  0.067100  0.274820  1
  C  C37  1  0.394300  0.665600  0.304200  1
  C  C38  1  0.105700  0.834400  0.804200  1
  C  C39  1  0.605700  0.334400  0.695800  1
  C  C40  1  0.894300  0.165600  0.195800  1
  C  C41  1  0.334900  0.623400  0.313000  1
  C  C42  1  0.165100  0.876600  0.813000  1
  C  C43  1  0.665100  0.376600  0.687000  1
  C  C44  1  0.834900  0.123400  0.187000  1
  C  C45  1  0.326600  0.605300  0.347600  1
  C  C46  1  0.173400  0.894700  0.847600  1
  C  C47  1  0.673400  0.394700  0.652400  1
  C  C48  1  0.826600  0.105300  0.152400  1
  C  C49  1  0.366400  0.558000  0.358600  1
  C  C50  1  0.133600  0.942000  0.858600  1
  C  C51  1  0.633600  0.442000  0.641400  1
  C  C52  1  0.866400  0.058000  0.141400  1
  C  C53  1  0.275400  0.636500  0.368600  1
  C  C54  1  0.224600  0.863500  0.868600  1
  C  C55  1  0.724600  0.363500  0.631400  1
  C  C56  1  0.775400  0.136500  0.131400  1
  C  C57  1  0.358400  0.543400  0.390900  1
  C  C58  1  0.141600  0.956600  0.890900  1
  C  C59  1  0.641600  0.456600  0.609100  1
  C  C60  1  0.858400  0.043400  0.109100  1
  C  C61  1  0.268200  0.621000  0.400800  1
  C  C62  1  0.231800  0.879000  0.900800  1
  C  C63  1  0.731800  0.379000  0.599200  1
  C  C64  1  0.768200  0.121000  0.099200  1
  C  C65  1  0.308600  0.574600  0.412400  1
  C  C66  1  0.191400  0.925400  0.912400  1
  C  C67  1  0.691400  0.425400  0.587600  1
  C  C68  1  0.808600  0.074600  0.087600  1
  C  C69  1  0.227200  0.576300  0.465800  1
  C  C70  1  0.272800  0.923700  0.965800  1
  C  C71  1  0.772800  0.423700  0.534200  1
  C  C72  1  0.727200  0.076300  0.034200  1
  C  C73  1  0.305100  0.560500  0.447600  1
  C  C74  1  0.194900  0.939500  0.947600  1
  C  C75  1  0.694900  0.439500  0.552400  1
  C  C76  1  0.805100  0.060500  0.052400  1
  C  C77  1  0.376700  0.534500  0.463100  1
  C  C78  1  0.123300  0.965500  0.963100  1
  C  C79  1  0.623300  0.465500  0.536900  1
  C  C80  1  0.876700  0.034500  0.036900  1
  C  C81  1  0.372100  0.527600  0.495900  1
  C  C82  1  0.127900  0.972400  0.995900  1
  C  C83  1  0.627900  0.472400  0.504100  1
  C  C84  1  0.872100  0.027600  0.004100  1
  C  C85  1  0.297400  0.544900  0.512500  1
  C  C86  1  0.202600  0.955100  0.012500  1
  C  C87  1  0.702600  0.455100  0.487500  1
  C  C88  1  0.797400  0.044900  0.987500  1
  C  C89  1  0.291300  0.542200  0.548700  1
  C  C90  1  0.208700  0.957800  0.048700  1
  C  C91  1  0.708700  0.457800  0.451300  1
  C  C92  1  0.791300  0.042200  0.951300  1
  C  C93  1  0.214300  0.558600  0.564600  1
  C  C94  1  0.285700  0.941400  0.064600  1
  C  C95  1  0.785700  0.441400  0.435400  1
  C  C96  1  0.714300  0.058600  0.935400  1
  C  C97  1  0.210400  0.555600  0.598300  1
  C  C98  1  0.289600  0.944400  0.098300  1
  C  C99  1  0.789600  0.444400  0.401700  1
  C  C100  1  0.710400  0.055600  0.901700  1
  C  C101  1  0.288900  0.533600  0.614800  1
  C  C102  1  0.211100  0.966400  0.114800  1
  C  C103  1  0.711100  0.466400  0.385200  1
  C  C104  1  0.788900  0.033600  0.885200  1
  C  C105  1  0.365000  0.519500  0.595900  1
  C  C106  1  0.135000  0.980500  0.095900  1
  C  C107  1  0.635000  0.480500  0.404100  1
  C  C108  1  0.865000  0.019500  0.904100  1
  C  C109  1  0.291800  0.528400  0.650400  1
  C  C110  1  0.208200  0.971600  0.150400  1
  C  C111  1  0.708200  0.471600  0.349600  1
  C  C112  1  0.791800  0.028400  0.849600  1
  C  C113  1  0.345900  0.489000  0.665500  1
  C  C114  1  0.154100  0.011000  0.165500  1
  C  C115  1  0.654100  0.511000  0.334500  1
  C  C116  1  0.845900  0.989000  0.834500  1
  C  C117  1  0.236200  0.561600  0.669900  1
  C  C118  1  0.263800  0.938400  0.169900  1
  C  C119  1  0.763800  0.438400  0.330100  1
  C  C120  1  0.736200  0.061600  0.830100  1
  C  C121  1  0.346300  0.482800  0.698600  1
  C  C122  1  0.153700  0.017200  0.198600  1
  C  C123  1  0.653700  0.517200  0.301400  1
  C  C124  1  0.846300  0.982800  0.801400  1
  C  C125  1  0.235300  0.553500  0.703000  1
  C  C126  1  0.264700  0.946500  0.203000  1
  C  C127  1  0.764700  0.446500  0.297000  1
  C  C128  1  0.735300  0.053500  0.797000  1
  C  C129  1  0.289900  0.514900  0.718000  1
  C  C130  1  0.210100  0.985100  0.218000  1
  C  C131  1  0.710100  0.485100  0.282000  1
  C  C132  1  0.789900  0.014900  0.782000  1
  C  C133  1  0.286400  0.506900  0.753800  1
  C  C134  1  0.213600  0.993100  0.253800  1
  C  C135  1  0.713600  0.493100  0.246200  1
  C  C136  1  0.786400  0.006900  0.746200  1
  C  C137  1  0.330000  0.543900  0.773700  1
  C  C138  1  0.170000  0.956100  0.273700  1
  C  C139  1  0.670000  0.456100  0.226300  1
  C  C140  1  0.830000  0.043900  0.726300  1
  C  C141  1  0.216600  0.448300  0.797500  1
  C  C142  1  0.283400  0.051700  0.297500  1
  C  C143  1  0.783400  0.551700  0.202500  1
  C  C144  1  0.716600  0.948300  0.702500  1
  C  C145  1  0.231300  0.457900  0.765100  1
  C  C146  1  0.268700  0.042100  0.265100  1
  C  C147  1  0.768700  0.542100  0.234900  1
  C  C148  1  0.731300  0.957900  0.734900  1
  C  C149  1  0.195500  0.419600  0.740000  1
  C  C150  1  0.304500  0.080400  0.240000  1
  C  C151  1  0.804500  0.580400  0.260000  1
  C  C152  1  0.695500  0.919600  0.760000  1
  C  C153  1  0.231500  0.367600  0.736600  1
  C  C154  1  0.268500  0.132400  0.236600  1
  C  C155  1  0.768500  0.632400  0.263400  1
  C  C156  1  0.731500  0.867600  0.763400  1
  C  C157  1  0.120900  0.433600  0.720500  1
  C  C158  1  0.379100  0.066400  0.220500  1
  C  C159  1  0.879100  0.566400  0.279500  1
  C  C160  1  0.620900  0.933600  0.779500  1
  C  C161  1  0.192700  0.330500  0.714700  1
  C  C162  1  0.307300  0.169500  0.214700  1
  C  C163  1  0.807300  0.669500  0.285300  1
  C  C164  1  0.692700  0.830500  0.785300  1
  C  C165  1  0.081400  0.396400  0.699200  1
  C  C166  1  0.418600  0.103600  0.199200  1
  C  C167  1  0.918600  0.603600  0.300800  1
  C  C168  1  0.581400  0.896400  0.800800  1
  C  C169  1  0.115600  0.344900  0.696300  1
  C  C170  1  0.384400  0.155100  0.196300  1
  C  C171  1  0.884400  0.655100  0.303700  1
  C  C172  1  0.615600  0.844900  0.803700  1
  C  C173  1  0.978700  0.299700  0.668500  1
  C  C174  1  0.521300  0.200300  0.168500  1
  C  C175  1  0.021300  0.700300  0.331500  1
  C  C176  1  0.478700  0.799700  0.831500  1
  C  C177  1  0.072700  0.304700  0.673600  1
  C  C178  1  0.427300  0.195300  0.173600  1
  C  C179  1  0.927300  0.695300  0.326400  1
  C  C180  1  0.572700  0.804700  0.826400  1
  C  C181  1  0.128400  0.268800  0.657100  1
  C  C182  1  0.371600  0.231200  0.157100  1
  C  C183  1  0.871600  0.731200  0.342900  1
  C  C184  1  0.628400  0.768800  0.842900  1
  C  C185  1  0.087200  0.231700  0.635300  1
  C  C186  1  0.412800  0.268300  0.135300  1
  C  C187  1  0.912800  0.768300  0.364700  1
  C  C188  1  0.587200  0.731700  0.864700  1
  C  C189  1  0.991300  0.232700  0.631700  1
  C  C190  1  0.508700  0.267300  0.131700  1
  C  C191  1  0.008700  0.767300  0.368300  1
  C  C192  1  0.491300  0.732700  0.868300  1
  C  C193  1  0.946100  0.195100  0.607900  1
  C  C194  1  0.553900  0.304900  0.107900  1
  C  C195  1  0.053900  0.804900  0.392100  1
  C  C196  1  0.446100  0.695100  0.892100  1
  C  C197  1  0.854000  0.198500  0.599400  1
  C  C198  1  0.646000  0.301500  0.099400  1
  C  C199  1  0.146000  0.801500  0.400600  1
  C  C200  1  0.354000  0.698500  0.900600  1
  C  C201  1  0.819300  0.161600  0.576600  1
  C  C202  1  0.680700  0.338400  0.076600  1
  C  C203  1  0.180700  0.838400  0.423400  1
  C  C204  1  0.319300  0.661600  0.923400  1
  C  C205  1  0.875200  0.121900  0.563300  1
  C  C206  1  0.624800  0.378100  0.063300  1
  C  C207  1  0.124800  0.878100  0.436700  1
  C  C208  1  0.375200  0.621900  0.936700  1
  C  C209  1  0.967300  0.123700  0.572900  1
  C  C210  1  0.532700  0.376300  0.072900  1
  C  C211  1  0.032700  0.876300  0.427100  1
  C  C212  1  0.467300  0.623700  0.927100  1
  C  C213  1  0.838400  0.078800  0.540800  1
  C  C214  1  0.661600  0.421200  0.040800  1
  C  C215  1  0.161600  0.921200  0.459200  1
  C  C216  1  0.338400  0.578800  0.959200  1
  C  C217  1  0.900000  0.047600  0.520600  1
  C  C218  1  0.600000  0.452400  0.020600  1
  C  C219  1  0.100000  0.952400  0.479400  1
  C  C220  1  0.400000  0.547600  0.979400  1
  C  C221  1  0.742000  0.065900  0.539200  1
  C  C222  1  0.758000  0.434100  0.039200  1
  C  C223  1  0.258000  0.934100  0.460800  1
  C  C224  1  0.242000  0.565900  0.960800  1
  C  C225  1  0.864000  0.006100  0.501700  1
  C  C226  1  0.636000  0.493900  0.001700  1
  C  C227  1  0.136000  0.993900  0.498300  1
  C  C228  1  0.364000  0.506100  0.998300  1
  C  C229  1  0.707000  0.024100  0.520200  1
  C  C230  1  0.793000  0.475900  0.020200  1
  C  C231  1  0.293000  0.975900  0.479800  1
  C  C232  1  0.207000  0.524100  0.979800  1
  C  C233  1  0.769800  0.994300  0.501000  1
  C  C234  1  0.730200  0.505700  0.001000  1
  C  C235  1  0.230200  0.005700  0.499000  1
  C  C236  1  0.269800  0.494300  0.999000  1
  C  C237  1  0.730600  0.947900  0.481700  1
  C  C238  1  0.769400  0.552100  0.981700  1
  C  C239  1  0.269400  0.052100  0.518300  1
  C  C240  1  0.230600  0.447900  0.018300  1
  C  C241  1  0.691000  0.904100  0.496300  1
  C  C242  1  0.809000  0.595900  0.996300  1
  C  C243  1  0.309000  0.095900  0.503700  1
  C  C244  1  0.191000  0.404100  0.003700  1
  C  C245  1  0.693000  0.916300  0.425300  1
  C  C246  1  0.807000  0.583700  0.925300  1
  C  C247  1  0.307000  0.083700  0.574700  1
  C  C248  1  0.193000  0.416300  0.074700  1
  C  C249  1  0.732100  0.954500  0.445700  1
  C  C250  1  0.767900  0.545500  0.945700  1
  C  C251  1  0.267900  0.045500  0.554300  1
  C  C252  1  0.232100  0.454500  0.054300  1
  C  C253  1  0.775700  0.006000  0.432500  1
  C  C254  1  0.724300  0.494000  0.932500  1
  C  C255  1  0.224300  0.994000  0.567500  1
  C  C256  1  0.275700  0.506000  0.067500  1
  C  C257  1  0.871000  0.017000  0.433200  1
  C  C258  1  0.629000  0.483000  0.933200  1
  C  C259  1  0.129000  0.983000  0.566800  1
  C  C260  1  0.371000  0.517000  0.066800  1
  C  C261  1  0.715000  0.047000  0.418700  1
  C  C262  1  0.785000  0.453000  0.918700  1
  C  C263  1  0.285000  0.953000  0.581300  1
  C  C264  1  0.215000  0.547000  0.081300  1
  C  C265  1  0.907000  0.065400  0.419100  1
  C  C266  1  0.593000  0.434600  0.919100  1
  C  C267  1  0.093000  0.934600  0.580900  1
  C  C268  1  0.407000  0.565400  0.080900  1
  C  C269  1  0.756000  0.094000  0.404600  1
  C  C270  1  0.744000  0.406000  0.904600  1
  C  C271  1  0.244000  0.906000  0.595400  1
  C  C272  1  0.256000  0.594000  0.095400  1
  C  C273  1  0.854200  0.101900  0.405700  1
  C  C274  1  0.645800  0.398100  0.905700  1
  C  C275  1  0.145800  0.898100  0.594300  1
  C  C276  1  0.354200  0.601900  0.094300  1
  C  C277  1  0.990100  0.160900  0.389000  1
  C  C278  1  0.509900  0.339100  0.889000  1
  C  C279  1  0.009900  0.839100  0.611000  1
  C  C280  1  0.490100  0.660900  0.111000  1
  C  C281  1  0.893700  0.153300  0.391900  1
  C  C282  1  0.606300  0.346700  0.891900  1
  C  C283  1  0.106300  0.846700  0.608100  1
  C  C284  1  0.393700  0.653300  0.108100  1
  C  C285  1  0.838000  0.196500  0.382300  1
  C  C286  1  0.662000  0.303500  0.882300  1
  C  C287  1  0.162000  0.803500  0.617700  1
  C  C288  1  0.338000  0.696500  0.117700  1
  C  C289  1  0.881200  0.244400  0.372300  1
  C  C290  1  0.618800  0.255600  0.872300  1
  C  C291  1  0.118800  0.755600  0.627700  1
  C  C292  1  0.381200  0.744400  0.127700  1
  C  C293  1  0.974200  0.249700  0.371000  1
  C  C294  1  0.525800  0.250300  0.871000  1
  C  C295  1  0.025800  0.750300  0.629000  1
  C  C296  1  0.474200  0.749700  0.129000  1
  C  C297  1  0.021100  0.300400  0.360900  1
  C  C298  1  0.478900  0.199600  0.860900  1
  C  C299  1  0.978900  0.699600  0.639100  1
  C  C300  1  0.521100  0.800400  0.139100  1
  C  C301  1  0.117700  0.306500  0.363100  1
  C  C302  1  0.382300  0.193500  0.863100  1
  C  C303  1  0.882300  0.693500  0.636900  1
  C  C304  1  0.617700  0.806500  0.136900  1
  C  C305  1  0.161700  0.354700  0.352500  1
  C  C306  1  0.338300  0.145300  0.852500  1
  C  C307  1  0.838300  0.645300  0.647500  1
  C  C308  1  0.661700  0.854700  0.147500  1
  C  C309  1  0.106500  0.395200  0.340200  1
  C  C310  1  0.393500  0.104800  0.840200  1
  C  C311  1  0.893500  0.604800  0.659800  1
  C  C312  1  0.606500  0.895200  0.159800  1
  C  C313  1  0.010600  0.387200  0.339500  1
  C  C314  1  0.489400  0.112800  0.839500  1
  C  C315  1  0.989400  0.612800  0.660500  1
  C  C316  1  0.510600  0.887200  0.160500  1
  C  C317  1  0.148500  0.445800  0.327100  1
  C  C318  1  0.351500  0.054200  0.827100  1
  C  C319  1  0.851500  0.554200  0.672900  1
  C  C320  1  0.648500  0.945800  0.172900  1
  C  C321  1  0.227500  0.443000  0.307800  1
  C  C322  1  0.272500  0.057000  0.807800  1
  C  C323  1  0.772500  0.557000  0.692200  1
  C  C324  1  0.727500  0.943000  0.192200  1
  C  C325  1  0.109200  0.497000  0.333500  1
  C  C326  1  0.390800  0.003000  0.833500  1
  C  C327  1  0.890800  0.503000  0.666500  1
  C  C328  1  0.609200  0.997000  0.166500  1
  C  C329  1  0.267500  0.491700  0.295800  1
  C  C330  1  0.232500  0.008300  0.795800  1
  C  C331  1  0.732500  0.508300  0.704200  1
  C  C332  1  0.767500  0.991700  0.204200  1
  C  C333  1  0.152600  0.545200  0.321100  1
  C  C334  1  0.347400  0.954800  0.821100  1
  C  C335  1  0.847400  0.454800  0.678900  1
  C  C336  1  0.652600  0.045200  0.178900  1
  C  C337  1  0.231600  0.541200  0.301800  1
  C  C338  1  0.268400  0.958800  0.801800  1
  C  C339  1  0.768400  0.458800  0.698200  1
  C  C340  1  0.731600  0.041200  0.198200  1
  C  C341  1  0.279600  0.592000  0.288900  1
  C  C342  1  0.220400  0.908000  0.788900  1
  C  C343  1  0.720400  0.408000  0.711100  1
  C  C344  1  0.779600  0.092000  0.211100  1
  C  C345  1  0.272500  0.605500  0.256700  1
  C  C346  1  0.227500  0.894500  0.756700  1
  C  C347  1  0.727500  0.394500  0.743300  1
  C  C348  1  0.772500  0.105500  0.243300  1
  C  C349  1  0.405100  0.755900  0.356200  1
  C  C350  1  0.094900  0.744100  0.856200  1
  C  C351  1  0.594900  0.244100  0.643800  1
  C  C352  1  0.905100  0.255900  0.143800  1
  C  C353  1  0.566100  0.740900  0.310600  1
  C  C354  1  0.933900  0.759100  0.810600  1
  C  C355  1  0.433900  0.259100  0.689400  1
  C  C356  1  0.066100  0.240900  0.189400  1
  C  C357  1  0.536600  0.660000  0.361500  1
  C  C358  1  0.963400  0.840000  0.861500  1
  C  C359  1  0.463400  0.340000  0.638500  1
  C  C360  1  0.036600  0.160000  0.138500  1
  C  C361  1  0.520900  0.563100  0.744900  1
  C  C362  1  0.979100  0.936900  0.244900  1
  C  C363  1  0.479100  0.436900  0.255100  1
  C  C364  1  0.020900  0.063100  0.755100  1
  C  C365  1  0.377200  0.645500  0.728900  1
  C  C366  1  0.122800  0.854500  0.228900  1
  C  C367  1  0.622800  0.354500  0.271100  1
  C  C368  1  0.877200  0.145500  0.771100  1
  C  C369  1  0.451000  0.640100  0.795000  1
  C  C370  1  0.049000  0.859900  0.295000  1
  C  C371  1  0.549000  0.359900  0.205000  1
  C  C372  1  0.951000  0.140100  0.705000  1
  C  C373  1  0.099700  0.401800  0.852800  1
  C  C374  1  0.400300  0.098200  0.352800  1
  C  C375  1  0.900300  0.598200  0.147200  1
  C  C376  1  0.599700  0.901800  0.647200  1
  C  C377  1  0.254300  0.335100  0.825000  1
  C  C378  1  0.245700  0.164900  0.325000  1
  C  C379  1  0.745700  0.664900  0.175000  1
  C  C380  1  0.754300  0.835100  0.675000  1
  C  C381  1  0.071200  0.347600  0.790900  1
  C  C382  1  0.428800  0.152400  0.290900  1
  C  C383  1  0.928800  0.652400  0.209100  1
  C  C384  1  0.571200  0.847600  0.709100  1
  C  C385  1  0.637000  0.961400  0.563200  1
  C  C386  1  0.863000  0.538600  0.063200  1
  C  C387  1  0.363000  0.038600  0.436800  1
  C  C388  1  0.137000  0.461400  0.936800  1
  C  C389  1  0.795000  0.889200  0.559800  1
  C  C390  1  0.705000  0.610800  0.059800  1
  C  C391  1  0.205000  0.110800  0.440200  1
  C  C392  1  0.295000  0.389200  0.940200  1
  C  C393  1  0.660000  0.810800  0.547500  1
  C  C394  1  0.840000  0.689200  0.047500  1
  C  C395  1  0.340000  0.189200  0.452500  1
  C  C396  1  0.160000  0.310800  0.952500  1
  C  C397  1  0.675000  0.842800  0.365600  1
  C  C398  1  0.825000  0.657200  0.865600  1
  C  C399  1  0.325000  0.157200  0.634400  1
  C  C400  1  0.175000  0.342800  0.134400  1
  C  C401  1  0.794000  0.908000  0.360400  1
  C  C402  1  0.706000  0.592000  0.860400  1
  C  C403  1  0.206000  0.092000  0.639600  1
  C  C404  1  0.294000  0.408000  0.139600  1
  C  C405  1  0.619000  0.967000  0.362900  1
  C  C406  1  0.881000  0.533000  0.862900  1
  C  C407  1  0.381000  0.033000  0.637100  1
  C  C408  1  0.119000  0.467000  0.137100  1
  C  C409  1  0.096400  0.534800  0.238100  1
  C  C410  1  0.403600  0.965200  0.738100  1
  C  C411  1  0.903600  0.465200  0.761900  1
  C  C412  1  0.596400  0.034800  0.261900  1
  C  C413  1  0.282500  0.511900  0.207800  1
  C  C414  1  0.217500  0.988100  0.707800  1
  C  C415  1  0.717500  0.488100  0.792200  1
  C  C416  1  0.782500  0.011900  0.292200  1
  C  C417  1  0.180600  0.613700  0.191300  1
  C  C418  1  0.319400  0.886300  0.691300  1
  C  C419  1  0.819400  0.386300  0.808700  1
  C  C420  1  0.680600  0.113700  0.308700  1
  C  C421  1  0.469000  0.601000  0.232500  1
  C  C422  1  0.031000  0.899000  0.732500  1
  C  C423  1  0.531000  0.399000  0.767500  1
  C  C424  1  0.969000  0.101000  0.267500  1
  C  C425  1  0.445300  0.627900  0.204800  1
  C  C426  1  0.054700  0.872100  0.704800  1
  C  C427  1  0.554700  0.372100  0.795200  1
  C  C428  1  0.945300  0.127900  0.295200  1
  C  C429  1  0.486700  0.679200  0.206500  1
  C  C430  1  0.013300  0.820800  0.706500  1
  C  C431  1  0.513300  0.320800  0.793500  1
  C  C432  1  0.986700  0.179200  0.293500  1
  C  C433  1  0.537500  0.684600  0.234500  1
  C  C434  1  0.962500  0.815400  0.734500  1
  C  C435  1  0.462500  0.315400  0.765500  1
  C  C436  1  0.037500  0.184600  0.265500  1
  C  C437  1  0.527600  0.633700  0.251400  1
  C  C438  1  0.972400  0.866300  0.751400  1
  C  C439  1  0.472400  0.366300  0.748600  1
  C  C440  1  0.027600  0.133700  0.248600  1
  C  C441  1  0.269300  0.740500  0.219400  1
  C  C442  1  0.230700  0.759500  0.719400  1
  C  C443  1  0.730700  0.259500  0.780600  1
  C  C444  1  0.769300  0.240500  0.280600  1
  C  C445  1  0.342500  0.773400  0.230400  1
  C  C446  1  0.157500  0.726600  0.730400  1
  C  C447  1  0.657500  0.226600  0.769600  1
  C  C448  1  0.842500  0.273400  0.269600  1
  C  C449  1  0.337900  0.776800  0.263500  1
  C  C450  1  0.162100  0.723200  0.763500  1
  C  C451  1  0.662100  0.223200  0.736500  1
  C  C452  1  0.837900  0.276800  0.236500  1
  C  C453  1  0.259800  0.747600  0.273900  1
  C  C454  1  0.240200  0.752400  0.773900  1
  C  C455  1  0.740200  0.252400  0.726100  1
  C  C456  1  0.759800  0.247600  0.226100  1
  C  C457  1  0.215300  0.725500  0.246600  1
  C  C458  1  0.284700  0.774500  0.746600  1
  C  C459  1  0.784700  0.274500  0.753400  1
  C  C460  1  0.715300  0.225500  0.253400  1
  C  C461  1  0.450000  0.502000  0.831300  1
  C  C462  1  0.050000  0.998000  0.331300  1
  C  C463  1  0.550000  0.498000  0.168700  1
  C  C464  1  0.950000  0.002000  0.668700  1
  C  C465  1  0.403300  0.452500  0.834900  1
  C  C466  1  0.096700  0.047500  0.334900  1
  C  C467  1  0.596700  0.547500  0.165100  1
  C  C468  1  0.903300  0.952500  0.665100  1
  C  C469  1  0.350400  0.455200  0.862300  1
  C  C470  1  0.149600  0.044800  0.362300  1
  C  C471  1  0.649600  0.544800  0.137700  1
  C  C472  1  0.850400  0.955200  0.637700  1
  C  C473  1  0.362600  0.506400  0.876700  1
  C  C474  1  0.137400  0.993600  0.376700  1
  C  C475  1  0.637400  0.493600  0.123300  1
  C  C476  1  0.862600  0.006400  0.623300  1
  C  C477  1  0.423000  0.536100  0.856200  1
  C  C478  1  0.077000  0.963900  0.356200  1
  C  C479  1  0.577000  0.463900  0.143800  1
  C  C480  1  0.923000  0.036100  0.643800  1
  C  C481  1  0.101000  0.539300  0.830000  1
  C  C482  1  0.399000  0.960700  0.330000  1
  C  C483  1  0.899000  0.460700  0.170000  1
  C  C484  1  0.601000  0.039300  0.670000  1
  C  C485  1  0.134000  0.574000  0.804100  1
  C  C486  1  0.366000  0.926000  0.304100  1
  C  C487  1  0.866000  0.426000  0.195900  1
  C  C488  1  0.634000  0.074000  0.695900  1
  C  C489  1  0.204000  0.616000  0.817000  1
  C  C490  1  0.296000  0.884000  0.317000  1
  C  C491  1  0.796000  0.384000  0.183000  1
  C  C492  1  0.704000  0.116000  0.683000  1
  C  C493  1  0.215000  0.605000  0.851000  1
  C  C494  1  0.285000  0.895000  0.351000  1
  C  C495  1  0.785000  0.395000  0.149000  1
  C  C496  1  0.715000  0.105000  0.649000  1
  C  C497  1  0.155000  0.556000  0.860800  1
  C  C498  1  0.345000  0.944000  0.360800  1
  C  C499  1  0.845000  0.444000  0.139200  1
  C  C500  1  0.655000  0.056000  0.639200  1
  C  C501  1  0.645000  0.752900  0.435400  1
  C  C502  1  0.855000  0.747100  0.935400  1
  C  C503  1  0.355000  0.247100  0.564600  1
  C  C504  1  0.145000  0.252900  0.064600  1
  C  C505  1  0.673400  0.753100  0.468600  1
  C  C506  1  0.826600  0.746900  0.968600  1
  C  C507  1  0.326600  0.246900  0.531400  1
  C  C508  1  0.173400  0.253100  0.031400  1
  C  C509  1  0.756000  0.785900  0.469100  1
  C  C510  1  0.744000  0.714100  0.969100  1
  C  C511  1  0.244000  0.214100  0.530900  1
  C  C512  1  0.256000  0.285900  0.030900  1
  C  C513  1  0.712000  0.786200  0.417700  1
  C  C514  1  0.788000  0.713800  0.917700  1
  C  C515  1  0.288000  0.213800  0.582300  1
  C  C516  1  0.212000  0.286200  0.082300  1
  C  C517  1  0.781800  0.803700  0.439600  1
  C  C518  1  0.718200  0.696300  0.939600  1
  C  C519  1  0.218200  0.196300  0.560400  1
  C  C520  1  0.281800  0.303700  0.060400  1
  C  C521  1  0.461000  0.816100  0.459400  1
  C  C522  1  0.039000  0.683900  0.959400  1
  C  C523  1  0.539000  0.183900  0.540600  1
  C  C524  1  0.961000  0.316100  0.040600  1
  C  C525  1  0.475000  0.855900  0.428300  1
  C  C526  1  0.025000  0.644100  0.928300  1
  C  C527  1  0.525000  0.144100  0.571700  1
  C  C528  1  0.975000  0.355900  0.071700  1
  C  C529  1  0.481000  0.894900  0.437500  1
  C  C530  1  0.019000  0.605100  0.937500  1
  C  C531  1  0.519000  0.105100  0.562500  1
  C  C532  1  0.981000  0.394900  0.062500  1
  C  C533  1  0.489000  0.908500  0.472600  1
  C  C534  1  0.011000  0.591500  0.972600  1
  C  C535  1  0.511000  0.091500  0.527400  1
  C  C536  1  0.989000  0.408500  0.027400  1
  C  C537  1  0.474000  0.853000  0.488600  1
  C  C538  1  0.026000  0.647000  0.988600  1
  C  C539  1  0.526000  0.147000  0.511400  1
  C  C540  1  0.974000  0.353000  0.011400  1
  C  C541  1  0.378200  0.288900  0.375200  1
  C  C542  1  0.121800  0.211100  0.875200  1
  C  C543  1  0.621800  0.711100  0.624800  1
  C  C544  1  0.878200  0.788900  0.124800  1
  C  C545  1  0.391000  0.325100  0.399300  1
  C  C546  1  0.109000  0.174900  0.899300  1
  C  C547  1  0.609000  0.674900  0.600700  1
  C  C548  1  0.891000  0.825100  0.100700  1
  C  C549  1  0.426000  0.377100  0.392700  1
  C  C550  1  0.074000  0.122900  0.892700  1
  C  C551  1  0.574000  0.622900  0.607300  1
  C  C552  1  0.926000  0.877100  0.107300  1
  C  C553  1  0.446700  0.391400  0.361300  1
  C  C554  1  0.053300  0.108600  0.861300  1
  C  C555  1  0.553300  0.608600  0.638700  1
  C  C556  1  0.946700  0.891400  0.138700  1
  C  C557  1  0.432000  0.355200  0.336800  1
  C  C558  1  0.068000  0.144800  0.836800  1
  C  C559  1  0.568000  0.644800  0.663200  1
  C  C560  1  0.932000  0.855200  0.163200  1
  C  C561  1  0.397200  0.303200  0.344200  1
  C  C562  1  0.102800  0.196800  0.844200  1
  C  C563  1  0.602800  0.696800  0.655800  1
  C  C564  1  0.897200  0.803200  0.155800  1
  C  C565  1  0.125100  0.321000  0.272500  1
  C  C566  1  0.374900  0.179000  0.772500  1
  C  C567  1  0.874900  0.679000  0.727500  1
  C  C568  1  0.625100  0.821000  0.227500  1
  C  C569  1  0.209500  0.299500  0.272000  1
  C  C570  1  0.290500  0.200500  0.772000  1
  C  C571  1  0.790500  0.700500  0.728000  1
  C  C572  1  0.709500  0.799500  0.228000  1
  C  C573  1  0.275800  0.314400  0.249100  1
  C  C574  1  0.224200  0.185600  0.749100  1
  C  C575  1  0.724200  0.685600  0.750900  1
  C  C576  1  0.775800  0.814400  0.250900  1
  C  C577  1  0.250700  0.355000  0.227300  1
  C  C578  1  0.249300  0.145000  0.727300  1
  C  C579  1  0.749300  0.645000  0.772700  1
  C  C580  1  0.750700  0.855000  0.272700  1
  C  C581  1  0.168300  0.376000  0.228400  1
  C  C582  1  0.331700  0.124000  0.728400  1
  C  C583  1  0.831700  0.624000  0.771600  1
  C  C584  1  0.668300  0.876000  0.271600  1
  C  C585  1  0.099700  0.360300  0.250900  1
  C  C586  1  0.400300  0.139700  0.750900  1
  C  C587  1  0.900300  0.639700  0.749100  1
  C  C588  1  0.599700  0.860300  0.249100  1
  C  C589  1  0.658000  0.309100  0.394400  1
  C  C590  1  0.842000  0.190900  0.894400  1
  C  C591  1  0.342000  0.690900  0.605600  1
  C  C592  1  0.158000  0.809100  0.105600  1
  C  C593  1  0.623000  0.279700  0.365000  1
  C  C594  1  0.877000  0.220300  0.865000  1
  C  C595  1  0.377000  0.720300  0.635000  1
  C  C596  1  0.123000  0.779700  0.135000  1
  C  C597  1  0.584000  0.222000  0.371900  1
  C  C598  1  0.916000  0.278000  0.871900  1
  C  C599  1  0.416000  0.778000  0.628100  1
  C  C600  1  0.084000  0.722000  0.128100  1
  C  C601  1  0.589000  0.211400  0.406500  1
  C  C602  1  0.911000  0.288600  0.906500  1
  C  C603  1  0.411000  0.788600  0.593500  1
  C  C604  1  0.089000  0.711400  0.093500  1
  C  C605  1  0.632000  0.236200  0.430200  1
  C  C606  1  0.868000  0.263800  0.930200  1
  C  C607  1  0.368000  0.763800  0.569800  1
  C  C608  1  0.132000  0.736200  0.069800  1
  C  C609  1  0.670000  0.291500  0.422400  1
  C  C610  1  0.830000  0.208500  0.922400  1
  C  C611  1  0.330000  0.708500  0.577600  1
  C  C612  1  0.170000  0.791500  0.077600  1
  C  C613  1  0.190000  0.410800  0.440900  1
  C  C614  1  0.310000  0.089200  0.940900  1
  C  C615  1  0.810000  0.589200  0.559100  1
  C  C616  1  0.690000  0.910800  0.059100  1
  C  C617  1  0.161000  0.395000  0.471900  1
  C  C618  1  0.339000  0.105000  0.971900  1
  C  C619  1  0.839000  0.605000  0.528100  1
  C  C620  1  0.661000  0.895000  0.028100  1
  C  C621  1  0.092000  0.428000  0.486500  1
  C  C622  1  0.408000  0.072000  0.986500  1
  C  C623  1  0.908000  0.572000  0.513500  1
  C  C624  1  0.592000  0.928000  0.013500  1
  C  C625  1  0.033000  0.459200  0.467400  1
  C  C626  1  0.467000  0.040800  0.967400  1
  C  C627  1  0.967000  0.540800  0.532600  1
  C  C628  1  0.533000  0.959200  0.032600  1
  C  C629  1  0.060000  0.469400  0.436600  1
  C  C630  1  0.440000  0.030600  0.936600  1
  C  C631  1  0.940000  0.530600  0.563400  1
  C  C632  1  0.560000  0.969400  0.063400  1
  C  C633  1  0.141000  0.448200  0.423500  1
  C  C634  1  0.359000  0.051800  0.923500  1
  C  C635  1  0.859000  0.551800  0.576500  1
  C  C636  1  0.641000  0.948200  0.076500  1
  C  C637  1  0.088000  0.331500  0.565500  1
  C  C638  1  0.412000  0.168500  0.065500  1
  C  C639  1  0.912000  0.668500  0.434500  1
  C  C640  1  0.588000  0.831500  0.934500  1
  C  C641  1  0.172000  0.358100  0.572500  1
  C  C642  1  0.328000  0.141900  0.072500  1
  C  C643  1  0.828000  0.641900  0.427500  1
  C  C644  1  0.672000  0.858100  0.927500  1
  C  C645  1  0.178000  0.396300  0.594500  1
  C  C646  1  0.322000  0.103700  0.094500  1
  C  C647  1  0.822000  0.603700  0.405500  1
  C  C648  1  0.678000  0.896300  0.905500  1
  C  C649  1  0.096000  0.416400  0.607500  1
  C  C650  1  0.404000  0.083600  0.107500  1
  C  C651  1  0.904000  0.583600  0.392500  1
  C  C652  1  0.596000  0.916400  0.892500  1
  C  C653  1  0.011000  0.393700  0.600600  1
  C  C654  1  0.489000  0.106300  0.100600  1
  C  C655  1  0.989000  0.606300  0.399400  1
  C  C656  1  0.511000  0.893700  0.899400  1
  C  C657  1  0.006000  0.351600  0.581200  1
  C  C658  1  0.494000  0.148400  0.081200  1
  C  C659  1  0.994000  0.648400  0.418800  1
  C  C660  1  0.506000  0.851600  0.918800  1
  C  C661  1  0.572100  0.620900  0.508700  1
  C  C662  1  0.927900  0.879100  0.008700  1
  C  C663  1  0.427900  0.379100  0.491300  1
  C  C664  1  0.072100  0.120900  0.991300  1
  C  C665  1  0.495400  0.651700  0.514800  1
  C  C666  1  0.004600  0.848300  0.014800  1
  C  C667  1  0.504600  0.348300  0.485200  1
  C  C668  1  0.995400  0.151700  0.985200  1
  C  C669  1  0.443600  0.669700  0.489500  1
  C  C670  1  0.056400  0.830300  0.989500  1
  C  C671  1  0.556400  0.330300  0.510500  1
  C  C672  1  0.943600  0.169700  0.010500  1
  C  C673  1  0.470300  0.658000  0.459200  1
  C  C674  1  0.029700  0.842000  0.959200  1
  C  C675  1  0.529700  0.342000  0.540800  1
  C  C676  1  0.970300  0.158000  0.040800  1
  C  C677  1  0.550500  0.628700  0.453300  1
  C  C678  1  0.949500  0.871300  0.953300  1
  C  C679  1  0.449500  0.371300  0.546700  1
  C  C680  1  0.050500  0.128700  0.046700  1
  C  C681  1  0.602100  0.609700  0.478100  1
  C  C682  1  0.897900  0.890300  0.978100  1
  C  C683  1  0.397900  0.390300  0.521900  1
  C  C684  1  0.102100  0.109700  0.021900  1
  C  C685  1  0.821000  0.219000  0.491900  1
  C  C686  1  0.679000  0.281000  0.991900  1
  C  C687  1  0.179000  0.781000  0.508100  1
  C  C688  1  0.321000  0.719000  0.008100  1
  C  C689  1  0.838000  0.279000  0.498700  1
  C  C690  1  0.662000  0.221000  0.998700  1
  C  C691  1  0.162000  0.721000  0.501300  1
  C  C692  1  0.338000  0.779000  0.001300  1
  C  C693  1  0.914000  0.307000  0.487400  1
  C  C694  1  0.586000  0.193000  0.987400  1
  C  C695  1  0.086000  0.693000  0.512600  1
  C  C696  1  0.414000  0.807000  0.012600  1
  C  C697  1  0.986000  0.287000  0.463900  1
  C  C698  1  0.514000  0.213000  0.963900  1
  C  C699  1  0.014000  0.713000  0.536100  1
  C  C700  1  0.486000  0.787000  0.036100  1
  C  C701  1  0.987000  0.220000  0.467600  1
  C  C702  1  0.513000  0.280000  0.967600  1
  C  C703  1  0.013000  0.780000  0.532400  1
  C  C704  1  0.487000  0.720000  0.032400  1
  C  C705  1  0.917000  0.199000  0.484000  1
  C  C706  1  0.583000  0.301000  0.984000  1
  C  C707  1  0.083000  0.801000  0.516000  1
  C  C708  1  0.417000  0.699000  0.016000  1
  C  C709  1  0.890000  0.032300  0.537400  1
  C  C710  1  0.610000  0.467700  0.037400  1
  C  C711  1  0.110000  0.967700  0.462600  1
  C  C712  1  0.390000  0.532300  0.962600  1
  C  C713  1  0.756000  0.089300  0.523700  1
  C  C714  1  0.744000  0.410700  0.023700  1
  C  C715  1  0.244000  0.910700  0.476300  1
  C  C716  1  0.256000  0.589300  0.976300  1
  C  C717  1  0.859000  0.988800  0.516800  1
  C  C718  1  0.641000  0.511200  0.016800  1
  C  C719  1  0.141000  0.011200  0.483200  1
  C  C720  1  0.359000  0.488800  0.983200  1
  C  C721  1  0.726000  0.045100  0.501700  1
  C  C722  1  0.774000  0.454900  0.001700  1
  C  C723  1  0.274000  0.954900  0.498300  1
  C  C724  1  0.226000  0.545100  0.998300  1
  C  C725  1  0.858000  0.002400  0.414000  1
  C  C726  1  0.642000  0.497600  0.914000  1
  C  C727  1  0.142000  0.997600  0.586000  1
  C  C728  1  0.358000  0.502400  0.086000  1
  C  C729  1  0.734000  0.055100  0.437500  1
  C  C730  1  0.766000  0.444900  0.937500  1
  C  C731  1  0.266000  0.944900  0.562500  1
  C  C732  1  0.234000  0.555100  0.062500  1
  C  C733  1  0.901000  0.049900  0.401100  1
  C  C734  1  0.599000  0.450100  0.901100  1
  C  C735  1  0.099000  0.950100  0.598900  1
  C  C736  1  0.401000  0.549900  0.098900  1
  C  C737  1  0.771000  0.103700  0.424200  1
  C  C738  1  0.729000  0.396300  0.924200  1
  C  C739  1  0.229000  0.896300  0.575800  1
  C  C740  1  0.271000  0.603700  0.075800  1
  C  C741  1  0.586000  0.925000  0.558700  1
  C  C742  1  0.914000  0.575000  0.058700  1
  C  C743  1  0.414000  0.075000  0.441300  1
  C  C744  1  0.086000  0.425000  0.941300  1
  C  C745  1  0.589000  0.845000  0.551900  1
  C  C746  1  0.911000  0.655000  0.051900  1
  C  C747  1  0.411000  0.155000  0.448100  1
  C  C748  1  0.089000  0.345000  0.948100  1
  C  C749  1  0.588000  0.876900  0.363800  1
  C  C750  1  0.912000  0.623100  0.863800  1
  C  C751  1  0.412000  0.123100  0.636200  1
  C  C752  1  0.088000  0.376900  0.136200  1
  C  C753  1  0.825000  0.932600  0.365000  1
  C  C754  1  0.675000  0.567400  0.865000  1
  C  C755  1  0.175000  0.067400  0.635000  1
  C  C756  1  0.325000  0.432600  0.135000  1
  C  C757  1  0.640000  0.998700  0.369400  1
  C  C758  1  0.860000  0.501300  0.869400  1
  C  C759  1  0.360000  0.001300  0.630600  1
  C  C760  1  0.140000  0.498700  0.130600  1
  C  C761  1  0.126000  0.547000  0.850000  1
  C  C762  1  0.374000  0.953000  0.350000  1
  C  C763  1  0.874000  0.453000  0.150000  1
  C  C764  1  0.626000  0.047000  0.650000  1
  C  C765  1  0.113000  0.552000  0.817000  1
  C  C766  1  0.387000  0.948000  0.317000  1
  C  C767  1  0.887000  0.448000  0.183000  1
  C  C768  1  0.613000  0.052000  0.683000  1
  C  C769  1  0.211000  0.612000  0.832000  1
  C  C770  1  0.289000  0.888000  0.332000  1
  C  C771  1  0.789000  0.388000  0.168000  1
  C  C772  1  0.711000  0.112000  0.668000  1
  C  C773  1  0.190000  0.586000  0.860100  1
  C  C774  1  0.310000  0.914000  0.360100  1
  C  C775  1  0.810000  0.414000  0.139900  1
  C  C776  1  0.690000  0.086000  0.639900  1
  C  C777  1  0.168000  0.595000  0.807900  1
  C  C778  1  0.332000  0.905000  0.307900  1
  C  C779  1  0.832000  0.405000  0.192100  1
  C  C780  1  0.668000  0.095000  0.692100  1
  C  C781  1  0.738000  0.780200  0.490300  1
  C  C782  1  0.762000  0.719800  0.990300  1
  C  C783  1  0.262000  0.219800  0.509700  1
  C  C784  1  0.238000  0.280200  0.009700  1
  C  C785  1  0.704000  0.765000  0.436800  1
  C  C786  1  0.796000  0.735000  0.936800  1
  C  C787  1  0.296000  0.235000  0.563200  1
  C  C788  1  0.204000  0.265000  0.063200  1
  C  C789  1  0.801000  0.807000  0.473100  1
  C  C790  1  0.699000  0.693000  0.973100  1
  C  C791  1  0.199000  0.193000  0.526900  1
  C  C792  1  0.301000  0.307000  0.026900  1
  C  C793  1  0.470000  0.825400  0.439600  1
  C  C794  1  0.030000  0.674600  0.939600  1
  C  C795  1  0.530000  0.174600  0.560400  1
  C  C796  1  0.970000  0.325400  0.060400  1
  C  C797  1  0.491000  0.912100  0.447100  1
  C  C798  1  0.009000  0.587900  0.947100  1
  C  C799  1  0.509000  0.087900  0.552900  1
  C  C800  1  0.991000  0.412100  0.052900  1
  C  C801  1  0.484000  0.886900  0.481300  1
  C  C802  1  0.016000  0.613100  0.981300  1
  C  C803  1  0.516000  0.113100  0.518700  1
  C  C804  1  0.984000  0.386900  0.018700  1
  C  C805  1  0.469000  0.824500  0.475000  1
  C  C806  1  0.031000  0.675500  0.975000  1
  C  C807  1  0.531000  0.175500  0.525000  1
  C  C808  1  0.969000  0.324500  0.025000  1
  N  N809  1  0.223800  0.569200  0.498400  1
  N  N810  1  0.276200  0.930800  0.998400  1
  N  N811  1  0.776200  0.430800  0.501600  1
  N  N812  1  0.723800  0.069200  0.001600  1
  N  N813  1  0.369200  0.523000  0.563400  1
  N  N814  1  0.130800  0.977000  0.063400  1
  N  N815  1  0.630800  0.477000  0.436600  1
  N  N816  1  0.869200  0.023000  0.936600  1
  N  N817  1  0.935100  0.265900  0.647700  1
  N  N818  1  0.564900  0.234100  0.147700  1
  N  N819  1  0.064900  0.734100  0.352300  1
  N  N820  1  0.435100  0.765900  0.852300  1
  N  N821  1  0.002900  0.158900  0.594500  1
  N  N822  1  0.497100  0.341100  0.094500  1
  N  N823  1  0.997100  0.841100  0.405500  1
  N  N824  1  0.502900  0.658900  0.905500  1
  N  N825  1  0.031100  0.207800  0.379000  1
  N  N826  1  0.468900  0.292200  0.879000  1
  N  N827  1  0.968900  0.792200  0.621000  1
  N  N828  1  0.531100  0.707800  0.121000  1
  N  N829  1  0.965400  0.340300  0.349800  1
  N  N830  1  0.534600  0.159700  0.849800  1
  N  N831  1  0.034600  0.659700  0.650200  1
  N  N832  1  0.465400  0.840300  0.150200  1
